#------------------------------------------------------------------------------
#$Date: 2015-08-27 15:05:43 +0300 (Thu, 27 Aug 2015) $
#$Revision: 153726 $
#$URL: svn://www.crystallography.net/cod/cif/7/11/76/7117641.cif $
#------------------------------------------------------------------------------
#
# This file is available in the Crystallography Open Database (COD),
# http://www.crystallography.net/
#
# All data on this site have been placed in the public domain by the
# contributors.
#
data_7117641
loop_
_publ_author_name
'Gerard Tobin'
'Steve Comby'
'Nianyong Zhu'
'Rodolphe Clerac'
'Thorfinnur Gunnlaugsson'
'Wolfgang Schmitt'
_publ_section_title
;
 Towards multifunctional lanthanide-based metal-organic frameworks
;
_journal_name_full               Chem.Commun.
_journal_page_first              13313
_journal_paper_doi               10.1039/C5cc04928H
_journal_volume                  51
_journal_year                    2015
_chemical_formula_sum            'C36 H30 Ho N O11'
_chemical_formula_weight         817.54
_chemical_name_common            TCM-9
_chemical_name_systematic        'Holmium-BETB MOF'
_space_group_crystal_system      orthorhombic
_space_group_IT_number           46
_space_group_name_Hall           'I 2 -2a'
_space_group_name_H-M_alt        'I m a 2'
_symmetry_space_group_name_Hall  'I 2 -2a'
_symmetry_space_group_name_H-M   'I m a 2'
_atom_sites_solution_hydrogens   geom
_audit_creation_method           SHELXL-2013
_audit_update_record
;
2015-06-05 deposited with the CCDC.
2015-07-15 downloaded from the CCDC.
;
_cell_angle_alpha                90
_cell_angle_beta                 90
_cell_angle_gamma                90
_cell_formula_units_Z            4
_cell_length_a                   21.403(6)
_cell_length_b                   34.255(9)
_cell_length_c                   8.023(2)
_cell_measurement_reflns_used    4565
_cell_measurement_temperature    173(2)
_cell_measurement_theta_max      22.0825
_cell_measurement_theta_min      2.9139
_cell_volume                     5882(3)
_computing_cell_refinement       Saint
_computing_data_collection       APEX
_computing_data_reduction        APEX
_computing_molecular_graphics    ortep
_computing_structure_refinement  'SHELXL-2013 (Sheldrick, 2013)'
_computing_structure_solution    Shelxs-97
_diffrn_ambient_temperature      173(2)
_diffrn_measured_fraction_theta_full 0.989
_diffrn_measured_fraction_theta_max 0.990
_diffrn_measurement_device_type  'Brucker APEX DUO'
_diffrn_measurement_method       oscillation
_diffrn_radiation_type           CuK\a
_diffrn_radiation_wavelength     1.54184
_diffrn_reflns_av_R_equivalents  0.1263
_diffrn_reflns_av_unetI/netI     0.1093
_diffrn_reflns_laue_measured_fraction_full 0.989
_diffrn_reflns_laue_measured_fraction_max 0.990
_diffrn_reflns_limit_h_max       26
_diffrn_reflns_limit_h_min       -26
_diffrn_reflns_limit_k_max       41
_diffrn_reflns_limit_k_min       -41
_diffrn_reflns_limit_l_max       9
_diffrn_reflns_limit_l_min       -7
_diffrn_reflns_number            27706
_diffrn_reflns_point_group_measured_fraction_full 0.988
_diffrn_reflns_point_group_measured_fraction_max 0.989
_diffrn_reflns_theta_full        67.684
_diffrn_reflns_theta_max         70.073
_diffrn_reflns_theta_min         2.434
_exptl_absorpt_coefficient_mu    2.820
_exptl_absorpt_correction_T_max  0.7454
_exptl_absorpt_correction_T_min  0.4845
_exptl_absorpt_correction_type   multi-scan
_exptl_absorpt_process_details   SADABS
_exptl_crystal_colour            colorless
_exptl_crystal_density_diffrn    0.923
_exptl_crystal_description       needle
_exptl_crystal_F_000             1632
_exptl_crystal_size_max          0.10
_exptl_crystal_size_mid          0.01
_exptl_crystal_size_min          0.01
_platon_squeeze_details          ' ?'
_refine_diff_density_max         2.909
_refine_diff_density_min         -3.048
_refine_diff_density_rms         0.292
_refine_ls_abs_structure_details
;
 Refined as an inversion twin.
;
_refine_ls_abs_structure_Flack   0.54(10)
_refine_ls_extinction_coef       .
_refine_ls_extinction_method     none
_refine_ls_goodness_of_fit_ref   1.507
_refine_ls_hydrogen_treatment    constr
_refine_ls_matrix_type           full
_refine_ls_number_parameters     211
_refine_ls_number_reflns         5370
_refine_ls_number_restraints     330
_refine_ls_restrained_S_all      1.658
_refine_ls_R_factor_all          0.2130
_refine_ls_R_factor_gt           0.1469
_refine_ls_shift/su_max          0.000
_refine_ls_shift/su_mean         0.000
_refine_ls_structure_factor_coef Fsqd
_refine_ls_weighting_details
;
 w=1/[\s^2^(Fo^2^)+(0.2000P)^2^]
 where P=(Fo^2^+2Fc^2^)/3
;
_refine_ls_weighting_scheme      calc
_refine_ls_wR_factor_gt          0.3668
_refine_ls_wR_factor_ref         0.4213
_reflns_Friedel_coverage         0.855
_reflns_friedel_fraction_full    0.987
_reflns_friedel_fraction_max     0.988
_reflns_number_gt                3362
_reflns_number_total             5370
_reflns_threshold_expression     'I > 2\s(I)'
_cod_data_source_file            c5cc04928h2.cif
_cod_data_source_block           shelx
_cod_database_code               7117641
_shelx_space_group_comment
;
The symmetry employed for this shelxl refinement is uniquely defined
by the following loop, which should always be used as a source of
symmetry information in preference to the above space-group names.
They are only intended as comments.
;
_shelxl_version_number           2013-2
_shelx_res_file
;
TITL gho1b in Ima2
CELL  1.54184  21.4030  34.2550   8.0230   90.000   90.000   90.000
ZERR     4.00   0.0060   0.0090   0.0020    0.000    0.000    0.000
LATT  -2
SYMM  - X, - Y,   Z
SYMM  1/2 - X,   Y,   Z
SYMM  1/2 + X, - Y,   Z
SFAC  C    H    O    HO   N
UNIT  144  120  44   4    4
MERG   2
ACTA
L.S.   8
TEMP  -100.00
WGHT    0.200000
BASF   0.54071
FVAR       0.10994
C1    1    0.750000    0.178624    0.519242    10.50000    0.06390    0.04550 =
         0.05397    0.01432    0.00000    0.00000
AFIX  66
C2    1    0.750000    0.136767    0.505368    10.50000    0.07487    0.04964 =
         0.06624   -0.01250    0.00000    0.00000
C3    1    0.750000    0.115866    0.653869    10.50000    0.12361    0.10679 =
         0.11156   -0.00030    0.00000    0.00000
AFIX  43
H3    2    0.750000    0.129310    0.757435    10.50000   -1.20000
AFIX  65
C4    1    0.750000    0.075294    0.650838    10.50000    0.12897    0.10423 =
         0.11615    0.00165    0.00000    0.00000
AFIX  43
H4    2    0.749999    0.061010    0.752332    10.50000   -1.20000
AFIX  65
C5    1    0.750000    0.055623    0.499306    10.50000    0.11915    0.10420 =
         0.11411    0.00661    0.00000    0.00000
C6    1    0.750000    0.076523    0.350804    10.50000    0.09103    0.08092 =
         0.08793   -0.00366    0.00000    0.00000
AFIX  43
H6    2    0.750000    0.063079    0.247239    10.50000   -1.20000
AFIX  65
C7    1    0.750000    0.117095    0.353832    10.50000    0.06509    0.04460 =
         0.05437   -0.00945    0.00000    0.00000
AFIX  43
H7    2    0.750000    0.131379    0.252338    10.50000   -1.20000
AFIX   0
C8    1    0.750000    0.012802    0.492432    10.50000    0.13672    0.12239 =
         0.13279   -0.00463    0.00000    0.00000
C9    1    0.750000   -0.023283    0.486639    10.50000    0.11727    0.10834 =
         0.11784   -0.00331    0.00000    0.00000
C10   1    0.750000   -0.064817    0.475306    10.50000    0.11020    0.10887 =
         0.11934   -0.00551    0.00000    0.00000
C11   1    0.807497   -0.083777    0.462090    11.00000    0.13312    0.12913 =
         0.14847   -0.00490   -0.01263    0.00414
AFIX  43
H11   2    0.845291   -0.069457    0.472910    11.00000   -1.20000
AFIX   0
C12   1    0.809077   -0.124084    0.432745    11.00000    0.10574    0.08893 =
         0.11171   -0.00457   -0.01580    0.00958
C13   1    0.750000   -0.142010    0.431813    10.50000    0.09373    0.08720 =
         0.09875    0.00675    0.00000    0.00000
AFIX  43
H13   2    0.750000   -0.169741    0.430370    10.50000   -1.20000
AFIX   0
C14   1    0.861313   -0.145052    0.450893    11.00000    0.15404    0.14378 =
         0.16344   -0.00573   -0.02117    0.00968
C15   1    0.909412   -0.163783    0.477559    11.00000    0.19845    0.20243 =
         0.20508   -0.00572   -0.01376    0.00724
AFIX  66
C16   1    0.961231   -0.184166    0.504909    11.00000    0.22673    0.23006 =
         0.22272   -0.00150   -0.00530    0.00506
C17   1    0.988809   -0.204876    0.375356    11.00000    0.23476    0.23265 =
         0.24120    0.00042   -0.00013    0.00845
AFIX  43
H17   2    0.970567   -0.204490    0.267421    11.00000   -1.20000
AFIX  65
C18   1    1.043077   -0.226153    0.403728    11.00000    0.22527    0.22776 =
         0.22545    0.00156   -0.00586    0.00304
AFIX  43
H18   2    1.061926   -0.240308    0.315184    11.00000   -1.20000
AFIX  65
C19   1    1.069768   -0.226718    0.561653    11.00000    0.21283    0.21376 =
         0.21816   -0.00309   -0.00378    0.00058
C20   1    1.042190   -0.206008    0.691208    11.00000    0.23465    0.23560 =
         0.23960    0.00280   -0.00854    0.00329
AFIX  43
H20   2    1.060432   -0.206394    0.799143    11.00000   -1.20000
AFIX  65
C21   1    0.987922   -0.184731    0.662838    11.00000    0.26448    0.26408 =
         0.26774   -0.00088   -0.00170    0.00054
AFIX  43
H21   2    0.969074   -0.170576    0.751383    11.00000   -1.20000
AFIX   0
O1    3    0.750000    0.196339    0.665835    10.50000    0.07883    0.05472 =
         0.08373   -0.00548    0.00000    0.00000
O2    3    0.750000    0.197053    0.382089    10.50000    0.10187    0.07725 =
         0.06288    0.00870    0.00000    0.00000
O5    3    0.822305    0.183945    0.996769    11.00000    0.10102    0.05087 =
         0.10965   -0.01976    0.03955    0.00771
HO1   4    0.750000    0.233696    0.882672    10.50000    0.05958    0.00341 =
         0.04354   -0.00463    0.00000    0.00000
O6    3    0.891342    0.143107    1.196343    11.00000    0.28063
O3    3    1.150294   -0.247755    0.773197    11.00000    0.06553    0.07031 =
         0.07701    0.01073   -0.00694    0.01335
O4    3    1.187668   -0.234606    0.528309    11.00000    0.24083    0.24747 =
         0.25120   -0.01789    0.00336    0.00787
O7    3    0.750000   -0.244159    0.440744    10.50000    0.25772
N1    5    0.680531   -0.286468    0.493641    10.50000    0.22532
C23   1    0.696106   -0.254102    0.395830    10.50000    0.21170
C24   1    0.612879   -0.296492    0.506737    10.50000    0.11305
C25   1    0.734466   -0.310728    0.555007    10.50000    0.39386
C22   1    1.129600   -0.238237    0.643784    11.00000    0.16813
HKLF    4
 
REM  gho1b in Ima2
REM R1 =  0.1469 for    3362 Fo > 4sig(Fo)  and  0.2130 for all    5370 data
REM    211 parameters refined using    330 restraints
 
END
 
WGHT      0.2000      0.0000
 
REM Highest difference peak  2.909,  deepest hole -3.048,  1-sigma level  0.292
Q1    1   0.7675  0.2333  0.8427  11.00000  0.05    2.91
Q2    1   0.7672  0.2328  0.9248  11.00000  0.05    2.64
Q3    1   0.6585 -0.2799  0.3875  11.00000  0.05    1.45
Q4    1   1.1867 -0.2425  0.6292  11.00000  0.05    1.36
Q5    1   0.8813 -0.1405  0.3791  11.00000  0.05    1.32
Q6    1   1.1830 -0.2574  0.6214  11.00000  0.05    1.24
Q7    1   0.9089  0.1521  1.1577  11.00000  0.05    1.23
Q8    1   0.7500  0.2342  1.0956  10.50000  0.05    1.19
Q9    1   0.7500  0.2336  0.6732  10.50000  0.05    1.13
Q10   1   0.7310  0.2028  0.3814  11.00000  0.05    1.13
Q11   1   1.0934 -0.1504  0.6041  11.00000  0.05    1.12
Q12   1   0.8987  0.1918  1.1620  11.00000  0.05    1.05
Q13   1   0.9371 -0.1536  0.3859  11.00000  0.05    1.04
Q14   1   0.8550  0.1751  1.1417  11.00000  0.05    0.97
Q15   1   0.9713  0.1417  1.2065  11.00000  0.05    0.97
Q16   1   0.6427 -0.2978  0.5237  11.00000  0.05    0.93
Q17   1   0.8420 -0.0419 -0.0270  11.00000  0.05    0.92
Q18   1   0.6383 -0.3469  0.4704  11.00000  0.05    0.92
Q19   1   1.1483 -0.1735  0.6260  11.00000  0.05    0.89
Q20   1   1.1052 -0.1902  0.5844  11.00000  0.05    0.88
;
_shelx_res_checksum              83415
_shelx_hkl_file
;
  -1   0   1   -1.12    0.86
  -1   0   1   -1.89    0.83
   1   0  -1    0.82    0.71
   1   0   3    4.14    3.76
   1   0   5   10.01    5.09
  -2   0   0  914.88   44.22
  -2   0   0  922.84   55.32
   2   0   0  947.14   44.20
  -2   0   0  942.66   55.30
   2   0   0  948.22   55.38
  -2   0   2  669.64   46.89
   2   0  -2  915.12   37.43
   2   0   4  182.91   10.59
   2   0   6   65.78    7.37
   3   0   1   -0.58    1.74
   3   0   1    1.40    1.39
   3   0  -1    0.00    1.76
  -3   0   1   -0.54    1.73
  -3   0   1   -0.18    2.08
  -3   0   1    1.12    2.05
  -3   0  -1   -0.21    1.34
  -3   0   3   -0.38    3.43
  -3   0   3   -0.16    3.44
   3   0  -3    4.43    2.58
   3   0   5    6.39    5.73
  -3   0   5   -2.12    4.63
  -3   0   5   -0.02    4.54
  -3   0   7    1.07    5.54
  -3   0   7   -0.51    4.98
  -3   0   9    5.41    5.65
  -3   0   9   -2.57    5.82
   4   0   0  681.88   40.28
   4   0   0  679.73   40.33
   4   0   0  684.37   32.22
  -4   0   0  666.90   32.20
  -4   0   2  631.36   30.06
   4   0   2  577.16   37.39
  -4   0   2  612.45   37.83
  -4   0  -2  661.40   29.94
  -4   0   2  664.59   37.73
  -4   0   4  245.06   15.85
  -4   0   4  240.85   15.88
  -4   0   6   79.99    8.82
  -4   0   6   71.71    9.50
   4   0   6   77.62    9.72
  -4   0   8   18.77    6.07
  -4   0   8   14.46    6.32
  -4   0  10    6.74    6.64
  -4   0  10    9.94    7.11
   5   0   1    9.48    2.99
   5   0   1    5.40    3.44
  -5   0   1    4.29    3.97
  -5   0  -1    2.84    2.85
   5   0  -1    1.83    3.19
  -5   0   1    0.19    3.72
  -5   0   1    5.61    3.31
  -5   0   3    2.75    2.60
  -5   0   3    2.38    4.15
  -5   0   3   -3.00    4.08
   5   0   3    8.97    3.22
  -5   0   5   -2.54    5.31
   5   0   5    5.07    6.86
  -5   0   5   -2.45    5.79
  -5   0   7    2.00    6.42
  -5   0   7    3.47    5.94
   5   0   7    6.45    6.92
  -5   0   9   -1.46    6.20
  -5   0   9    0.22    6.67
  -6   0   0  534.54   26.14
   6   0   0  532.45   32.55
   6   0   0  529.55   32.43
   6   0   0  539.13   26.08
   6   0  -2  225.75   12.64
  -6   0   2  234.17   15.49
  -6   0   2  235.22   12.47
   6   0   2  220.18   11.55
   6   0   2  211.75   14.75
  -6   0  -2  222.16   12.16
  -6   0   2  234.26   15.25
  -6   0   4  252.79   17.51
  -6   0   4  266.38   17.30
  -6   0   6   97.86   11.08
   6   0   6   96.77   10.86
  -6   0   6   92.70   11.19
  -6   0   8   19.26    6.47
  -6   0   8   10.70    6.96
  -6   0  10    8.28    7.49
  -7   0  -1    0.62    3.77
   7   0   1   -3.62    3.86
   7   0   1   -5.74    4.34
   7   0  -1   -6.80    4.05
  -7   0   1   -5.73    4.57
  -7   0   1   -1.31    5.00
  -7   0   1    4.59    4.04
  -7   0   3   -6.26    4.77
   7   0  -3   -3.86    4.14
  -7   0   3   -1.40    3.45
  -7   0   3   -3.95    5.04
  -7   0  -3    1.52    3.20
   7   0   3    4.19    4.15
  -7   0   5   -2.96    6.35
   7   0   5   -0.75    5.02
  -7   0   5    5.83    6.64
   7   0  -5    2.10    5.49
  -7   0   7    2.07    6.34
   7   0   7   14.38    7.84
  -7   0   7    2.97    7.03
  -7   0   9    7.52    7.27
  -7   0   9    7.58    7.01
   8   0   0  835.70   50.74
  -8   0   0  845.80   40.72
   8   0   0  864.03   40.66
   8   0   0  838.88   50.70
   8   0  -2  243.10   13.43
   8   0   2  232.76   12.68
  -8   0   2  234.60   16.10
   8   0   2  232.18   15.71
  -8   0   2  241.69   16.16
  -8   0   2  240.74   13.28
  -8   0  -2  234.99   13.10
  -8   0  -4  119.36    8.55
  -8   0   4  118.70    8.24
  -8   0   4  124.24   11.79
   8   0  -4  127.60   10.10
  -8   0   4  116.47   11.47
  -8   0   6   60.14    8.24
  -8   0   6   59.77    8.74
  -8   0   8   28.71    7.17
  -8   0   8   21.15    7.89
  -9   0   1   -2.48    4.58
  -9   0   1   -1.41    4.07
   9   0   1   -3.95    3.92
   9   0   1   -4.68    4.76
   9   0   1   -4.86    4.44
   9   0  -1   -6.01    4.02
  -9   0  -1    0.01    3.93
  -9   0   1   -6.08    5.01
  -9   0   3  -10.10    5.46
   9   0   3   -0.64    4.96
   9   0  -3   -7.89    4.71
  -9   0   3   -6.64    4.34
  -9   0  -3    2.40    4.05
  -9   0   3   -6.30    5.69
  -9   0   5    0.63    7.24
   9   0  -5   -6.83    6.00
  -9   0  -5    7.75    4.30
   9   0   5    6.87    5.93
  -9   0   5    2.10    7.08
   9   0  -7    0.59    6.01
  -9   0   7    0.69    7.36
  -9   0   7   -0.08    6.80
   9   0   7    7.16    8.61
   9   0   7    3.83    5.30
  -9   0   9    2.89    7.85
  -9   0   9    3.27    8.78
  10   0   0  646.35   31.22
  10   0   0  635.82   38.72
  10   0   0  612.23   38.63
 -10   0   0  652.31   31.24
 -10   0   2  171.33   11.70
  10   0  -2  184.80   11.96
 -10   0   2  178.50   14.14
  10   0   2  181.50   13.71
  10   0   2  187.47   13.77
 -10   0  -2  184.27   11.73
 -10   0   2  189.39   14.18
  10   0   2  193.98   11.18
 -10   0   4  109.85   12.04
 -10   0   4   95.12    8.58
 -10   0   4   97.11   11.10
 -10   0  -4   77.66    8.69
  10   0   4   68.71   10.18
  10   0  -4   88.63   10.16
 -10   0   6   77.13   11.81
 -10   0   6   72.11    9.50
 -10   0   8   29.65    7.84
  10   0   8   14.39    8.94
 -10   0   8   27.31    8.30
  11   0   1   -4.83    5.43
  11   0   1   -1.93    5.25
 -11   0   1   -5.90    4.70
  11   0  -1  -11.61    4.64
 -11   0  -1   -0.90    4.65
  11   0   1  -10.92    4.62
 -11   0   3   -8.67    6.81
  11   0   3    3.39    6.19
  11   0   3    5.91    3.99
 -11   0   3   -8.65    6.78
 -11   0   3   -9.58    5.25
  11   0  -3  -17.87    5.69
 -11   0  -3    1.46    5.20
  11   0  -5   -6.80    6.72
 -11   0   5    1.84    7.94
 -11   0   5    1.83    7.70
 -11   0  -5    1.30    5.24
 -11   0   5    0.08    4.84
  11   0   5    7.99    6.68
  11   0  -7    3.30    6.43
 -11   0   7   -2.45    8.26
  11   0   7    7.62    6.19
 -11   0   7    1.34    7.94
  11   0   9   -6.03    6.07
  11   0   9    5.77    6.46
 -11   0   9   10.82    7.91
  12   0   0  371.63   24.24
 -12   0   0  382.55   19.99
  12   0   0  381.80   19.76
  12   0   0  354.07   24.39
  12   0   2  139.74   13.77
 -12   0  -2  142.96   11.65
 -12   0   2  167.51   13.77
 -12   0   2  163.14   11.72
  12   0   2  157.79   11.34
  12   0   2  145.73   13.07
  12   0  -2  166.13   12.23
 -12   0   4  103.10    9.69
 -12   0  -4   81.25    9.69
  12   0  -4   99.81   10.97
 -12   0   4   88.27   12.01
  12   0   4   81.43   11.12
 -12   0   4   99.42   12.74
  12   0  -6   13.73    6.97
 -12   0   6   23.19    8.33
 -12   0   6   27.07    8.10
  12   0   6   10.79    6.67
  12   0   8    7.97    9.39
 -12   0   8   29.21    9.65
 -12   0   8   23.26    7.98
  12   0   8    6.60    6.82
  12   0   8    6.34    6.64
 -13   0   1    7.80    5.78
 -13   0  -1    7.34    5.86
  13   0   1    5.26    5.71
  13   0   1   11.80    6.53
  13   0  -1   -1.13    6.65
  13   0   1    8.96    6.56
  13   0  -1   -1.38    5.58
 -13   0   3   -8.58    7.53
 -13   0  -3   -7.75    6.16
  13   0   3   -9.06    7.04
  13   0  -3  -15.90    6.55
  13   0   3   -7.61    4.77
 -13   0   3  -12.10    7.91
  13   0   3   -3.82    7.35
 -13   0   3  -10.44    5.99
  13   0   5    1.78    7.24
  13   0   5    6.22    7.12
 -13   0  -5    6.18    5.84
  13   0  -5   -5.05    7.07
 -13   0   5    0.98    8.24
 -13   0   5    2.87    9.09
 -13   0   5   -1.31    5.67
  13   0   7   -0.46    6.89
 -13   0   7    0.73    9.51
 -13   0   7   -3.91    8.49
  13   0  -7   -3.69    6.93
  13   0   7   -6.38    7.51
  13   0   9   -2.22    6.90
  13   0   9    4.90    7.26
 -14   0   0  240.12   15.80
  14   0   0  249.14   15.55
  14   0   0  222.57   18.02
  14   0   2   93.64   12.17
 -14   0   2  125.89   12.87
 -14   0   2  127.83   11.60
  14   0  -2  111.25   11.74
 -14   0  -2   96.95   11.33
  14   0   2   87.85   10.99
  14   0   2   93.55   12.68
 -14   0   4  106.83   11.00
 -14   0   4   94.61   10.30
  14   0  -4   74.46    8.60
 -14   0  -4   67.41    7.90
  14   0   4   80.07   12.26
 -14   0   4  102.41   13.21
  14   0   4   71.32   11.42
 -14   0   6   44.67    9.77
 -14   0   6   42.35    8.76
  14   0   6   28.51    7.62
  14   0   6   18.88    7.59
  14   0  -6   22.60    7.48
  14   0   8    2.93    7.47
  14   0   8   -4.37    7.29
  14   0   8   16.47   10.19
  15   0   1   -7.59    7.35
  15   0   1   -6.53    7.66
 -15   0   1   -2.15    6.50
  15   0  -1   -5.25    6.35
  15   0   1   -5.59    6.51
 -15   0  -1    4.09    6.74
  15   0  -1    1.19    7.47
  15   0   3    9.79    5.70
  15   0   3    5.71    8.17
 -15   0  -3   -2.83    6.83
 -15   0   3    5.72    6.58
  15   0  -3  -14.44    6.95
  15   0   3    6.40    7.98
  15   0   5   -2.58    7.66
  15   0  -5  -10.47    7.32
 -15   0   5   -2.74    6.24
 -15   0  -5   -0.38    6.22
  15   0   5   -4.02    7.57
  15   0   7    2.94    7.62
  15   0   7   -1.10    8.01
  15   0  -7   -5.83    7.40
  16   0   0   86.20   12.22
 -16   0   0  102.70   12.41
  16   0   0   87.13    8.38
  16   0   2   69.77    9.60
  16   0  -2   75.83    8.21
  16   0   2   75.98    9.75
 -16   0  -2   68.41    8.37
  16   0   2   73.56    8.10
 -16   0   2   80.93    8.19
  16   0   4   85.68   11.97
  16   0   4   92.34   12.78
  16   0  -4  100.60   11.73
 -16   0   4  116.61   11.13
  16   0  -6    1.97    7.56
  16   0   6    7.64    8.43
  16   0   6   12.28    7.71
 -16   0   6   -0.11    5.84
  16   0  -8    6.43    8.05
  16   0   8    7.45    8.29
  16   0   8    5.54    7.95
 -17   0   1   21.25    7.23
  17   0   1   13.09    8.50
 -17   0  -1   21.99    7.74
  17   0  -1    8.70    6.92
  17   0   1    9.11    7.16
  17   0   3    0.07    8.25
 -17   0   3    8.37    6.90
 -17   0  -3    1.22    7.41
  17   0   3   -1.78    8.20
  17   0  -3   -4.91    7.28
  17   0   3   23.19    6.36
 -17   0   5   -7.81    6.74
  17   0   5   -1.21    8.01
  17   0   5   -8.41    8.57
 -17   0  -5  -12.08    6.77
  17   0  -5   -8.97    7.62
  17   0  -7   -5.93    7.79
  17   0   7    1.45    7.82
  17   0   7   -1.87    8.57
  18   0   0   40.27    7.70
 -18   0   0   45.81    8.13
  18   0   2   62.02    9.86
  18   0  -2   54.13    7.89
 -18   0  -2   58.08    8.33
 -18   0   2   57.95    7.82
  18   0   2   49.15    7.96
  18   0  -4   16.04    7.53
  18   0   4    0.85    4.86
  18   0   4   20.30    8.42
 -18   0   4   19.42    7.15
 -18   0  -4    5.14    7.18
  18   0   4   24.92    8.39
  18   0   6    4.06    8.79
  18   0   6    3.12    7.95
  18   0  -6    5.59    7.98
 -18   0   6  -16.12    6.50
 -19   0   1   23.07    7.28
 -19   0  -1   11.07    7.71
  19   0  -1    6.06    6.93
  19   0   1   14.00    7.30
  19   0   3    8.37    6.61
 -19   0   3   -3.84    6.96
  19   0   3   -3.32    8.67
 -19   0  -3   -8.99    7.69
  19   0  -3   -2.45    7.12
 -19   0  -5   -7.11    7.23
  19   0   5    1.99    8.36
  19   0  -5    1.95    7.88
 -19   0   5   -3.30    7.25
  19   0  -7   -5.48    8.24
  19   0   7   -2.48    8.85
  19   0   7   -5.38    9.71
  20   0   0   17.68    7.35
 -20   0   0   17.89    7.66
  20   0  -2   -0.68    7.06
  20   0   2   -3.73    7.47
 -20   0  -2   -3.03    7.83
 -20   0   2   -2.63    7.26
  20   0  -4    3.64    7.54
  20   0   4    8.57    8.89
 -20   0  -4   -5.59    7.55
 -20   0   4    0.87    7.37
 -20   0   6  -17.81    7.20
  20   0  -6    8.85    8.29
  20   0   6    9.39    8.91
  21   0   1   13.93    7.72
  21   0  -1    5.74    7.27
 -21   0  -1   12.29    8.05
 -21   0   1    6.16    7.49
 -21   0  -3   -6.45    8.10
  21   0  -3    5.29    7.48
  21   0   3   -1.45    6.90
 -21   0   3    5.98    7.46
 -21   0  -5  -12.97    7.66
  21   0  -5   -1.83    8.10
 -21   0   5  -11.50    7.61
  21   0   5   -1.59    8.99
 -22   0   0    4.71    7.86
  22   0   0    6.32    7.51
  22   0  -2   -5.47    7.25
 -22   0  -2   -8.51    8.09
 -22   0   2   -2.65    7.60
  22   0   2  -14.78    7.92
 -22   0   4  -19.16    7.69
 -22   0  -4  -19.00    7.88
  22   0  -4   -9.90    7.85
  22   0   6    7.19    9.84
 -23   0  -1    1.91    8.30
  23   0   1    2.49    8.12
 -23   0   1   -1.13    7.75
  23   0  -1    4.35    7.49
  23   0   3   -5.23    7.21
 -23   0   3   -1.42    7.99
  23   0  -3    5.52    7.67
 -23   0  -3   -5.67    8.40
 -23   0   5  -15.09    8.48
 -23   0  -5  -17.07    8.23
  23   0  -5    0.13    8.81
  24   0   0  -13.91    7.56
 -24   0   0  -18.69    7.97
 -24   0   2   -8.45    7.79
 -24   0  -2  -25.00    8.53
  24   0   2  -18.63    8.41
  24   0  -2   -9.85    7.49
  24   0  -4   -1.60    8.41
  25   0   1   -4.03    8.57
 -25   0  -1   -0.85    8.62
  25   0  -1    3.67    7.80
 -25   0   1   -5.35    8.21
  25   0   3  -11.45    7.84
  25   0  -3    6.53    8.27
 -25   0  -3   -5.38    8.99
 -25   0   3   -2.75    8.53
 -26   0   0  -24.55    8.57
  26   0   0  -21.30    8.51
 -26   0  -2  -24.72    8.95
  26   0   2  -28.07    8.94
 -26   0   2  -21.46    8.63
  26   0  -2   -7.31    8.30
  27   0  -1    3.36    8.52
  27   0   1   -6.45    9.58
   0  -1   1   15.67    2.01
   0  -1   3   37.60    4.54
   1   1   0  100.25    6.08
   1  -1   2  218.80   11.47
   1  -1   4  292.61   14.90
   1   1   4  283.26   14.63
  -2  -1  -1    4.77    1.05
  -2   1   1    1.79    1.63
  -2   1   1    2.81    1.33
  -2   1   1    5.34    1.50
   2  -1   1    5.24    1.09
   2  -1   1    2.06    1.34
   2   1  -1    5.28    1.30
  -2  -1   1    3.28    1.26
   2   1   1    1.62    1.35
  -2   1  -1    5.32    0.86
  -2  -1   1    4.09    1.50
  -2  -1   1    1.19    1.56
   2  -1  -1    5.99    1.22
  -2   1   3    2.18    2.74
   2  -1   3    3.97    4.38
  -2  -1   3    1.22    2.90
   2  -1   5   12.45    5.74
   2   1   5    6.38    5.01
  -2   1   7   -1.77    4.84
  -2   1   9   -1.33    5.26
  -2  -1   9   -1.81    5.37
  -2  -1   9    3.09    4.86
  -3  -1   0  442.17   26.05
  -3  -1   0  426.20   20.81
  -3   1   0  427.42   20.82
   3   1   0  440.18   26.07
   3  -1   0  443.77   26.07
   3   1   0  443.56   20.84
   3  -1   0  442.05   20.84
   3   1   0  443.90   26.10
   3   1  -2  425.36   21.41
  -3   1   2  473.23   26.78
  -3   1   2  426.82   21.27
  -3  -1   2  453.53   26.83
  -3  -1   2  435.66   21.24
  -3   1   4  147.09   10.64
   3   1  -4  152.88    8.62
   3  -1   4  173.78    9.77
  -3   1   4  161.45   10.48
  -3  -1   4  135.88   10.46
  -3  -1   4  127.51   10.62
   3  -1   6  102.22    9.68
  -3   1   6   92.02    9.24
  -3   1   6   81.85    8.95
  -3  -1   6   79.43    8.61
   3   1   6  100.69    9.26
  -3  -1   6   77.59    9.56
  -3   1   8    4.23    5.68
  -3   1   8   20.55    5.35
  -3  -1   8    5.82    6.05
  -3  -1   8   15.80    5.50
  -3   1  10    5.50    6.19
  -3  -1  10   10.11    6.14
  -3  -1  10   -0.20    6.35
  -4  -1  -1  185.17    9.84
  -4   1   1  197.39   12.35
   4  -1   1  192.02   12.06
  -4   1   1  169.22   12.40
  -4   1   1  180.04   10.07
   4  -1   1  201.52    9.86
   4   1   1  200.29   12.14
   4   1   1  197.61    9.82
  -4  -1   1  188.71   12.36
   4  -1  -1  190.19   10.13
  -4  -1   1  186.30   10.14
  -4   1  -1  190.42    9.82
  -4  -1   1  182.44   12.29
  -4   1   3    2.76    3.90
  -4   1   3   13.88    3.82
  -4  -1   3    4.69    4.01
  -4  -1   3    1.01    3.76
  -4   1   5    2.88    5.16
  -4   1   5    2.54    5.17
   4  -1   5   14.67    6.43
  -4  -1   5    3.41    4.82
  -4  -1   5    3.19    5.44
  -4   1   7   -1.96    5.35
   4  -1   7    0.30    6.89
  -4   1   7    3.32    5.93
   4   1   7    6.40    6.46
  -4  -1   7    3.33    5.48
  -4  -1   7   -2.35    6.09
  -4   1   9   -5.59    6.10
  -4   1   9   -2.05    6.21
  -4  -1   9    0.96    6.40
  -4  -1   9    2.91    5.76
   5  -1   0  757.82   36.01
   5  -1   0  738.09   45.02
   5   1   0  759.40   45.04
   5   1   0  774.89   36.04
  -5  -1   0  760.58   45.09
  -5  -1   0  746.71   36.04
  -5   1   0  733.58   36.04
   5  -1   0  773.25   45.07
   5   1   0  763.24   45.06
  -5   1   2  324.33   21.31
  -5   1   2  337.60   16.91
   5  -1   2  331.60   20.66
  -5   1   2  336.68   20.99
  -5  -1  -2  350.06   16.82
  -5  -1   2  330.24   21.04
  -5  -1   2  341.71   21.20
   5   1   2  345.07   20.66
  -5   1  -2  332.24   16.67
   5  -1  -2  320.62   17.04
  -5  -1   2  337.47   16.94
  -5   1   4  305.96   19.37
  -5   1   4  301.87   19.28
  -5  -1   4  313.95   19.44
   5  -1  -4  288.16   15.70
  -5  -1   4  295.44   19.39
  -5   1   6   88.31   10.40
   5  -1   6  108.99   10.94
  -5   1   6   82.99    9.94
  -5  -1   6   81.82   10.57
   5   1   6  103.49   10.49
  -5  -1   6   89.00   10.31
  -5   1   8   10.28    6.58
  -5   1   8   17.54    6.39
  -5  -1   8    4.68    6.80
  -5  -1   8   18.57    6.13
  -5   1  10    4.13    7.04
  -5  -1  10   -1.03    7.11
  -5  -1  10    7.25    7.04
  -6  -1  -1  122.09    8.93
   6  -1   1  110.71   10.55
  -6   1   1  139.19   11.10
  -6   1   1  148.34   10.84
  -6   1   1  152.67    9.09
   6   1  -1  142.83    9.29
   6  -1   1  127.87    9.01
  -6   1  -1  127.18    9.23
  -6  -1   1  142.47   10.80
   6  -1  -1  147.25    9.53
   6   1   1  119.95    9.07
  -6  -1   1  153.12   11.04
   6   1   1  115.91   10.47
  -6  -1   1  163.10    9.57
   6   1   1  112.02   10.30
  -6  -1  -3   12.45    3.06
  -6   1   3    6.55    4.72
   6  -1   3   25.39    4.09
  -6   1   3   13.20    4.69
  -6   1   3   13.18    3.24
   6  -1   3   16.83    3.73
  -6  -1   3   13.24    4.79
  -6  -1   3    5.98    4.53
   6   1   3   13.75    4.22
  -6   1  -3   13.34    2.85
  -6  -1   3   10.32    3.18
   6  -1  -3    8.10    3.79
  -6   1   5    3.21    6.16
  -6   1   5    0.34    5.87
   6  -1  -5    0.47    4.93
  -6  -1   5    3.61    5.87
  -6  -1   5    0.46    6.41
  -6   1   7    3.03    6.37
  -6   1   7    0.29    6.64
   6  -1   7   12.87    7.58
  -6  -1   7    3.28    6.74
  -6  -1   7    0.86    5.99
  -6   1   9    1.86    7.04
  -6   1   9    0.66    6.73
  -6  -1   9   -1.18    6.98
  -6  -1   9    6.56    6.43
  -7  -1   0  503.19   24.80
   7   1   0  490.60   30.59
   7  -1   0  496.97   30.72
   7   1   0  508.94   24.78
  -7   1   0  494.85   24.67
   7  -1   0  495.06   24.72
   7  -1   0  491.34   30.53
   7   1   0  501.50   30.49
  -7   1   2  243.96   16.41
   7  -1   2  242.90   12.61
  -7   1   2  243.35   16.32
  -7   1   2  230.16   13.16
  -7  -1  -2  252.25   13.12
   7   1  -2  248.10   13.51
   7  -1   2  248.46   15.95
  -7  -1   2  240.50   13.34
  -7  -1   2  245.64   16.51
  -7   1  -2  245.60   13.12
   7   1   2  252.73   16.08
   7   1   2  252.47   12.76
   7  -1  -2  249.07   13.48
  -7  -1   2  236.82   16.35
   7  -1   4  193.72   13.68
  -7   1   4  167.32   14.79
  -7   1   4  220.11   14.52
  -7  -1   4  186.53   14.64
   7  -1  -4  220.11   12.17
  -7  -1   4  220.68   14.89
  -7  -1   4  201.45   10.77
  -7   1   6   73.54   10.80
  -7   1   6   77.41   11.04
  -7  -1   6   77.98   11.12
  -7  -1   6   84.75   10.96
  -7   1   8   12.30    7.30
  -7   1   8   23.22    6.80
  -7  -1   8   18.45    7.03
  -7  -1   8   13.86    7.49
   8  -1   1    4.92    4.32
  -8  -1  -1    7.74    3.81
  -8   1   1    8.02    3.98
   8  -1   1    3.53    3.81
   8   1  -1    2.50    4.01
  -8   1   1   11.28    4.64
   8   1   1    2.54    3.87
  -8  -1   1    6.65    4.92
   8   1   1    5.91    4.32
   8   1   1   10.26    4.64
  -8   1  -1   10.93    3.83
  -8  -1   1    7.95    4.58
  -8  -1   1   12.50    3.99
   8  -1  -1    7.39    4.03
  -8   1   3    7.30    5.40
  -8   1   3   -1.01    5.22
   8  -1   3   11.13    4.49
   8   1  -3   -6.81    4.54
  -8  -1  -3    5.23    3.69
  -8   1   3    3.60    3.84
   8   1   3   10.84    4.72
  -8   1  -3    6.92    3.66
  -8  -1   3    2.43    5.11
  -8  -1   3   -0.26    4.02
   8  -1  -3   -0.66    4.41
  -8  -1   3    1.13    5.53
  -8   1   5    3.61    6.81
   8  -1   5    6.29    5.19
  -8   1   5    6.30    6.94
   8   1  -5   -1.59    5.80
  -8  -1  -5    0.61    4.01
   8  -1  -5   -0.64    5.63
  -8  -1   5    0.63    6.57
   8   1   5   -1.62    5.77
  -8  -1   5    4.11    7.17
  -8   1  -5    7.71    3.81
   8  -1   7    3.22    8.23
  -8   1   7    1.35    7.20
  -8   1   7   -2.54    6.64
   8  -1   7   -0.78    4.64
   8   1  -7    8.84    5.75
   8   1   7    5.00    7.95
  -8  -1   7   -1.25    7.31
  -8  -1   7    3.95    6.53
   8   1   7    0.84    4.69
   8  -1  -7   -6.59    5.46
  -8   1   9    5.91    7.39
  -8   1   9   -0.23    8.20
  -8  -1   9    8.27    7.48
  -8  -1   9    2.15    7.57
   9  -1   0  282.20   18.70
   9   1   0  274.64   18.66
  -9   1   0  299.13   15.53
  -9  -1   0  289.21   15.47
   9   1   0  282.62   18.77
   9  -1   0  293.73   15.52
   9  -1   0  277.96   18.73
   9   1   0  297.33   15.59
  -9  -1  -2  213.27   12.40
  -9   1   2  220.57   15.23
  -9   1   2  207.93   15.37
   9  -1   2  216.17   11.98
  -9   1   2  213.56   12.47
   9   1  -2  216.29   12.77
   9  -1   2  207.11   14.69
  -9  -1   2  210.57   12.54
  -9   1  -2  212.14   12.36
   9   1   2  205.58   14.78
   9  -1  -2  209.32   12.80
   9   1   2  208.08   14.73
   9   1   2  214.65   12.05
  -9  -1   2  214.93   15.16
  -9  -1   2  205.08   15.10
   9   1  -4  136.91   10.92
  -9   1   4  124.76    9.18
  -9  -1  -4  118.59    9.32
  -9   1   4  131.41   12.78
  -9   1   4  134.25   12.28
  -9  -1   4  127.50    9.11
   9  -1  -4  124.48   10.70
  -9   1  -4  120.90    9.36
  -9  -1   4  130.70   12.69
  -9  -1   4  128.35   12.01
  -9   1   6   65.49    9.13
   9   1  -6   49.18    7.23
  -9   1   6   68.37    8.84
  -9  -1   6   63.80    8.63
  -9  -1   6   65.24    9.08
  -9   1   8   22.14    7.25
   9  -1   8    1.18    5.03
   9  -1   8    6.28    8.51
  -9   1   8   17.96    8.70
  -9  -1   8   18.30    7.69
  -9  -1   8   11.87    7.97
   9   1   8    5.87    5.28
  10   1  -1   -0.35    4.50
  10  -1   1    7.80    4.42
  10  -1   1    8.42    5.39
 -10  -1  -1    5.43    4.41
 -10   1   1   10.50    4.50
  10  -1   1    7.82    4.99
 -10  -1   1    8.36    4.58
  10   1   1    6.94    5.06
 -10   1  -1    6.57    4.39
  10   1   1    4.55    4.48
  10  -1  -1    0.80    4.48
 -10  -1   1    9.84    5.64
  10   1   1    3.67    5.00
 -10   1   3   -9.40    6.27
 -10   1   3   -8.04    4.75
  10  -1   3   -2.32    5.48
  10   1  -3  -16.44    5.18
 -10   1   3   -4.10    6.13
  10  -1   3    1.86    3.36
 -10  -1  -3   -0.46    4.54
 -10   1  -3    1.84    4.56
 -10  -1   3  -12.66    6.22
  10  -1  -3  -15.58    5.21
 -10  -1   3  -12.60    6.11
 -10  -1   3   -4.63    4.75
  10   1   3   -1.33    3.34
  10   1   3   -1.87    5.56
 -10   1   5    0.41    7.51
 -10  -1  -5    1.54    4.77
  10  -1   5   10.30    6.21
 -10   1   5    1.94    4.27
  10   1  -5   -3.24    6.43
 -10   1   5    0.60    7.62
  10  -1  -5    0.07    6.35
 -10  -1   5    2.87    7.36
  10   1   5    4.60    6.53
 -10  -1   5    3.83    7.69
 -10   1  -5    7.61    4.77
 -10   1   7   -0.02    7.47
  10  -1   7    4.51    9.07
  10  -1   7    1.39    5.64
  10   1  -7    4.51    6.19
 -10   1   7    3.39    7.82
  10  -1  -7   -0.90    6.05
 -10  -1   7   -1.88    7.46
  10   1   7   -2.37    5.90
 -10  -1   7    4.63    7.45
 -10   1   9   -0.44    8.21
  10  -1   9   -0.14    5.72
  10   1   9    3.95    5.75
 -10  -1   9   -5.52    9.27
 -10  -1   9    3.98    8.15
  10   1   9    1.26    5.49
  11  -1   0  424.71   28.27
 -11  -1   0  464.52   23.16
  11  -1   0  457.00   23.06
  11  -1   0  448.45   28.24
  11   1   0  468.05   22.99
  11   1   0  436.82   28.12
  11   1   0  439.83   28.20
 -11   1   0  453.42   23.16
 -11  -1  -2  134.91   10.27
 -11   1   2  129.48   10.43
 -11   1   2  131.12   12.25
  11  -1   2  137.47    9.89
  11  -1   2  133.32   11.49
  11   1  -2  135.56   10.85
 -11  -1   2  126.40   12.06
  11   1   2  126.69    9.99
 -11  -1   2  125.17   12.14
 -11   1  -2  132.09   10.23
  11   1   2  130.47   11.81
 -11  -1   2  131.76   10.61
  11   1   2  124.22   12.07
  11  -1  -2  133.45   10.64
  11   1  -4   59.49    7.24
 -11   1   4   74.94   11.26
 -11   1   4   74.56   11.37
  11  -1   4   45.31    7.52
 -11   1   4   60.96    6.19
 -11  -1  -4   46.41    6.09
  11   1   4   42.95    7.63
  11  -1  -4   60.08    7.18
 -11  -1   4   59.40    6.18
 -11   1  -4   48.17    6.09
 -11  -1   4   71.82    8.82
 -11  -1   4   72.42    8.78
  11   1  -6   35.25    7.31
 -11   1   6   58.83    8.93
 -11   1   6   60.49    8.76
 -11  -1   6   63.48    8.80
  11  -1  -6   30.88    7.13
 -11  -1   6   58.25    8.94
  11  -1   8   16.46    9.32
  11  -1   8    9.85    6.22
 -11  -1   8   19.86    8.86
  11   1   8    7.76    8.90
  11   1   8    8.86    6.23
  11   1   8    8.51    6.17
 -12  -1  -1   10.83    5.29
  12  -1   1   12.12    6.09
 -12   1   1    7.33    5.19
  12   1  -1    8.75    6.05
  12  -1   1   18.18    5.97
  12  -1   1   14.99    5.23
  12   1  -1    2.99    5.21
  12  -1  -1   10.74    5.90
 -12   1  -1    9.95    5.32
  12   1   1   16.80    6.03
 -12  -1   1   11.64    5.34
  12  -1  -1    7.69    5.14
  12   1   1   10.36    5.96
  12   1   1    6.63    5.21
 -12   1   3   -8.70    7.29
 -12  -1  -3   -6.61    5.71
 -12   1   3   -7.15    5.76
  12  -1   3    0.39    6.56
  12   1  -3  -11.14    6.27
 -12   1   3   -8.65    7.74
  12  -1   3    3.89    4.51
  12   1   3    1.64    4.48
 -12  -1   3   -4.38    7.45
  12   1   3   -3.51    6.78
 -12  -1   3   -6.58    7.22
 -12   1  -3    1.60    5.81
  12  -1  -3  -19.05    6.10
 -12  -1   3  -11.35    5.68
  12   1   3    3.78    6.81
 -12   1   5   -6.54    8.76
  12  -1   5    9.20    7.00
 -12   1   5    3.29    8.14
 -12   1   5    4.53    5.25
 -12  -1  -5    6.80    5.67
  12   1  -5   10.64    7.20
 -12  -1   5    8.52    8.14
  12   1   5    8.85    7.07
  12  -1  -5    5.51    6.93
 -12   1  -5   -2.53    5.56
 -12  -1   5    2.56    5.37
 -12  -1   5    1.11    8.34
  12   1   5    7.58    7.18
 -12   1   7    7.84    8.20
 -12   1   7    4.41    9.19
  12   1  -7   -4.58    6.91
  12  -1   7    1.67    6.53
  12  -1  -7   -4.07    6.64
 -12  -1   7   -0.98    8.61
 -12  -1   7    2.22    8.13
  12   1   7    3.95    6.61
  12   1   7    3.69    6.76
  12  -1   9   -0.82    6.59
 -12   1   9    9.77    9.05
  12  -1   9   -0.49    6.66
  12   1   9    1.66    6.87
  12   1   9   -3.14    6.51
 -12  -1   9   15.20    8.19
 -13  -1   0  227.69   14.47
  13  -1   0  227.75   14.41
  13   1   0  219.05   16.57
 -13   1   0  230.28   14.41
  13  -1   0  219.01   16.32
  13  -1   0  201.32   16.35
  13   1   0  223.30   14.36
 -13   1   2  105.43   11.16
 -13   1   2   97.42   10.63
  13  -1   2   82.67    9.95
  13  -1   2   90.70   11.06
 -13  -1  -2   79.57    7.76
  13  -1   2   82.91   12.27
  13   1  -2   91.95   11.15
  13   1   2   96.45   10.12
 -13  -1   2   86.54   12.71
 -13  -1   2   97.29   11.83
  13   1   2   77.02   11.05
  13  -1  -2   98.50   10.88
  13   1   2   79.48   11.58
 -13  -1   2  104.18   10.69
 -13   1  -2   88.24   10.56
  13  -1   4   56.39    8.66
  13   1  -4   59.45    7.95
 -13   1   4   63.89    7.03
 -13   1   4   83.26   10.13
 -13   1   4   81.35    9.95
 -13  -1  -4   49.37    7.11
  13   1   4   71.05    8.96
 -13  -1   4   81.34    9.78
  13  -1  -4   64.07    7.88
  13   1   4   54.39    8.65
 -13   1  -4   43.60    6.99
 -13  -1   4   77.26    9.73
 -13  -1   4   84.65   12.93
 -13   1   6   31.59    8.63
 -13   1   6   35.41    9.31
  13   1  -6   21.16    7.29
  13  -1   6    8.52    7.03
  13   1   6   18.57    7.41
 -13  -1   6   28.68    8.20
  13   1   6   12.24    7.07
 -13  -1   6   29.92    8.51
  13  -1  -6   16.34    7.05
  13  -1   8    5.88    9.76
 -13   1   8   24.13    8.24
  13  -1   8    1.67    6.84
  13  -1   8    2.66    7.33
  13   1   8    0.51    6.82
 -13  -1   8   27.23    8.18
  13   1   8   13.21    9.80
 -13  -1   8   16.60   10.15
  13   1   8    7.15    7.06
  14  -1   1   11.71    7.24
  14  -1   1   13.16    6.21
  14  -1   1   14.54    7.26
  14   1  -1    8.67    6.18
 -14  -1  -1   10.21    6.38
 -14   1   1   14.95    6.34
  14   1  -1   12.52    7.26
  14  -1  -1   18.20    7.43
  14  -1  -1   13.88    6.08
  14   1   1    7.90    7.15
 -14   1  -1   19.30    6.53
 -14  -1   1   12.75    6.44
  14   1   1   11.49    7.16
  14   1   1    5.38    6.23
 -14  -1  -3  -10.23    6.61
  14  -1   3   -2.41    5.24
  14  -1   3  -11.15    7.74
  14  -1   3   -5.38    7.49
 -14   1   3   -7.07    6.38
  14   1  -3  -18.35    6.85
 -14   1   3   -3.94    7.81
 -14  -1   3   -6.24    7.95
  14   1   3  -11.40    7.55
  14  -1  -3  -16.38    6.78
  14   1   3   -3.17    7.57
 -14   1  -3   -6.21    6.42
 -14  -1   3  -10.72    8.36
  14   1   3    0.97    5.58
 -14  -1   3   -6.85    6.35
 -14   1   5    0.78    8.36
  14  -1   5   -1.01    7.26
  14   1  -5   -9.41    7.20
 -14  -1  -5   -5.19    6.03
 -14   1   5   -4.50    5.82
 -14  -1   5    0.94    5.98
 -14   1  -5   -2.51    5.96
 -14  -1   5   -7.54    8.34
  14  -1  -5   -8.21    7.09
  14   1   5   -2.59    7.44
  14   1   5    4.83    7.41
 -14  -1   5   -1.67    8.27
  14   1  -7   -1.45    7.16
  14  -1   7   -1.81    7.91
  14  -1   7   -2.50    7.09
  14   1   7   -2.69    7.53
 -14  -1   7    5.45    9.87
  14  -1  -7  -11.21    7.07
  14   1   7    4.02    7.34
  15  -1   0  126.20   12.79
  15   1   0  133.94   13.41
  15   1   0  126.38   12.77
 -15   1   0  149.85   13.09
  15  -1   0  129.96   14.14
 -15  -1   0  149.78   13.08
  15  -1   2   33.97    6.88
 -15   1   2   36.28    6.83
  15  -1   2   39.08    8.40
  15  -1   2   31.38    8.45
 -15  -1  -2   36.13    7.18
  15   1  -2   30.20    7.03
  15  -1  -2   32.42    6.99
  15   1   2   30.31    8.09
  15   1   2   34.17    8.10
 -15  -1   2   42.49    6.93
 -15   1  -2   37.97    7.19
  15   1   2   33.37    7.01
 -15  -1  -4   32.90    7.18
  15  -1   4   35.83    8.38
  15   1  -4   46.60    7.87
  15  -1   4   49.13    8.96
 -15   1   4   43.27    6.98
 -15  -1   4   44.20    7.12
 -15  -1   4   57.49   10.00
 -15   1  -4   34.43    7.03
  15   1   4   45.64    8.71
  15   1   4   39.86    8.87
  15  -1  -4   49.67    7.79
  15   1  -6    4.29    7.48
 -15   1   6    2.72    5.44
  15  -1   6   18.33    8.55
  15  -1   6    5.27    7.39
  15   1   6   11.26    7.58
 -15  -1   6   25.96    9.95
 -15  -1   6    0.57    5.52
  15  -1  -6   12.85    7.44
  15   1   6   25.46    7.93
  15  -1   8    1.35    7.51
  15  -1   8   -3.81    8.05
  15  -1   8   11.84   10.58
  15   1   8   -2.20    7.70
  15   1   8   -2.74    7.79
  16  -1   1    6.74    8.10
  16   1  -1    2.21    6.65
  16  -1   1    4.22    6.78
 -16  -1  -1   14.32    7.22
  16  -1   1    5.86    7.98
 -16   1   1    9.70    6.71
 -16   1  -1   17.00    7.34
 -16  -1   1   12.94    7.04
  16   1   1    9.71    7.84
  16  -1  -1    6.93    6.75
  16   1   1    8.98    8.04
  16   1   1   11.14    6.93
  16  -1   3   14.75    8.31
 -16  -1  -3   12.11    7.30
  16  -1   3   19.75    5.96
 -16   1   3   15.43    6.98
  16   1  -3    6.04    7.37
  16  -1   3   13.08    8.49
  16  -1  -3   -0.88    7.31
 -16   1  -3   18.32    7.38
  16   1   3    3.62    8.34
  16   1   3   12.94    8.15
  16   1   3   26.07    6.46
 -16  -1   3   10.73    6.97
  16   1  -5  -13.58    7.51
  16  -1   5   -9.06    8.49
 -16   1   5   -0.80    6.52
 -16  -1  -5  -10.59    6.54
  16  -1   5   -1.78    7.74
  16   1   5   -4.04    7.87
 -16   1  -5  -11.88    6.43
 -16  -1   5   -9.97    6.46
  16  -1  -5  -13.31    7.33
  16   1   5  -13.22    8.16
  16   1  -7    0.49    7.68
  16  -1   7   -6.22    8.39
  16  -1   7   -4.88    7.47
  16   1   7  -10.17    7.96
  16   1   7   -2.13    7.87
  16  -1  -7   -1.49    7.54
  17  -1   0   46.05    9.49
 -17  -1   0   49.09    8.02
 -17   1   0   47.32    7.82
  17   1   0   44.47    7.63
  17   1   0   46.28    9.02
  17  -1   0   42.52    7.55
  17   1  -2    5.24    7.26
  17  -1   2   11.30    8.75
  17  -1   2   10.02    7.25
 -17   1   2   19.61    7.12
  17  -1   2   14.51    8.25
 -17  -1  -2   12.63    7.68
  17  -1  -2   14.81    7.05
  17   1   2    9.94    7.37
  17   1   2    8.75    8.19
 -17  -1   2   19.54    7.27
  17   1   2    8.92    8.39
 -17   1  -2   15.67    7.64
  17  -1   4   15.55    8.07
  17   1  -4   11.62    7.43
 -17  -1  -4    6.77    6.92
 -17   1   4    6.16    6.61
  17  -1   4   17.45    8.55
 -17   1  -4    6.49    6.95
 -17  -1   4   16.82    6.87
  17  -1  -4   12.96    7.29
  17   1   4   21.11    8.28
  17   1   4   12.51    7.96
  17  -1   6    1.39    7.68
  17   1  -6    8.19    7.89
  17  -1   6    8.70    8.88
 -17   1   6  -15.35    6.12
 -17  -1   6  -16.25    6.12
  17   1   6    7.46    8.09
  17   1   6    2.03    8.43
  17  -1  -6   10.12    7.73
  17  -1   8    3.17    8.74
  17  -1   8   -3.62    8.35
  17   1   8    6.57    8.29
  17   1   8   -0.15    8.73
 -18   1   1    5.77    7.14
  18   1  -1   -4.50    6.98
 -18  -1  -1    7.31    7.73
  18  -1   1    7.08    8.91
  18  -1   1    9.77    7.36
  18   1   1    1.30    7.33
 -18   1  -1    4.51    7.54
  18   1   1    2.04    8.77
 -18  -1   1    9.29    7.37
  18  -1  -1    3.08    7.03
  18  -1   3   14.05    6.19
  18   1  -3  -11.04    7.22
 -18  -1  -3    3.70    7.58
  18  -1   3   -2.07    8.43
 -18   1   3    6.56    6.92
  18  -1  -3   -7.37    6.96
 -18   1  -3    1.52    7.50
  18   1   3   20.39    6.65
 -18  -1   3   -1.81    6.93
  18   1   3   -1.32    8.22
  18  -1   5   -2.60    8.04
 -18   1   5   -6.10    6.96
  18   1  -5   -9.54    7.83
  18  -1   5   -8.67    9.18
 -18  -1  -5   -5.94    7.09
 -18  -1   5  -14.32    6.99
  18   1   5   -5.50    9.02
  18  -1  -5   -8.22    7.59
 -18   1  -5  -14.44    6.91
  18   1   5   -0.91    8.14
  18  -1   7   -2.78    8.40
  18  -1   7   -5.46    9.17
  18   1  -7   -4.09    8.31
  18   1   7  -13.56    8.97
  18  -1  -7   -7.38    7.98
  18   1   7    8.29    8.30
  19  -1   0   27.32    7.43
 -19   1   0   40.53    7.85
 -19  -1   0   37.53    7.90
  19   1   0   25.47    7.42
  19  -1   2    6.28    7.39
  19  -1   2   10.19    8.86
 -19  -1  -2   10.86    7.67
  19   1  -2    3.60    6.87
 -19   1   2   12.07    6.93
  19   1   2    9.92    7.43
  19   1   2   18.92    8.73
 -19  -1   2    4.74    7.16
  19  -1  -2    4.13    6.95
 -19   1  -2    5.40    7.53
  19   1  -4   -5.20    7.68
 -19  -1  -4    3.08    7.49
  19  -1   4   14.32    8.73
  19  -1   4   -9.17    5.02
 -19   1   4    3.42    7.19
  19   1   4   -9.03    5.17
  19   1   4    7.95    8.41
  19  -1  -4    4.43    7.50
 -19   1  -4   -1.77    7.37
 -19  -1   4   -0.83    7.34
  19   1  -6   15.20    8.30
  19  -1   6   16.73    8.64
 -19   1   6   -4.80    6.92
 -19  -1   6  -10.38    6.96
  19   1   6   17.98    8.50
  19  -1  -6   13.54    8.01
  20   1  -1    3.83    7.10
 -20   1   1    2.16    7.14
  20  -1   1    7.86    7.56
 -20  -1  -1   11.38    8.00
 -20   1  -1    7.33    7.65
 -20  -1   1    7.24    7.27
  20   1   1   11.02    7.35
  20  -1  -1    6.17    7.12
  20  -1   3   -1.78    6.57
 -20   1   3   -2.71    7.28
  20  -1   3   -0.99    9.04
 -20  -1  -3  -12.94    7.93
  20   1  -3  -10.40    7.19
  20   1   3   -4.30    7.02
  20  -1  -3   -5.76    7.33
 -20   1  -3   -8.06    7.83
 -20  -1   3    4.58    7.29
  20   1   3   -7.08    8.79
 -20  -1  -5   -2.03    7.46
  20   1  -5    9.72    8.09
 -20   1   5   -7.46    7.48
  20  -1   5    8.81    8.86
  20  -1  -5    0.70    8.01
  20   1   5    5.32    8.70
 -20  -1   5   -3.43    7.44
 -20   1  -5    0.28    7.33
  20  -1   7    5.46    9.26
  20   1   7    7.19    8.99
  21   1   0    6.56    7.35
 -21  -1   0    2.86    7.71
 -21   1   0    3.52    7.46
  21  -1   0    9.71    7.30
  21  -1   2   -5.65    7.79
 -21  -1  -2   -9.06    8.07
 -21   1   2   -3.17    7.17
  21   1  -2   -2.60    7.32
  21  -1  -2   -2.54    7.08
  21   1   2  -11.82    7.52
 -21  -1   2   -4.02    7.37
 -21   1  -2   -3.70    7.93
 -21  -1  -4  -13.20    7.84
  21  -1   4    3.49    9.13
  21   1  -4  -11.88    7.62
 -21   1   4   -9.07    7.36
  21  -1  -4   -1.22    7.70
 -21  -1   4  -13.66    7.58
 -21   1  -4   -6.12    7.58
  21   1   4    3.43    8.83
  21   1  -6    2.35    8.67
  21  -1   6   -3.49    9.11
  21  -1  -6    4.03    8.69
  21   1   6    7.40    9.20
 -22   1   1   16.24    7.78
  22  -1   1   16.66    8.01
 -22  -1  -1    9.11    8.36
  22   1  -1    9.81    7.37
 -22   1  -1   12.32    8.22
  22   1   1   17.35    7.95
  22  -1  -1   13.07    7.33
 -22  -1   1   13.62    7.77
  22  -1   3   -2.25    6.99
 -22   1   3   -0.32    7.67
 -22  -1  -3   -3.54    8.27
  22   1  -3    0.84    7.55
  22  -1  -3    2.86    7.44
  22   1   3   -2.36    7.31
 -22  -1   3    3.60    7.63
 -22   1  -3   -2.82    8.10
 -22  -1  -5  -16.76    8.03
 -22   1   5  -14.68    7.95
  22  -1   5   -7.36    9.49
  22   1  -5   -0.27    8.44
 -22  -1   5  -17.56    7.92
  22   1   5   -0.10    9.46
  22  -1  -5    1.94    8.48
 -22   1  -5  -18.78    7.79
 -23   1   0   -9.92    7.70
 -23  -1   0   -7.45    7.96
  23  -1   0   -8.91    7.55
  23   1   0  -11.84    7.64
 -23  -1  -2   -7.11    8.55
  23   1  -2   -7.52    7.44
 -23   1   2   -6.84    7.48
  23  -1   2  -17.96    8.21
 -23   1  -2  -21.92    8.08
  23   1   2  -15.56    8.19
  23  -1  -2   -7.76    7.48
 -23  -1   2   -6.40    7.60
  23   1  -4   -6.69    8.21
 -23  -1  -4  -23.22    8.22
 -23   1  -4  -24.14    8.17
  23  -1  -4  -11.08    8.04
 -23  -1   4  -23.33    8.16
 -24   1   1    0.69    7.81
 -24  -1  -1   -2.35    8.46
  24  -1   1    5.66    8.35
  24   1  -1    5.45    7.70
 -24  -1   1    2.09    8.15
  24   1   1    2.52    8.41
 -24   1  -1    8.26    8.36
  24  -1  -1   10.88    7.66
  24   1  -3    5.39    7.94
 -24  -1  -3   -7.78    8.73
 -24   1   3   -1.72    8.06
  24  -1   3  -10.60    7.55
  24   1   3   -8.86    7.49
 -24   1  -3   -4.23    8.55
 -24  -1   3    0.34    8.29
  24  -1  -3    6.01    7.99
 -25   1   0  -17.70    8.23
  25  -1   0  -18.20    8.19
 -25  -1   0  -26.24    8.40
  25   1   0  -17.53    7.81
 -25  -1  -2  -22.35    8.91
 -25   1   2  -16.73    8.23
  25   1  -2   -9.36    7.82
  25  -1   2  -16.62    8.62
  25   1   2  -18.82    8.74
  25  -1  -2   -7.06    7.76
 -25  -1   2  -21.88    8.08
  26   1  -1    3.99    8.27
 -26  -1  -1    2.86    9.21
 -26   1   1   -1.38    8.52
  26  -1   1   -9.52    9.06
 -26   1  -1   -4.25    8.90
  26  -1  -1    1.82    8.16
 -26  -1   1   -4.74    8.61
  26   1   1   -5.95    8.94
  27   1   0  -10.63    9.05
 -27   1   0  -21.84    8.81
 -27  -1   0  -17.95    9.27
  27  -1   0  -21.46    8.80
   0  -2   2  327.95   16.17
   1   2  -1   10.00    1.36
  -1   2   1   10.39    1.32
  -1   2   1   11.22    1.68
  -1   2   1   17.92    1.81
   1   2   1   13.95    1.48
  -1  -2   1   10.56    1.30
   1  -2  -1   17.49    1.77
  -1  -2   1   17.11    1.68
  -1  -2   1   10.88    1.60
   1  -2   3   13.45    4.49
   1   2   3    6.14    3.42
   1  -2   5    6.01    5.50
  -2   2   0  639.40   36.95
  -2  -2   0  630.65   29.49
   2  -2   0  639.71   37.06
   2  -2   0  656.74   36.97
   2   2   0  653.24   36.97
   2   2   0  551.12   29.49
  -2   2   0  607.52   29.53
  -2  -2   0  629.72   36.95
  -2  -2   0  633.64   36.97
  -2   2   0  614.72   36.94
   2  -2   0  612.34   29.48
   2   2   0  638.13   36.95
  -2   2   4  309.17   18.88
   2  -2   4  317.80   16.16
   2   2   4  303.99   15.71
  -2   2   6   72.81    7.41
   2  -2   6   72.78    7.81
   2   2   6   64.06    6.76
  -2   2   8   10.26    5.38
  -2   2   8    6.30    5.11
  -3   2   1   29.89    3.79
   3  -2   1   30.27    3.16
  -3  -2  -1   27.93    3.52
  -3   2   1   36.88    4.30
   3   2  -1   29.58    3.67
   3  -2   1   28.27    3.60
  -3  -2   1   30.54    3.67
   3   2   1   25.99    3.77
   3   2   1   29.20    3.27
  -3  -2   1   33.33    3.95
  -3   2  -1   26.75    2.21
  -3  -2   1   36.20    4.10
   3  -2  -1   36.90    3.63
  -3   2   3    3.88    3.87
   3   2  -3    2.31    2.86
  -3   2   3    9.24    3.31
  -3  -2   3   -3.59    3.89
  -3  -2   3   -2.09    3.35
   3  -2  -3    9.66    2.77
   3  -2   5    7.63    6.08
  -3   2   5    8.52    4.55
  -3   2   5    8.61    4.97
  -3  -2   5    2.19    5.26
   3   2   5    6.72    5.40
  -3  -2   5    7.39    4.16
  -3   2   7   -0.16    5.45
  -3   2   7   -2.80    5.37
  -3  -2   7    2.48    6.11
  -3  -2   7   -0.19    5.09
  -3   2   9    5.27    6.08
  -3   2   9    2.30    5.48
  -3  -2   9    8.94    5.45
  -3  -2   9   -4.80    6.18
   4   2   0  234.61   11.52
   4  -2   0  238.71   14.23
  -4   2   0  215.38   11.47
   4   2   0  223.39   14.18
   4   2   0  234.42   14.30
  -4  -2   0  232.41   14.24
   4  -2   0  228.40   11.43
  -4  -2   0  219.27   11.45
   4  -2   2  546.89   33.20
  -4   2   2  544.99   26.69
   4  -2   2  595.69   33.08
   4   2  -2  515.72   26.76
  -4   2   2  555.75   33.45
  -4  -2   2  551.77   33.44
   4  -2  -2  547.00   26.83
  -4  -2   2  567.13   33.62
  -4   2  -2  588.45   26.53
  -4  -2   2  535.60   26.70
  -4   2   4  230.85   14.49
  -4   2   4  231.91   14.90
   4   2  -4  210.63   11.94
   4  -2   4  227.68   12.77
   4  -2  -4  221.63   11.91
  -4  -2   4  211.68   14.80
  -4  -2   4  198.85   14.60
  -4   2   6   82.98    9.66
  -4   2   6   73.57    9.23
   4  -2   6   84.45    8.61
   4   2   6   84.79    7.97
  -4  -2   6   79.50    9.62
  -4  -2   6   59.96    9.83
  -4   2   8   15.69    5.80
  -4   2   8    7.94    6.18
  -4  -2   8   11.95    5.59
  -4  -2   8    7.39    6.65
  -4   2  10    5.60    6.81
  -4  -2  10    5.40    6.79
  -4  -2  10   13.79    6.54
   5  -2   1   57.33    5.96
  -5  -2  -1   40.54    3.87
  -5   2   1   50.58    6.28
   5  -2   1   45.84    4.67
  -5   2   1   45.44    5.17
  -5   2  -1   47.54    3.85
   5   2   1   39.86    4.85
  -5  -2   1   44.67    4.04
  -5  -2   1   46.81    7.04
   5  -2  -1   44.14    4.12
   5   2   1   47.25    4.80
  -5  -2   1   46.82    4.96
   5   2   1   43.93    3.85
   5  -2   3   16.13    3.72
  -5   2   3   12.14    4.16
  -5  -2  -3    4.32    2.73
  -5   2   3    5.45    2.70
  -5   2   3    2.71    4.37
   5  -2   3   12.46    3.01
  -5  -2   3    2.61    2.65
   5  -2  -3    5.95    3.32
  -5  -2   3    6.50    4.05
  -5   2  -3   12.35    2.28
  -5  -2   3    5.19    4.38
   5   2   3   -2.78    3.57
  -5   2   5   14.09    5.77
  -5   2   5    5.90    5.84
   5  -2   5    5.14    7.03
  -5  -2   5    4.97    6.16
   5  -2  -5    3.47    4.38
  -5  -2   5    5.91    5.46
  -5   2   7    3.21    6.19
   5  -2   7    8.56    7.30
  -5   2   7   -2.80    5.67
  -5  -2   7    0.13    6.63
  -5  -2   7   -2.16    5.64
   5   2   7    2.90    6.49
  -5   2   9    1.88    6.67
  -5  -2   9   10.64    6.20
  -5  -2   9   -0.49    6.84
  -6   2   0  113.39    8.57
   6   2   0   97.13    9.07
  -6  -2   0  105.06    9.74
   6   2   0  106.66    8.32
   6  -2   0  103.94    8.13
   6  -2   0  112.79    9.61
  -6  -2   0  108.06    8.24
   6   2   0  106.94    9.32
   6  -2   2  247.27   15.59
   6  -2   2  204.44   15.63
  -6   2   2  242.87   16.31
  -6   2   2  247.47   13.00
  -6  -2  -2  253.24   12.97
  -6   2   2  221.84   16.21
   6  -2   2  248.06   12.37
  -6  -2   2  254.23   13.13
   6   2   2  246.59   12.42
  -6  -2   2  251.04   16.23
   6  -2  -2  240.82   13.25
  -6  -2   2  243.19   16.14
   6   2   2  252.56   15.79
  -6   2  -2  238.46   12.89
  -6   2   4  201.21   14.93
  -6   2   4  218.57   14.76
   6  -2  -4  217.83   12.22
  -6  -2   4  211.49   14.96
  -6  -2   4  213.68   14.97
   6  -2   6   91.37    9.74
  -6   2   6   82.21   10.23
  -6   2   6   71.24   10.22
  -6  -2   6   78.84   10.83
  -6  -2   6   78.74   10.52
  -6   2   8   25.12    6.80
  -6   2   8    8.90    6.97
   6  -2   8    6.64    7.90
  -6  -2   8    6.95    7.20
  -6  -2   8   11.20    6.44
  -6   2  10    8.14    7.44
  -6  -2  10   10.39    7.35
  -6  -2  10    1.26    7.66
  -7  -2  -1   22.20    4.08
   7  -2   1   23.79    4.08
  -7   2   1   34.39    5.12
   7  -2   1   20.03    4.75
  -7   2   1   36.76    4.31
   7   2  -1   20.38    4.44
  -7  -2   1   32.32    5.41
   7   2   1   17.84    4.10
   7   2   1   15.92    4.72
  -7  -2   1   29.13    4.25
  -7  -2   1   30.25    4.88
   7   2   1   21.55    4.95
   7  -2  -1   28.98    4.36
  -7   2  -1   31.35    4.19
  -7  -2  -3   15.75    3.60
   7  -2   3   19.07    4.15
   7  -2   3   18.73    4.83
  -7   2   3   16.32    5.16
  -7   2   3   14.73    5.43
  -7   2   3   17.27    3.75
  -7   2  -3   18.21    3.36
  -7  -2   3   14.15    5.40
  -7  -2   3   17.01    5.11
   7   2   3    9.52    4.77
  -7  -2   3    9.60    3.74
   7  -2  -3   12.92    4.18
   7  -2   5   17.81    5.76
  -7   2   5   10.20    6.45
   7  -2   5    3.98    4.49
  -7   2   5    8.72    6.49
  -7  -2   5    5.49    6.17
   7  -2  -5    3.13    5.29
  -7  -2   5    6.96    6.94
   7  -2   7    7.29    8.05
  -7   2   7   -1.52    6.68
  -7   2   7   -1.36    6.79
   7   2   7    3.78    7.46
  -7  -2   7    3.16    6.22
  -7  -2   7   -5.22    7.05
  -7   2   9    2.01    7.25
  -7  -2   9    6.46    7.02
  -7  -2   9    2.18    7.38
   8  -2   0  183.57   13.48
   8   2   0  180.84   13.35
   8   2   0  176.74   13.91
   8   2   0  182.93   11.54
  -8   2   0  205.70   11.59
   8  -2   0  197.26   11.63
   8  -2   0  186.28   13.64
  -8  -2   0  195.08   11.60
  -8   2   2  260.81   17.00
   8  -2   2  242.90   13.09
  -8   2   2  249.80   13.76
  -8  -2  -2  248.91   13.61
   8  -2   2  249.24   16.44
  -8   2   2  254.66   17.02
   8   2  -2  258.04   14.14
   8   2   2  243.70   16.66
  -8  -2   2  250.19   16.86
  -8  -2   2  253.12   14.00
  -8   2  -2  252.90   13.64
   8  -2  -2  252.14   13.98
   8   2   2  251.06   13.32
  -8  -2   2  245.88   16.96
   8   2   2  255.81   16.64
   8  -2   4  125.99   10.16
  -8   2   4  133.99   11.47
  -8   2   4  119.21   12.23
   8  -2   4   94.64   10.40
  -8   2   4  130.06    8.29
  -8  -2   4  120.76    8.43
  -8  -2   4  124.93   11.77
   8  -2  -4  137.11    9.98
  -8  -2   4  122.90   11.62
  -8   2  -4  121.66    8.72
  -8   2   6   79.89    9.11
  -8   2   6   60.85    8.63
   8  -2  -6   43.79    6.77
  -8  -2   6   65.47    9.12
  -8  -2   6   62.59    8.39
   8  -2   8   12.74    8.37
  -8   2   8   16.34    8.21
  -8   2   8   19.88    7.18
  -8  -2   8   16.08    7.38
  -8  -2   8    9.89    7.86
   8   2   8    6.16    4.75
   9  -2   1   11.37    4.59
   9   2  -1    4.00    4.13
   9  -2   1    7.01    4.07
  -9  -2  -1    6.01    4.06
  -9   2   1    7.41    4.74
  -9   2   1   10.03    4.11
   9  -2  -1    5.12    4.10
   9   2   1    6.25    4.61
   9   2   1    6.12    4.00
  -9  -2   1    8.95    4.21
  -9  -2   1   11.13    4.66
   9   2   1    5.00    4.57
  -9  -2   1   13.62    5.04
  -9   2  -1    9.28    4.03
  -9  -2  -3    6.11    4.22
  -9   2   3   -0.73    5.54
  -9   2   3    4.69    4.28
   9  -2   3   12.04    5.00
  -9   2   3   -1.58    5.90
   9   2  -3  -12.02    5.01
  -9  -2   3   -1.79    5.70
   9   2   3   10.29    5.26
  -9  -2   3   -4.90    4.42
   9  -2  -3   -1.58    4.78
  -9  -2   3   -2.49    6.03
  -9   2  -3   10.43    4.12
   9   2   3   10.49    5.18
   9  -2   5   10.50    5.70
   9   2  -5   -6.48    6.45
  -9   2   5    6.96    7.41
  -9   2   5   -1.71    7.11
  -9  -2  -5    1.58    4.50
  -9  -2   5    1.86    7.52
  -9   2  -5    7.15    4.38
  -9  -2   5    1.87    7.14
   9   2   5   -2.43    6.54
   9  -2  -5    1.54    6.03
   9   2  -7    4.33    5.96
  -9   2   7   -1.33    8.11
   9  -2   7    5.34    8.57
   9  -2   7    1.78    5.21
  -9   2   7   -0.10    7.52
  -9  -2   7    2.02    7.65
   9   2   7   11.18    8.42
   9   2   7   -2.79    5.32
   9  -2  -7   -0.75    5.73
  -9  -2   7   -0.33    7.11
  -9   2   9    3.17    7.80
  -9  -2   9    1.83    8.11
  -9  -2   9    9.56    7.79
 -10  -2   0  287.74   15.88
  10   2   0  275.86   19.24
  10  -2   0  274.29   18.94
  10   2   0  302.75   15.82
  10  -2   0  295.76   19.15
  10  -2   0  292.37   15.71
 -10   2   0  288.94   15.96
  10   2   0  278.87   19.08
 -10  -2  -2  135.29    9.63
 -10   2   2  122.77    9.96
  10  -2   2  130.38    9.32
 -10   2   2  125.95   11.69
  10  -2   2  131.67   11.08
  10   2  -2  121.98    9.99
  10   2   2  129.54    9.32
  10   2   2  129.40   10.94
 -10  -2   2  129.56   10.13
 -10  -2   2  118.06   11.53
 -10  -2   2  124.62   10.93
  10   2   2  120.28   11.43
 -10   2  -2  130.14    9.74
  10  -2  -2  128.73   10.24
 -10   2   4   88.92    8.31
 -10   2   4   96.42   11.98
 -10  -2  -4   74.46    8.75
 -10   2   4   88.58   12.55
  10  -2   4   63.18    9.89
  10   2  -4   89.32   10.41
 -10  -2   4   88.07   11.91
 -10   2  -4   68.42    8.55
 -10  -2   4   82.63    8.64
 -10  -2   4   88.25   11.45
  10   2   4   73.04    9.45
  10  -2  -4   73.29    7.39
 -10   2   6   83.02   12.05
 -10   2   6   82.75   10.30
 -10  -2   6   79.31   12.10
 -10  -2   6   75.43   11.58
  10  -2   8    5.20    9.03
 -10   2   8   19.39    7.44
  10  -2   8    0.74    5.71
  10   2   8    5.17    5.92
 -10  -2   8    6.64    8.22
 -10  -2   8   22.50    7.45
  10   2   8   -1.54    5.81
  11  -2   1   -0.13    4.61
  11  -2   1   -0.32    5.23
 -11  -2  -1   -5.38    4.71
  11   2  -1   -5.90    5.26
  11  -2   1    0.48    5.65
 -11   2   1   -2.69    4.65
  11   2  -1  -10.03    4.81
  11   2   1   -6.41    5.25
  11   2   1   -2.60    4.63
 -11  -2   1   -5.97    5.84
  11  -2  -1   -0.48    5.37
  11   2   1   -0.78    5.28
  11  -2  -1   -3.80    4.62
 -11   2  -1    4.24    4.76
 -11  -2   1   -6.25    4.80
 -11  -2  -3    0.41    5.24
  11   2  -3  -17.33    5.77
 -11   2   3   -5.52    5.24
  11  -2   3    7.10    4.06
  11  -2   3    6.85    6.11
 -11   2   3   -7.26    6.55
 -11  -2   3  -15.61    6.76
 -11  -2   3  -15.75    5.27
  11  -2  -3   -5.23    5.75
  11   2   3    4.19    6.21
  11   2   3    2.40    4.14
  11   2   3   -6.46    6.22
 -11  -2   3  -11.03    6.78
 -11   2  -3    3.20    5.12
  11   2  -5   -1.21    6.84
 -11   2   5    8.59    8.04
  11  -2   5    7.83    6.61
 -11   2   5   10.39    8.55
 -11   2   5   10.09    4.87
 -11  -2  -5    0.51    5.26
  11  -2  -5    5.37    6.64
 -11  -2   5    6.17    4.94
  11   2   5    1.70    6.99
 -11  -2   5    4.93    8.10
 -11   2  -5    2.82    5.25
  11   2   5    8.13    6.72
 -11  -2   5   14.22    8.05
  11  -2   7   15.53    9.44
 -11   2   7    3.16    7.96
  11   2  -7    2.24    6.55
  11  -2   7    6.94    6.24
 -11  -2   7    6.32    7.81
  11  -2  -7   -6.22    6.32
 -11  -2   7    0.04    7.88
  11   2   7    4.32    6.49
  11   2   7    3.90    6.28
 -11   2   9    1.21    8.76
  11  -2   9   -0.17    6.31
 -11  -2   9   11.11    8.36
  11   2   9   -2.03    5.89
  11   2   9    5.90    6.34
 -11  -2   9    0.94    9.06
  12   2   0  179.21   13.94
  12   2   0  159.85   14.14
  12   2   0  166.92   12.04
  12  -2   0  155.00   14.25
 -12   2   0  179.42   12.34
  12  -2   0  177.18   11.85
  12  -2   0  175.50   14.00
 -12  -2   0  170.73   12.36
  12   2  -2   83.80   10.64
 -12   2   2   91.32   10.09
  12  -2   2   88.54   10.42
 -12   2   2   96.10   11.60
  12  -2   2   90.95    9.56
 -12  -2  -2   93.97   10.24
  12  -2  -2   98.86   10.30
 -12   2  -2   90.58    9.93
 -12  -2   2  100.68   10.54
 -12  -2   2   92.27   10.71
 -12  -2   2   90.43   10.52
  12   2   2   87.66   10.59
  12   2   2   94.44    9.65
  12   2   2   94.33   11.14
  12  -2   4   53.57    8.15
  12   2  -4   60.00    7.68
 -12   2   4   63.10    6.70
 -12  -2  -4   50.84    6.64
 -12   2   4   79.87    9.29
  12   2   4   45.97    8.32
 -12   2  -4   50.47    6.56
 -12  -2   4   80.49    9.42
  12  -2  -4   61.60    7.56
 -12  -2   4   68.41    6.89
  12   2   4   68.68    8.35
 -12  -2   4   78.03   11.86
  12   2  -6   23.40    7.19
 -12   2   6   41.12    8.32
  12  -2   6   15.50    6.86
  12   2   6   31.35    7.11
 -12  -2   6   44.10    8.61
 -12  -2   6   40.27    8.33
  12  -2  -6   24.33    6.95
  12   2   6   20.77    7.02
  12  -2   8    2.86    6.41
  12  -2   8   15.09    9.58
 -12   2   8   26.17    8.11
  12   2   8    4.23    6.70
  12   2   8   15.83    9.26
  12   2   8    5.74    6.42
 -12  -2   8   32.65    8.04
 -12  -2   8   22.72    8.53
  13  -2   1    8.69    6.69
  13   2  -1    1.51    6.57
 -13  -2  -1    2.89    5.95
  13  -2   1   10.23    6.71
 -13   2   1    8.42    5.62
  13  -2   1    6.29    5.65
  13   2  -1   -3.29    5.66
  13   2   1    4.15    5.83
 -13   2  -1   10.01    5.88
  13  -2  -1    3.20    5.58
  13   2   1    6.76    6.59
 -13  -2   1    4.79    5.94
  13  -2  -1    2.22    6.48
  13   2   1    9.09    6.48
 -13   2   3   -0.15    6.02
  13   2  -3  -18.62    6.73
  13  -2   3   -1.12    7.11
  13  -2   3    7.56    4.92
 -13   2   3    6.10    7.81
 -13  -2  -3   -8.87    6.26
  13   2   3   -6.35    5.30
 -13   2  -3    0.37    6.23
  13  -2  -3   -9.83    6.49
 -13  -2   3   -2.02    7.85
  13   2   3   -4.51    7.35
 -13  -2   3    0.08    7.53
  13   2   3    9.50    7.15
 -13  -2   3   -7.70    6.14
  13   2  -5   -7.18    7.24
  13  -2   5    4.45    7.14
 -13   2   5   -9.60    5.52
 -13   2   5    5.28    8.27
 -13  -2  -5    2.29    5.97
  13  -2  -5   -2.21    6.93
 -13  -2   5   -1.04    8.32
  13   2   5    3.72    7.37
 -13  -2   5    0.53    8.15
 -13   2  -5   -4.45    5.71
 -13  -2   5   -2.05    5.71
  13   2   5   -7.87    7.40
  13   2  -7   -0.83    7.18
 -13   2   7    3.32    8.68
  13  -2   7    0.05    6.88
 -13  -2   7    4.60    8.92
  13   2   7    4.85    7.04
  13   2   7   -2.46    6.91
 -13  -2   7    6.97    8.31
  13  -2  -7   -2.68    6.83
  13  -2   9    2.54    7.28
  13  -2   9    0.02    7.36
  13   2   9    6.16    7.42
  13   2   9   -4.29    6.95
 -13  -2   9    4.18   10.77
  14  -2   0   81.05    7.56
 -14   2   0   83.76    7.82
  14   2   0   82.30    9.08
  14  -2   0   76.13   11.28
 -14  -2   0   80.04    7.73
  14   2   0   76.60    7.62
 -14   2   2   51.86    8.23
  14  -2   2   48.72    8.36
  14   2  -2   40.17    7.07
  14  -2   2   49.10    8.60
  14  -2   2   51.55    6.95
 -14  -2  -2   43.89    7.21
 -14   2   2   47.19    6.78
 -14   2  -2   47.81    7.12
  14   2   2   41.63    6.80
  14   2   2   41.11    8.25
 -14  -2   2   55.83    8.98
  14  -2  -2   47.46    7.02
 -14  -2   2   58.76    8.24
  14   2   2   44.36    8.17
 -14  -2   2   52.94    7.08
  14   2  -4   63.28    8.34
 -14  -2  -4   51.42    7.53
  14  -2   4   59.14    8.94
 -14   2   4   66.22    7.30
 -14   2   4   95.47   13.27
 -14  -2   4   97.32   12.85
  14  -2  -4   67.95    8.17
  14   2   4   62.56    9.26
  14   2   4   69.66    9.11
 -14   2  -4   49.32    7.39
 -14  -2   4   82.73   10.15
 -14  -2   4   85.62   10.42
  14  -2   6   16.22    7.31
  14   2  -6   24.55    7.63
 -14   2   6   38.92    8.97
  14   2   6   25.35    7.33
  14   2   6   25.56    7.69
  14  -2  -6   20.71    7.27
 -14  -2   6   36.82    8.61
 -14  -2   6   35.24    8.82
  14  -2   8    7.71   10.32
  14  -2   8    6.97    7.85
  14  -2   8   -1.14    7.18
  14   2   8    8.15    7.53
  14   2   8    3.92    7.29
 -14  -2   8   21.17   10.49
 -15   2   1    0.43    6.50
  15  -2   1   -2.35    6.55
  15   2  -1   -0.52    7.55
  15  -2   1   -5.17    7.68
  15  -2   1    0.83    7.94
  15   2  -1  -12.49    6.44
 -15  -2  -1    1.57    6.81
  15   2   1   -3.31    6.55
  15  -2  -1    0.58    6.42
  15   2   1   -8.91    7.29
 -15  -2   1    1.83    6.71
 -15   2  -1    4.13    6.75
  15   2   1   -8.15    7.48
  15  -2  -1   -2.23    7.37
  15  -2   3   15.68    8.06
 -15  -2  -3   -3.76    7.06
 -15   2   3    7.64    6.72
  15   2  -3   -3.40    7.23
  15  -2   3   20.98    5.84
  15  -2   3    8.54    8.28
  15   2   3    2.84    8.11
 -15   2  -3    6.91    6.92
  15   2   3   12.76    6.12
  15   2   3    0.22    7.70
  15  -2  -3    7.32    6.97
 -15  -2   3    7.62    8.85
 -15  -2   3    2.48    6.85
 -15   2   5   -5.45    6.04
  15   2  -5  -10.64    7.51
  15  -2   5    3.33    7.43
 -15  -2  -5   -8.92    6.26
  15   2   5   -0.83    7.77
  15  -2  -5   -3.35    7.16
 -15  -2   5    0.36    6.22
 -15  -2   5   -4.14    8.48
  15   2   5   -3.98    7.31
 -15   2  -5  -11.06    6.15
  15   2  -7   -3.34    7.48
  15  -2   7    2.09    8.45
  15  -2   7    1.33    7.33
  15   2   7   -1.08    7.62
 -15  -2   7    9.11   10.43
  15  -2  -7   -8.30    7.23
  15   2   7   -0.17    7.72
  16  -2   0   40.22    8.95
 -16  -2   0   42.67    7.75
  16  -2   0   48.64    7.38
 -16   2   0   48.48    7.58
  16   2   0   40.39    8.70
  16   2   0   38.42    7.21
  16   2  -2   10.17    7.05
 -16  -2  -2   12.72    7.31
  16  -2   2   18.71    7.00
  16  -2   2   11.34    8.17
  16  -2   2   12.76    8.30
 -16   2   2   14.34    6.75
  16   2   2   10.71    6.90
 -16   2  -2   14.53    7.36
  16   2   2   14.11    7.84
  16   2   2   11.15    8.36
  16  -2  -2    7.07    6.98
 -16  -2   2   13.51    6.98
  16  -2   4   54.77    9.14
 -16  -2  -4   36.47    7.54
  16   2  -4   47.00    7.99
 -16   2   4   49.49    7.15
  16  -2   4   43.06    8.56
  16  -2  -4   44.62    7.72
  16   2   4   53.98    8.89
 -16  -2   4   70.17   10.16
  16   2   4   51.67    8.72
 -16   2  -4   34.21    7.31
 -16  -2   4   50.90    7.51
  16   2  -6   10.78    7.80
 -16   2   6   -0.25    5.72
  16  -2   6   13.26    7.69
  16  -2   6   12.97    9.18
  16   2   6   15.30    7.95
 -16  -2   6   -8.13    5.91
  16   2   6    9.71    8.18
 -16  -2   6   30.72   10.32
  16  -2  -6   12.18    7.53
  16  -2   8    8.03   10.99
  16  -2   8    5.28    8.59
  16  -2   8   -5.97    8.10
  16   2  -8    4.99    8.18
  16  -2  -8  -10.37    7.73
  16   2   8   -0.05    8.13
  16   2   8    8.02    8.28
  17  -2   1   10.89    8.75
  17  -2   1    6.91    7.28
 -17  -2  -1    1.79    7.48
  17   2  -1   -1.68    6.95
 -17   2   1   14.43    7.10
  17   2   1    1.51    8.46
 -17   2  -1   13.81    7.47
  17   2   1    5.34    7.28
  17  -2  -1    0.82    6.92
 -17  -2   1   10.55    7.27
  17  -2   3   20.75    8.69
 -17  -2  -3    5.09    7.54
 -17   2   3   24.45    7.11
  17  -2   3   31.31    6.29
  17  -2   3   13.15    8.82
  17   2  -3    5.77    7.59
 -17   2  -3   25.44    7.58
  17   2   3   11.44    8.44
  17  -2  -3   11.20    7.30
 -17  -2   3   16.20    7.13
  17   2   3   28.48    6.72
  17   2   3   15.56    8.68
  17  -2   5   -4.58    9.18
  17   2  -5   -8.76    7.71
 -17   2   5   -6.27    6.74
  17  -2   5   -8.67    7.88
 -17  -2  -5  -12.55    6.85
 -17  -2   5  -18.35    6.73
 -17  -2   5    7.30    9.79
  17   2   5   -4.82    8.03
 -17   2  -5  -10.13    6.72
  17  -2  -5   -8.23    7.28
  17   2   5  -11.07    8.45
  17  -2   7    3.76    8.97
  17   2  -7    2.63    8.09
  17  -2   7   -0.39    8.01
  17   2   7   -4.84    8.44
  17  -2  -7   -5.95    7.69
  17   2   7   -0.30    8.14
 -18  -2   0   38.04    7.97
  18  -2   0   15.63    7.27
 -18   2   0   22.91    7.50
  18   2   0   16.82    7.41
 -18  -2  -2   19.60    7.72
  18   2  -2   12.66    7.15
  18  -2   2   23.39    7.46
 -18   2   2   15.48    7.03
  18  -2   2   16.09    8.89
 -18  -2   2   16.56    7.08
  18  -2  -2    3.75    7.06
 -18   2  -2   15.93    7.58
  18   2   2   14.09    7.46
  18   2   2   18.29    8.61
  18  -2   4    9.63    8.33
 -18  -2  -4    3.40    7.18
  18   2  -4   11.78    7.63
 -18   2   4    2.48    6.71
  18  -2   4   14.12    8.72
  18  -2   4    0.58    4.82
  18  -2  -4    5.44    7.31
 -18  -2   4    8.52    7.30
  18   2   4   -4.89    4.74
  18   2   4   17.37    8.36
  18   2   4   10.01    8.26
 -18   2  -4   -3.68    7.10
 -18   2   6   -9.43    6.47
  18   2  -6    6.09    8.12
  18  -2   6    1.36    8.27
  18  -2   6   15.18    9.48
  18   2   6    7.09    8.21
  18   2   6    3.00    9.01
 -18  -2   6  -16.98    6.63
  18  -2  -6    7.14    7.75
  19   2  -1    4.48    6.87
 -19   2   1    8.00    7.04
 -19  -2  -1   10.86    7.74
  19  -2   1    9.23    7.44
 -19   2  -1   11.34    7.59
 -19  -2   1    5.25    7.38
  19   2   1    6.19    7.30
  19  -2  -1   19.29    7.03
 -19   2   3    2.82    7.03
  19   2  -3   -2.07    7.37
  19  -2   3   11.14    6.45
 -19  -2  -3  -12.24    7.80
  19  -2   3   -0.42    8.88
  19  -2  -3    1.96    7.25
  19   2   3  -11.62    8.53
 -19   2  -3   -1.32    7.54
  19   2   3    8.01    6.97
 -19  -2   3   -3.16    7.08
 -19  -2  -5  -13.92    7.28
 -19   2   5   -4.56    7.19
  19   2  -5   -4.80    8.11
  19  -2   5    0.30    8.49
  19   2   5   -4.41    8.38
  19  -2  -5   -2.48    7.72
 -19  -2   5  -15.41    7.20
 -19   2  -5   -2.93    7.08
  19  -2   7   -1.10    9.69
  19  -2   7   -6.71    8.91
  19   2  -7   -2.77    8.46
  19  -2  -7   -8.20    8.30
  19   2   7    2.51    8.60
  19   2   7   -9.80    9.35
  20  -2   0   14.34    7.16
  20   2   0   12.49    7.17
 -20   2   0   12.43    7.52
 -20  -2   0   17.52    7.73
  20  -2   2   -9.54    7.54
 -20   2   2   -5.57    7.04
  20   2  -2   -5.30    6.95
 -20  -2  -2  -16.55    7.78
  20   2   2   -8.65    7.60
 -20   2  -2   -3.69    7.69
 -20  -2   2   -7.97    7.37
  20  -2  -2   -8.30    6.92
  20   2  -4   -7.87    7.78
 -20  -2  -4   -7.51    7.72
 -20   2   4   -6.31    7.09
  20  -2   4    4.61    9.00
  20   2   4    5.69    8.58
 -20   2  -4   -5.61    7.44
  20  -2  -4   -4.02    7.61
 -20  -2   4   -7.44    7.53
  20   2  -6    3.28    8.59
 -20   2   6  -11.18    7.19
  20  -2   6    9.75    8.89
  20  -2  -6    6.43    8.49
 -20  -2   6  -22.49    7.35
  20   2   6    8.08    8.82
  21   2  -1   13.41    7.33
  21  -2   1   16.96    7.74
 -21   2   1    9.13    7.31
 -21  -2  -1   15.71    8.22
 -21   2  -1   15.92    7.86
 -21  -2   1    9.73    7.67
  21  -2  -1    6.81    7.18
  21   2   1   18.87    7.71
 -21   2   3    6.50    7.37
 -21  -2  -3   -0.50    8.28
  21   2  -3   -0.67    7.45
  21  -2   3    2.91    6.94
 -21  -2   3   10.82    7.56
  21   2   3    1.29    7.35
  21  -2  -3    0.98    7.31
 -21   2  -3    0.59    7.87
  21   2  -5   -1.95    8.32
 -21   2   5  -14.16    7.59
  21  -2   5   -2.71    9.07
 -21  -2  -5  -18.83    7.74
  21  -2  -5   -2.07    8.17
 -21   2  -5   -9.99    7.53
 -21  -2   5   -9.14    7.72
  21   2   5   -5.20    8.89
  22   2   0   -5.49    7.49
 -22  -2   0   -2.82    7.96
 -22   2   0    4.08    7.70
  22  -2   0   -3.56    7.45
 -22  -2  -2   -5.30    8.46
 -22   2   2   -1.46    7.35
  22   2  -2   -5.52    7.46
  22  -2   2   -1.84    8.15
 -22   2  -2   -9.27    7.96
  22   2   2  -17.05    8.01
 -22  -2   2  -11.91    7.58
  22  -2  -2   -8.04    7.13
 -22   2   4  -20.07    7.52
 -22  -2  -4  -15.27    8.07
  22   2  -4   -5.01    7.98
 -22  -2   4  -13.58    8.03
  22  -2  -4  -11.19    7.66
 -22   2  -4  -12.23    7.80
  22  -2   6    6.13    9.94
  22   2   6    4.64    9.56
  23   2  -1    8.11    7.67
  23  -2   1    2.07    8.13
 -23   2   1    1.87    7.67
 -23  -2  -1    0.24    8.54
  23   2   1    8.20    8.05
 -23   2  -1   17.40    8.17
  23  -2  -1    5.08    7.33
 -23  -2   1    7.89    8.08
 -23   2   3   -0.61    7.69
  23  -2   3   -1.50    7.44
  23   2  -3    8.19    7.89
 -23  -2  -3   -9.68    8.51
 -23  -2   3   -5.49    7.88
  23   2   3   -4.08    7.70
  23  -2  -3    8.32    7.65
 -23   2  -3   -3.25    8.14
  23   2  -5    2.68    8.83
 -23  -2  -5  -22.54    8.39
 -23   2   5  -19.45    8.38
 -23  -2   5  -24.74    8.35
  23  -2  -5    2.40    8.65
 -23   2  -5  -14.83    7.98
  24  -2   0  -14.49    7.85
  24   2   0  -11.44    7.72
 -24  -2   0   -6.67    8.31
 -24   2   0  -15.96    7.78
 -24  -2  -2  -15.79    8.85
 -24   2   2  -13.39    7.80
  24  -2   2  -20.95    8.30
  24   2  -2  -11.32    7.64
  24   2   2  -26.05    8.35
 -24   2  -2  -12.96    8.17
  24  -2  -2  -13.40    7.36
 -24  -2   2  -21.06    7.89
 -24  -2  -4  -21.29    8.75
 -24   2   4  -16.11    8.21
  24   2  -4   -9.50    8.50
  24  -2  -4   -6.30    8.24
 -24  -2   4  -21.15    8.53
 -24   2  -4  -24.16    8.38
  25   2  -1    0.38    7.90
 -25   2   1   12.37    8.14
  25  -2   1    7.61    8.85
 -25  -2  -1   -2.17    8.89
  25   2   1    7.92    8.87
 -25  -2   1    0.73    8.31
  25  -2  -1   -0.37    7.91
 -25   2  -1    6.64    8.64
  25  -2   3   -9.45    8.07
 -25  -2  -3   -1.90    9.31
  25   2  -3    0.40    8.17
 -25   2   3   -4.99    8.34
  25  -2  -3    8.95    8.04
  25   2   3  -13.31    8.01
 -25  -2   3    0.41    8.73
 -25   2  -3   -2.75    8.77
 -26  -2   0  -14.79    8.80
  26  -2   0  -12.47    8.40
 -26   2   0  -14.93    8.50
  26   2   0  -15.15    8.33
  26  -2   2  -21.84    8.65
 -26   2   2  -24.77    8.48
 -26  -2  -2  -18.20    9.44
  26   2  -2  -12.46    8.22
  26   2   2  -27.96    9.19
  26  -2  -2   -7.83    7.90
 -26  -2   2  -19.11    8.66
 -26   2  -2  -24.42    8.99
  27   2  -1    0.55    8.60
  27  -2  -1   -3.52    8.78
   0   3  -1    4.61    1.34
   0  -3   1    4.49    1.09
   0  -3   1    4.72    1.38
   0   3   1    4.31    1.35
   0  -3   1    8.90    1.91
   0  -3   1    7.98    1.39
   0   3   1    6.37    1.04
   0  -3  -1    5.73    1.07
   0   3   1    6.77    1.12
   0   3   1    3.94    1.47
   0  -3   1    6.95    0.94
   0  -3   3    3.94    4.29
  -1  -3   0  964.23   56.14
  -1   3   0  979.92   56.16
  -1  -3   0  958.00   56.09
   1   3   0  921.22   44.84
  -1  -3   0  953.57   44.86
   1  -3   0 1000.00   56.10
   1  -3   0  893.04   44.66
   1   3   0  964.05   56.14
   1  -3   0  976.45   56.26
   1  -3   0  874.83   44.76
  -1   3   0  917.26   44.83
  -1   3   0  945.15   56.22
   1   3   0  990.28   56.19
  -1   3   2  356.86   21.08
   1  -3   2  351.41   17.54
  -1   3   2  347.50   21.19
  -1  -3   2  347.20   21.19
  -1  -3   2  357.19   21.05
   1  -3  -2  350.31   16.93
   1  -3   4  140.26    9.42
  -2  -3  -1   63.10    3.69
  -2   3   1   40.42    4.76
  -2   3   1   56.52    3.97
   2  -3   1   45.69    4.32
   2  -3   1   57.18    4.24
   2  -3   1   57.21    3.51
   2   3  -1   58.26    4.09
   2   3   1   55.75    4.29
  -2  -3   1   49.06    4.58
  -2   3  -1   51.92    3.59
  -2  -3   1   54.95    4.46
   2   3   1   57.08    3.54
   2  -3  -1   58.18    3.76
   2   3   1   51.01    4.30
  -2  -3   1   50.25    3.74
  -2   3   3   21.82    3.66
   2  -3   3   14.88    5.00
   2   3  -3   10.35    2.86
  -2   3   3   17.56    3.01
   2  -3  -3   11.24    2.45
  -2  -3   3   13.74    3.62
  -2  -3   3   14.96    3.06
  -2   3   5    9.85    3.90
   2  -3   5   15.77    6.23
  -2  -3   5    5.01    4.21
  -2   3   7    0.51    4.83
  -2  -3   7   -0.68    4.43
  -2  -3   7   -2.47    5.38
  -2  -3   9    3.20    5.97
   3   3   0  327.73   19.26
   3  -3   0  315.34   15.42
   3   3   0  322.00   19.33
   3  -3   0  324.83   19.29
  -3  -3   0  310.54   19.26
  -3   3   0  328.79   19.27
  -3  -3   0  323.74   15.43
  -3   3   0  310.36   15.47
  -3   3   2  301.63   18.24
  -3  -3  -2  317.24   14.32
  -3   3   2  248.11   18.53
   3   3  -2  289.81   14.93
  -3   3   2  301.55   14.59
   3  -3   2  288.76   17.58
  -3  -3   2  291.78   14.50
  -3  -3   2  295.28   18.16
  -3   3  -2  303.46   14.24
  -3  -3   2  260.17   18.38
   3  -3  -2  294.71   14.68
   3   3  -4  141.84    8.95
  -3   3   4  156.11   10.98
  -3   3   4  166.62   10.62
   3  -3   4  172.48   10.21
  -3  -3   4  134.12   11.00
  -3  -3   4  130.80   10.64
   3  -3  -4  158.97    8.75
  -3   3   6   63.68    8.38
  -3   3   6   62.80    8.80
   3  -3   6   64.73    8.34
   3   3   6   60.49    6.71
  -3  -3   6   67.14    7.69
  -3  -3   6   66.86    6.60
  -3   3   8   17.60    5.94
  -3   3   8    2.25    5.81
  -3  -3   8   13.47    5.32
  -3  -3   8    3.72    6.50
  -3   3  10   11.25    6.50
  -3  -3  10    9.27    6.15
  -3  -3  10    3.84    6.61
  -4  -3  -1   41.90    5.16
   4   3  -1   32.74    3.49
   4  -3   1   49.52    5.32
  -4   3   1   34.93    3.47
  -4   3  -1   46.94    4.99
  -4  -3   1   29.08    4.28
   4  -3  -1   35.17    3.40
  -4  -3   1   30.57    4.04
   4   3   1   49.93    5.59
   4   3   1   50.69    5.63
  -4  -3   1   30.25    3.34
   4   3   1   48.98    4.99
   4   3  -3    2.05    3.25
  -4   3   3    0.12    4.24
  -4   3   3    7.61    3.76
   4  -3  -3    4.93    3.03
  -4  -3   3    1.89    3.58
  -4  -3   3   -7.37    4.37
   4   3  -5   13.41    4.23
  -4   3   5   20.13    5.26
   4  -3   5   37.72    7.44
  -4   3   5   19.81    5.87
   4  -3  -5   11.12    4.03
  -4  -3   5   14.22    6.35
  -4  -3   5    9.32    4.97
  -4   3   7   -1.59    6.01
  -4   3   7    1.36    5.91
   4  -3   7    3.34    7.23
  -4  -3   7    0.18    5.26
  -4  -3   7   -1.25    6.66
  -4   3   9   -3.28    5.89
  -4  -3   9   -0.01    6.69
  -4  -3   9    6.74    5.92
   5   3   0   58.72    6.39
   5   3   0   65.89    7.42
   5  -3   0   69.35    6.35
  -5  -3   0   59.00    6.11
   5   3   0   58.78    6.62
  -5  -3   0   60.23    7.24
   5  -3   0   62.87    6.92
  -5   3   0   63.89    6.29
  -5   3   2  258.54   14.11
   5  -3   2  274.39   17.26
   5   3  -2  262.45   14.28
  -5  -3  -2  311.53   14.29
   5  -3   2  282.56   17.15
  -5  -3   2  258.84   17.84
  -5  -3   2  252.97   17.61
   5   3   2  287.42   17.28
   5  -3  -2  242.30   14.43
  -5   3  -2  283.79   14.01
  -5  -3   2  255.64   14.32
   5   3   2  283.71   17.23
   5   3  -4  207.09   12.59
  -5   3   4  252.85   15.77
  -5   3   4  224.17   15.09
  -5  -3   4  227.26   15.32
  -5  -3   4  231.30   15.59
   5  -3  -4  217.38   12.45
   5  -3   6   87.19   10.76
  -5   3   6   87.99   10.11
  -5   3   6   63.37    9.75
  -5  -3   6   67.41   10.82
  -5  -3   6   73.54    9.80
   5   3   6   89.10    8.39
  -5   3   8   15.72    6.23
  -5   3   8    1.39    6.80
   5  -3   8    1.42    7.59
  -5  -3   8   14.78    6.15
  -5  -3   8    0.34    7.16
  -5   3  10    5.03    7.30
  -5  -3  10    8.68    6.96
  -5  -3  10   -2.98    7.28
   6  -3   1    9.76    4.33
  -6   3   1   10.11    4.69
   6  -3   1   11.48    3.73
  -6  -3  -1    7.53    3.72
  -6   3   1   11.10    3.94
   6   3   1    3.32    4.55
  -6   3  -1    8.03    3.75
  -6  -3   1    8.78    4.46
   6   3   1    8.57    3.71
   6  -3  -1    6.83    3.91
  -6  -3   1    7.95    3.89
   6   3   1   14.15    4.42
  -6  -3   1    6.02    4.86
  -6   3   3   22.58    3.47
   6  -3   3   27.98    3.96
  -6   3   3   18.77    5.02
   6  -3   3   27.21    4.74
  -6  -3  -3   17.98    3.56
  -6   3   3   27.60    5.13
  -6  -3   3   20.24    4.90
   6   3   3   11.61    4.70
  -6  -3   3   21.14    3.48
  -6   3  -3   30.49    3.15
   6  -3  -3   21.70    4.00
  -6  -3   3   19.49    5.24
   6  -3   5    6.13    7.65
  -6   3   5    1.27    6.33
  -6   3   5    5.73    6.21
  -6  -3   5    2.75    5.76
   6  -3  -5    0.12    4.83
  -6  -3   5   -0.31    6.66
   6  -3   7    9.60    7.67
  -6   3   7    2.58    6.26
  -6   3   7    3.29    6.68
  -6  -3   7    2.45    5.91
  -6  -3   7   -0.12    7.09
   6   3   7    2.04    6.99
  -6   3   9    3.41    7.22
  -6  -3   9    4.03    7.28
  -6  -3   9    9.09    6.48
  -7  -3   0    4.33    4.87
  -7   3   0   10.85    4.09
   7  -3   0    3.94    4.91
   7  -3   0    6.29    4.12
  -7  -3   0    3.35    4.06
   7   3   0   -2.40    4.37
   7   3   0   -1.62    3.98
   7   3   0    3.29    4.63
  -7   3   2  212.65   14.55
   7  -3   2  202.65   11.07
  -7   3   2  202.75   11.65
   7  -3   2  206.81   13.71
  -7  -3  -2  218.22   11.75
   7  -3  -2  203.76   11.85
   7   3   2  202.01   13.96
  -7   3  -2  201.54   11.55
  -7  -3   2  206.11   11.88
   7   3   2  206.34   13.87
   7   3   2  207.82   11.15
  -7  -3   2  198.02   14.16
  -7  -3   2  200.24   14.32
  -7   3   4  120.63   11.04
  -7   3   4  123.89    7.97
  -7   3   4   91.21   11.52
   7  -3   4  147.99    9.61
   7  -3   4  122.89   10.23
   7  -3  -4  133.53    9.61
  -7  -3   4  114.70   11.26
  -7  -3   4  108.66   11.24
  -7   3  -4  137.73    8.30
  -7   3   6   78.42   10.82
   7  -3   6   73.54    9.95
  -7   3   6   70.02    8.83
  -7  -3   6   71.63   11.33
  -7  -3   6   85.17   10.75
  -7   3   8   24.58    7.28
   7  -3   8    6.98    8.06
  -7  -3   8    9.28    7.71
  -7  -3   8   14.87    6.96
  -8  -3  -1    5.44    3.83
  -8   3   1    4.52    3.84
   8   3  -1   -6.43    4.03
   8  -3   1    3.76    4.39
   8  -3   1    2.17    3.81
  -8   3   1    1.74    4.42
  -8   3  -1    3.39    3.85
   8   3   1    1.56    4.35
   8  -3  -1   -3.51    3.89
  -8  -3   1    1.83    4.93
   8   3   1   -1.06    3.78
  -8  -3   1    2.93    3.91
   8   3   1    0.39    4.27
  -8  -3   1    0.17    4.35
   8  -3   3   23.23    4.77
  -8  -3  -3   10.87    4.10
  -8   3   3   13.33    4.09
  -8   3   3    9.41    5.83
  -8   3   3   20.04    5.88
   8  -3  -3   10.89    4.51
  -8   3  -3   19.72    3.85
   8   3   3   26.32    4.87
  -8  -3   3    6.44    4.16
  -8  -3   3   13.12    5.47
  -8  -3   3   10.95    5.79
   8   3   3   14.38    5.38
   8  -3   5    7.24    5.10
  -8   3   5    6.36    7.01
  -8  -3  -5   -0.40    4.34
   8  -3   5   14.04    6.48
  -8   3   5    0.24    7.13
  -8   3  -5    5.06    3.94
   8   3   5  -10.44    5.84
  -8  -3   5   -0.66    6.75
   8  -3  -5   -2.38    5.62
  -8  -3   5    8.07    7.49
   8  -3   7   -0.28    4.65
   8   3  -7   12.85    6.30
   8  -3   7   -0.90    5.95
  -8   3   7   -6.59    6.98
   8  -3   7    5.66    8.51
  -8   3   7    2.05    7.62
   8  -3  -7   -4.64    5.47
  -8  -3   7   -0.57    7.51
   8   3   7   -1.28    5.04
  -8  -3   7    1.57    6.64
   8   3   7    7.76    7.90
   8   3   7   -3.31    5.27
  -8   3   9    3.30    7.70
  -8  -3   9   -1.86    7.69
  -8  -3   9    4.32    7.33
   9  -3   0  110.96   10.41
   9   3   0  103.40   10.47
   9  -3   0  114.43    9.06
   9   3   0  111.58   10.12
  -9   3   0  114.08    8.84
   9   3   0  109.83    9.13
  -9  -3   0  115.73    9.05
   9  -3   0  113.82    9.77
   9   3  -2  162.38   11.55
  -9   3   2  167.09   13.37
  -9   3   2  166.22   11.07
   9  -3   2  179.58   10.31
   9  -3   2  176.13   12.78
  -9  -3  -2  184.29   11.02
  -9  -3   2  164.54   13.39
   9   3   2  171.97   12.78
  -9   3  -2  177.84   11.01
   9   3   2  176.79   13.03
   9   3   2  182.56   10.67
  -9  -3   2  173.46   11.33
   9  -3  -2  159.20   11.35
  -9  -3   2  160.28   13.00
  -9   3   4   64.22    8.23
   9  -3   4   62.36    8.49
  -9   3   4   64.78    8.58
  -9   3   4   67.90    7.18
  -9  -3  -4   45.82    5.66
  -9  -3   4   63.67    7.99
  -9  -3   4   65.83    7.62
   9   3   4   41.79    7.55
   9   3   4   65.03    8.52
  -9  -3   4   62.58    8.34
   9  -3  -4   54.30    6.44
  -9   3  -4   76.18    7.90
   9   3  -6   43.38    7.50
   9  -3   6   53.79   10.22
  -9   3   6   56.59    9.07
  -9   3   6   75.23    9.17
   9   3   6   39.33    6.75
   9  -3  -6   38.77    6.73
  -9  -3   6   57.02    8.34
  -9  -3   6   58.10    8.96
   9  -3   8    6.44    8.80
   9  -3   8   -2.25    5.13
  -9   3   8   10.75    7.89
   9   3   8    0.26    5.47
  -9  -3   8   10.55    7.50
   9   3   8    0.37    5.22
  -9  -3   8   15.95    8.12
 -10  -3  -1   18.65    4.76
 -10   3   1   26.91    4.66
  10   3  -1   16.98    4.79
  10  -3   1   19.29    4.63
  10  -3   1   22.18    5.54
  10  -3  -1   15.45    4.68
  10   3   1   14.74    4.67
  10   3   1   25.23    5.32
 -10  -3   1   23.56    5.87
 -10   3  -1   22.22    4.76
  10   3   1   17.95    5.24
 -10  -3   1   19.71    4.70
 -10   3   3   -8.75    6.19
  10  -3   3    2.59    3.50
  10  -3   3    7.05    5.50
 -10  -3  -3   -1.78    4.76
 -10   3   3   -2.13    4.68
  10   3  -3  -16.99    5.56
 -10   3  -3   11.92    4.67
  10   3   3    9.01    5.63
  10  -3  -3   -1.07    5.31
 -10  -3   3   -4.47    4.96
 -10  -3   3  -10.29    6.55
  10   3   3    4.93    6.00
 -10  -3   3  -11.16    6.15
  10   3   3   -0.66    3.69
 -10   3   5   12.39    7.95
  10  -3   5    3.46    6.15
 -10   3   5    0.75    8.21
 -10  -3  -5   -2.11    4.96
  10   3  -5   -7.40    6.93
 -10  -3   5   13.92    7.42
 -10   3  -5    5.96    4.80
  10   3   5   12.65    6.51
 -10  -3   5    3.82    7.99
  10  -3  -5    7.23    6.38
  10   3   5    1.47    7.04
 -10  -3   5   -1.05    4.33
  10  -3   7   -1.41    5.81
  10   3  -7    9.49    6.60
  10  -3   7   -2.28    9.01
 -10   3   7    5.58    7.85
 -10  -3   7    4.13    7.34
  10   3   7   -1.54    5.91
  10  -3  -7   -8.01    6.00
  10   3   7    0.21    6.58
 -10  -3   7   -5.66    7.89
 -10   3   9    7.43    8.27
  10  -3   9   -0.54    5.92
  10   3   9    4.82    6.09
 -10  -3   9   -3.57    8.58
 -10  -3   9    6.14    8.00
  10   3   9    1.21    5.57
  11  -3   0  195.26   14.97
 -11  -3   0  203.68   13.02
  11  -3   0  206.06   12.98
  11   3   0  208.24   14.78
  11   3   0  190.19   15.31
  11   3   0  195.10   13.04
  11  -3   0  211.09   14.77
 -11   3   0  215.88   12.81
  11  -3   2   89.91   10.30
 -11   3   2   87.75    9.30
 -11   3   2   93.03   10.78
 -11  -3  -2   94.33    9.44
  11  -3   2   89.67    8.59
  11   3  -2   92.31    9.63
 -11  -3   2   81.63   10.68
  11   3   2   95.40    9.03
 -11  -3   2   96.67    9.64
  11   3   2   87.76    9.89
 -11  -3   2   88.81   10.54
 -11   3  -2   96.15    9.45
  11  -3  -2   87.53    9.71
  11   3   2   86.55   10.05
  11  -3   4   38.98    7.28
 -11   3   4   51.02    5.97
  11   3  -4   51.71    7.43
 -11  -3  -4   37.90    6.09
 -11   3   4   59.21    8.40
 -11  -3   4   61.72    8.86
  11   3   4   49.99    7.63
 -11  -3   4   53.79    6.27
  11  -3  -4   50.44    6.90
 -11  -3   4   52.22    8.50
  11   3   4   35.30    7.76
 -11   3  -4   42.26    5.88
 -11   3   6   56.27    8.36
  11  -3   6   17.20    6.69
  11   3  -6   33.81    7.26
  11   3   6   33.41    7.02
 -11  -3   6   52.12    8.78
  11   3   6   22.73    7.12
  11  -3  -6   33.32    6.82
  11  -3   8   -0.54    5.99
 -11   3   8   23.16    7.85
  11  -3   8   16.10    9.52
  11   3   8    9.31    6.54
 -11  -3   8    7.91    8.59
  11   3   8    4.27    6.01
 -11  -3   8   26.62    7.65
 -12   3   1    8.12    5.24
 -12  -3  -1    4.85    5.42
  12   3  -1    4.50    5.29
  12  -3   1   11.11    5.28
  12  -3   1   15.65    6.37
  12  -3   1   14.92    6.35
  12   3  -1    8.20    5.85
  12  -3  -1   10.45    5.92
 -12  -3   1   11.23    6.52
  12   3   1   11.71    6.13
 -12  -3   1    4.32    5.30
  12  -3  -1    2.84    5.22
 -12   3  -1   12.86    5.36
  12   3   1   12.69    6.00
  12   3   1    7.51    5.16
 -12   3   3   -4.73    5.62
  12  -3   3   -2.09    6.45
  12   3  -3  -15.01    6.32
 -12   3   3   -1.56    7.15
  12  -3   3    2.39    4.57
 -12  -3  -3  -11.53    5.81
 -12  -3   3   -7.01    7.41
  12   3   3   -6.20    6.93
  12  -3  -3  -10.03    6.15
 -12  -3   3  -12.66    5.87
  12   3   3   -6.04    4.89
 -12  -3   3  -11.05    6.99
  12   3   3   -1.40    6.54
 -12   3  -3   -4.08    5.70
  12  -3   5    2.36    6.84
 -12  -3  -5   -3.79    5.67
 -12   3   5    9.38    8.38
  12   3  -5   -6.76    7.13
 -12   3   5    4.40    5.24
 -12  -3   5   11.82    8.16
  12  -3  -5    6.18    6.88
 -12   3  -5    1.17    5.64
 -12  -3   5   -2.54    5.47
  12   3   5    0.67    7.43
  12   3   5   11.09    7.13
 -12  -3   5    6.50    8.33
  12  -3   7   18.00    9.77
 -12   3   7   11.24    8.11
  12  -3   7    3.44    6.37
  12   3  -7    4.03    7.03
  12   3   7   -0.61    6.92
  12   3   7   -2.68    6.30
  12  -3  -7   -2.47    6.56
 -12  -3   7   10.77    7.68
 -12  -3   7    2.70    8.64
 -12   3   9   10.86    9.25
  12  -3   9    0.51    7.02
  12   3   9   -0.30    6.49
 -12  -3   9    3.49    9.58
  12   3   9    6.08    6.88
 -12  -3   9   15.86    8.04
  13   3   0   48.99    6.47
  13  -3   0   65.67    8.09
 -13   3   0   66.20    6.67
  13  -3   0   54.27    6.56
 -13  -3   0   56.29    6.62
  13   3   0   60.39    7.72
 -13  -3  -2   74.40    7.53
  13  -3   2   67.78   10.68
  13  -3   2   79.74    9.96
  13   3  -2   74.10    7.58
 -13   3   2   74.44    7.17
 -13   3   2   82.99   11.76
 -13  -3   2   78.50   11.38
 -13   3  -2   76.67    7.46
 -13  -3   2   88.57   10.95
 -13  -3   2   80.64   11.62
  13  -3  -2   78.67    7.43
  13   3   2   75.65   11.00
  13   3   2   81.59   10.03
  13   3   2   70.11   10.94
  13   3  -4   56.11    7.95
 -13   3   4   79.99    9.72
 -13  -3  -4   48.69    7.09
 -13   3   4   78.38    9.66
  13  -3   4   45.28    8.31
 -13   3  -4   48.06    6.97
  13   3   4   53.09    8.85
 -13  -3   4   73.23    9.23
 -13  -3   4   71.48    9.69
 -13  -3   4   85.54   10.09
  13  -3  -4   54.37    7.66
  13   3   4   62.80    8.39
  13  -3   6    5.93    6.80
 -13   3   6   25.79    8.45
  13   3  -6   15.91    7.35
  13  -3  -6   12.57    6.89
  13   3   6   13.34    7.32
 -13  -3   6   29.63    8.23
 -13  -3   6   22.97    8.44
  13   3   6   13.01    6.78
  13  -3   8   -1.67    6.94
 -13   3   8   19.08    8.42
  13  -3   8   16.07    9.91
 -13  -3   8   18.62    8.05
 -13  -3   8   12.54    9.33
  13   3   8    9.54    7.18
  13   3   8   -0.83    6.83
  14  -3   1   -1.28    7.45
 -14   3   1    8.94    6.15
 -14  -3  -1   10.03    6.57
  14   3  -1    8.77    7.06
  14   3  -1    0.80    6.20
  14  -3   1   16.20    7.54
  14  -3   1   13.10    6.37
  14   3   1    1.29    7.06
  14  -3  -1   12.85    7.06
  14  -3  -1    8.09    6.09
 -14  -3   1    8.11    6.42
  14   3   1    2.75    6.31
 -14   3  -1   11.40    6.46
  14   3   1    8.76    7.30
  14  -3   3    5.24    7.62
 -14  -3  -3   -5.00    6.74
  14  -3   3   10.41    5.36
 -14   3   3    8.72    8.22
 -14   3   3    9.15    6.29
  14   3  -3  -14.14    7.07
  14   3   3    6.79    7.50
 -14  -3   3    0.61    7.76
  14  -3  -3    4.58    6.73
  14   3   3    5.10    7.95
 -14   3  -3    6.52    6.59
 -14  -3   3   -4.93    6.64
  14   3   3   -1.60    5.80
 -14  -3   3    5.65    8.34
 -14   3   5   -2.66    5.70
 -14   3   5   -6.22    8.31
 -14  -3  -5  -14.21    6.17
  14   3  -5   -8.14    7.44
  14  -3   5    0.02    7.15
 -14  -3   5   -1.02    7.91
  14   3   5   -3.56    6.98
  14  -3  -5   -4.73    6.91
 -14  -3   5  -11.75    5.97
  14   3   5   -7.39    7.50
 -14   3  -5  -13.98    5.87
 -14  -3   5   -8.21    8.31
  14  -3   7    1.60    7.12
  14   3  -7    1.90    7.44
  14   3   7   -2.99    7.40
 -14  -3   7   -1.75    9.34
  14   3   7    3.32    7.34
  14  -3  -7   -2.73    6.94
  15   3   0   52.47    8.30
 -15   3   0   43.98    7.10
  15   3   0   37.38    7.08
  15  -3   0   44.90    8.75
 -15  -3   0   48.09    7.35
  15  -3   0   37.90    6.99
 -15  -3  -2   37.38    7.50
  15  -3   2   44.77    8.81
  15  -3   2   41.13    8.77
  15  -3   2   37.62    7.11
 -15   3   2   38.08    6.90
  15   3  -2   37.52    7.31
 -15   3  -2   42.11    7.38
 -15  -3   2   52.14    7.39
  15   3   2   37.35    8.28
  15  -3  -2   42.94    7.20
  15   3   2   42.06    8.51
  15   3   2   40.90    7.12
 -15  -3   2   47.85    8.88
 -15  -3  -4   95.78   10.85
 -15   3   4   88.68   10.68
  15  -3   4   76.88   11.75
  15   3  -4   88.71    9.03
  15   3   4   82.72   11.94
 -15  -3   4  106.64   12.48
 -15  -3   4   98.52   10.94
  15  -3  -4   93.79   11.16
 -15   3  -4   66.46    8.06
  15   3   4   84.99   11.69
  15  -3   6    4.53    7.40
  15   3  -6   11.49    7.76
 -15   3   6    8.92    5.35
  15   3   6   21.14    7.80
  15   3   6   15.96    8.09
 -15  -3   6   -4.83    5.62
 -15  -3   6   27.79    8.88
  15  -3  -6   13.70    7.18
  15  -3   8    8.19    8.58
  15  -3   8   -4.50    7.89
  15  -3   8    6.28   10.68
  15   3   8    5.32    8.02
 -15  -3   8   24.37   11.23
  15   3   8   -0.40    7.78
  16  -3   1   10.07    7.05
  16  -3   1   17.13    8.69
  16  -3   1    3.83    8.25
 -16  -3  -1    9.60    7.30
 -16   3   1    9.27    6.64
  16   3  -1   -2.73    6.82
 -16   3  -1   12.23    7.09
  16   3   1    1.76    6.95
  16   3   1    4.36    7.72
  16  -3  -1    5.39    6.69
  16   3   1    5.33    8.06
 -16  -3   1   13.72    7.22
 -16  -3  -3    1.77    7.51
  16  -3   3   -0.34    8.54
 -16   3   3    3.35    6.68
  16   3  -3  -12.66    7.36
  16  -3   3   12.85    8.50
  16  -3   3   24.74    6.14
  16   3   3   -5.45    7.96
 -16  -3   3   -0.30    7.05
  16   3   3   11.79    6.51
  16   3   3   -0.62    8.41
 -16  -3   3   12.16    9.18
  16  -3  -3    1.40    7.08
 -16   3  -3    6.41    7.29
 -16  -3  -5  -16.32    6.57
 -16   3   5   -7.44    6.32
  16   3  -5   -2.73    7.84
  16  -3   5   -4.19    7.78
  16   3   5   -4.89    8.08
  16  -3  -5   -7.87    7.12
 -16   3  -5   -9.92    6.43
  16   3   5   -8.51    8.07
 -16  -3   5   -7.02    6.57
 -16  -3   5   -2.92    9.19
  16  -3   7    9.33    7.90
  16   3  -7   -3.06    7.82
  16  -3   7   -0.37    8.96
  16   3   7   -2.46    8.09
  16   3   7    2.25    7.94
  16  -3  -7   -6.18    7.36
 -16  -3   7   12.96   10.76
  17  -3   0   21.76    7.18
 -17  -3   0   34.81    7.65
  17   3   0   30.80    8.53
 -17   3   0   22.21    7.34
  17  -3   0   20.18    8.69
  17   3   0   16.38    7.05
  17   3  -2   25.79    7.53
 -17   3   2   25.54    7.04
  17  -3   2   18.66    7.46
  17  -3   2   26.13    9.17
  17  -3   2   29.33    9.03
 -17  -3  -2   22.52    7.74
 -17   3  -2   16.27    7.61
  17   3   2   21.99    7.39
  17   3   2   29.92    8.94
 -17  -3   2   36.40    7.58
  17  -3  -2   21.05    7.15
  17   3   2   20.83    8.45
  17   3  -4   28.53    7.80
  17  -3   4   10.04    8.26
 -17  -3  -4   13.73    7.30
 -17   3   4   17.55    6.75
  17  -3   4   31.80    8.74
 -17  -3   4   35.47    9.60
  17   3   4   26.74    8.26
 -17  -3   4   20.31    7.19
  17   3   4   26.19    8.56
 -17   3  -4    0.23    6.83
  17  -3  -4   19.67    7.28
  17  -3   6   10.45    9.52
  17   3  -6    0.47    8.04
 -17   3   6   -5.07    6.07
  17  -3  -6   -2.30    7.43
 -17  -3   6   23.19   10.50
  17   3   6    6.70    7.99
  17   3   6    5.25    8.59
 -17  -3   6  -18.13    6.27
  17  -3   8   -8.07    8.60
  17  -3   8    8.23    9.24
  17   3   8   -6.46    8.52
  17   3   8    0.33    8.55
 -18   3   1    8.00    6.99
  18  -3   1    7.44    9.10
  18   3  -1   -0.22    7.12
 -18  -3  -1    8.85    7.77
  18  -3   1   11.14    7.44
 -18   3  -1   13.27    7.58
  18   3   1    5.01    8.64
  18   3   1   -1.66    7.27
 -18  -3   1    6.24    7.60
  18  -3  -1    6.98    7.02
  18  -3   3    0.38    8.60
 -18  -3  -3  -19.81    7.49
  18  -3   3   12.84    6.44
 -18   3   3    6.41    6.82
  18   3  -3  -13.51    7.37
  18   3   3  -17.51    8.47
 -18   3  -3    5.55    7.40
  18  -3  -3  -11.67    6.99
 -18  -3   3    2.90    7.08
  18   3   3   12.41    6.82
 -18   3   5  -12.62    6.73
 -18  -3  -5   -6.89    7.15
  18  -3   5   -7.40    8.30
  18   3  -5   -4.26    8.04
  18  -3   5   -7.78    9.60
  18   3   5   -5.51    8.42
 -18  -3   5  -17.18    7.05
  18  -3  -5   -1.62    7.62
 -18   3  -5   -3.15    6.85
  18   3   5  -14.42    8.64
  18  -3   7    1.13    9.56
  18  -3   7   -1.01    8.55
  18   3  -7    3.19    8.46
  18  -3  -7   -5.12    8.12
  18   3   7    7.44    8.52
  18   3   7  -12.38    8.83
 -19   3   0    3.44    7.28
  19  -3   0    0.27    6.90
 -19  -3   0    3.60    7.63
  19   3   0    1.24    7.15
  19  -3   2   10.89    9.02
  19  -3   2    6.68    7.34
 -19  -3  -2   -0.93    7.72
  19   3  -2    1.70    7.17
 -19   3   2   11.61    6.91
 -19   3  -2    5.91    7.39
 -19  -3   2    8.58    7.20
  19  -3  -2   11.99    7.08
  19   3   2   -0.04    7.25
  19   3   2   12.46    8.50
 -19   3   4    8.13    7.07
  19   3  -4    6.45    7.88
 -19  -3  -4   -5.50    7.45
  19  -3   4   -2.93    5.08
  19  -3   4    3.96    8.70
 -19   3  -4   -2.08    7.21
  19   3   4   -2.42    5.20
  19  -3  -4    7.45    7.53
 -19  -3   4    0.51    7.49
  19   3   4   16.29    8.83
  19   3  -6    9.47    8.47
 -19   3   6  -10.86    6.69
  19  -3   6    6.49    8.62
  19   3   6   12.58    8.69
 -19  -3   6  -17.35    7.02
  19  -3  -6    5.39    8.14
  20  -3   1   13.25    7.46
 -20   3   1    9.07    7.01
  20   3  -1    8.57    7.12
 -20  -3  -1    6.57    8.08
  20   3   1   14.07    7.53
 -20   3  -1   20.65    7.58
 -20  -3   1    1.22    7.55
  20  -3  -1   10.61    7.05
  20  -3   3    2.39    6.86
 -20  -3  -3  -18.06    8.00
  20   3  -3   -7.78    7.46
 -20   3   3    3.54    7.11
  20  -3   3    2.79    9.17
  20  -3  -3    4.99    7.26
  20   3   3    2.84    7.27
 -20  -3   3    2.69    7.39
  20   3   3   -6.41    8.86
 -20   3  -3  -10.84    7.59
  20  -3   5    1.63    8.87
 -20   3   5  -16.59    7.22
 -20  -3  -5   -9.70    7.55
  20   3  -5   -3.55    8.34
  20   3   5   -1.31    8.71
 -20  -3   5  -13.12    7.52
 -20   3  -5   -3.83    7.16
  20  -3  -5   -1.46    7.87
  21  -3   0   -9.22    7.42
  21   3   0   -3.31    7.21
 -21  -3   0    1.16    7.95
 -21   3   0    2.15    7.45
 -21  -3  -2   -9.88    8.11
  21  -3   2  -13.61    7.67
  21   3  -2    0.85    7.16
 -21   3   2   -2.07    7.25
 -21   3  -2   -4.16    7.72
  21  -3  -2   -5.28    6.99
  21   3   2   -8.15    7.87
 -21  -3   2   -3.83    7.55
 -21  -3  -4  -13.94    7.93
  21   3  -4    3.92    8.21
  21  -3   4    3.59    9.30
 -21   3   4   -8.54    7.32
 -21   3  -4  -11.59    7.57
 -21  -3   4  -23.28    7.75
  21   3   4    7.98    8.97
  21  -3  -4   -2.86    7.57
 -21   3   6  -14.80    7.64
  21   3  -6    0.29    9.09
  21  -3   6   -0.80    9.48
  21   3   6    6.92    9.12
  21  -3  -6    0.74    8.47
 -22  -3  -1    2.40    8.51
  22  -3   1   13.89    7.98
 -22   3   1    0.78    7.37
  22   3  -1   17.61    7.74
  22   3   1   14.08    7.86
  22  -3  -1   12.26    7.28
 -22   3  -1   12.18    8.01
 -22  -3   1    8.46    7.92
  22  -3   3   -4.57    7.19
 -22  -3  -3  -15.96    8.43
 -22   3   3   -2.73    7.45
  22   3  -3   -0.58    7.57
 -22  -3   3   -0.23    7.72
  22   3   3   -8.66    7.61
  22  -3  -3    4.51    7.54
 -22   3  -3   -2.58    7.90
 -22  -3  -5  -25.02    8.16
  22   3  -5   -6.21    8.64
  22  -3   5   -2.87    9.88
 -22   3   5  -17.62    7.86
 -22   3  -5  -16.44    7.65
  22   3   5    5.38    9.44
  22  -3  -5   -1.67    8.23
  23  -3   0   -5.52    7.77
  23   3   0  -13.71    7.63
 -23   3   0  -16.39    7.77
 -23  -3   0  -19.56    8.16
  23  -3   2  -13.65    8.00
  23   3  -2   -5.29    7.65
 -23   3   2  -12.15    7.58
 -23  -3  -2  -17.54    8.65
  23   3   2  -17.43    8.21
  23  -3  -2   -4.48    7.26
 -23  -3   2  -20.37    7.78
 -23   3  -2  -10.43    8.00
 -23   3   4  -24.37    7.70
  23   3  -4   -7.06    8.16
 -23   3  -4  -20.63    7.94
  23  -3  -4  -11.02    7.97
  24  -3   1    5.87    8.41
 -24  -3  -1   -5.37    8.74
 -24   3   1    2.57    7.69
  24   3  -1    4.93    7.83
  24   3   1   -1.33    8.13
 -24   3  -1    0.94    8.34
  24  -3  -1    2.56    7.69
 -24  -3   1   -0.07    8.03
 -24  -3  -3    0.09    9.07
 -24   3   3   -6.19    7.91
  24   3  -3   10.25    8.15
  24  -3   3    5.75    7.79
 -24  -3   3   -6.88    8.25
  24   3   3  -12.17    7.98
  24  -3  -3   -0.18    7.73
 -24   3  -3   -9.70    8.21
 -25   3   0  -13.64    7.93
 -25  -3   0  -19.12    8.59
  25   3   0   -7.72    8.08
  25  -3   0  -10.20    8.10
  25   3  -2  -12.28    7.98
 -25   3   2  -17.45    7.97
  25  -3   2  -18.57    8.28
 -25  -3  -2  -28.06    9.23
  25   3   2  -23.90    8.68
 -25   3  -2  -26.27    8.44
  25  -3  -2   -5.10    7.68
  26   3  -1   -1.39    8.41
  26  -3   1    1.73    9.32
 -26  -3  -1   -9.64    9.30
 -26   3   1   -4.70    8.42
 -26   3  -1   -3.35    8.71
 -26  -3   1   -4.86    8.98
  26   3   1   -5.09    9.23
  26  -3  -1    8.74    8.39
  27  -3   0  -12.43    8.94
  27   3   0  -17.36    8.72
   0  -4   0  674.34   34.60
   0   4   0  732.30   43.39
   0  -4   0  767.48   43.40
   0   4   0  738.34   34.66
   0   4   0  759.02   43.41
   0  -4   0  733.49   43.41
   0  -4  -2  349.15   15.47
   0  -4   2  340.46   19.22
   0   4   2  270.30   19.34
   1  -4   1   90.35    6.09
   1  -4   1   94.49    6.14
   1  -4   1   87.80    5.38
   1   4   1   89.11    6.07
   1   4   1   87.60    5.93
  -1   4  -1   84.42    5.04
   1   4   1   79.67    4.84
  -1   4   3   35.02    4.53
   1  -4   3   46.93    5.33
   1  -4   5   12.43    6.34
  -2  -4   0  553.49   32.10
  -2   4   0  579.30   32.15
  -2  -4   0  543.93   32.11
  -2   4   0  515.76   25.66
   2   4   0  508.49   25.63
  -2   4   0  536.19   32.09
  -2  -4   0  545.58   25.64
   2   4   0  548.44   32.13
   2  -4   0  570.20   32.13
   2   4   0  531.23   32.10
   2  -4   0  551.17   32.10
   2  -4   0  507.53   25.63
  -2   4   2  224.79   11.31
   2   4  -2  232.11   11.83
  -2  -4   2  211.42   14.00
   2  -4  -2  214.39   11.47
  -2  -4   2  220.02   11.10
   2  -4   4  167.50   10.06
  -2   4   4  159.98   10.11
  -2   4   4  151.84   10.54
   2   4  -4  119.16    8.48
   2  -4  -4  158.22    8.36
  -2  -4   4  155.36   10.18
  -2  -4   4  135.67   10.50
   2  -4   6   59.31    7.83
  -2   4   6   42.57    5.81
  -2   4   6   39.20    5.40
  -2  -4   6   37.27    5.10
  -2  -4   6   39.78    5.96
  -2   4   8   17.97    5.83
  -2  -4   8   -3.63    5.98
  -2  -4   8    4.12    4.99
  -2   4  10    3.06    5.97
  -3   4   1  102.70    6.40
   3  -4   1   83.51    5.97
  -3   4   1  118.89    7.83
   3   4  -1   98.01    6.47
  -3  -4   1  109.78    7.54
   3  -4  -1  103.83    6.22
  -3   4  -1   81.99    6.19
  -3  -4   1   93.42    6.18
   3   4   1   83.63    7.25
  -3  -4   1   92.38    7.35
  -3   4   3   45.65    6.12
   3  -4   3   43.17    5.92
   3   4  -3   45.78    5.82
  -3   4   3   68.55    6.85
   3  -4  -3   46.19    5.27
  -3  -4   3   51.07    6.74
  -3  -4   3   50.45    6.11
   3  -4   5   17.34    6.46
  -3   4   5   31.93    5.64
   3   4  -5   20.64    4.04
  -3   4   5   24.37    4.94
  -3  -4   5   21.53    4.65
   3  -4  -5   15.11    3.80
  -3  -4   5   19.32    5.68
  -3   4   7   -0.84    5.56
  -3   4   7   -1.80    5.87
  -3  -4   7   -1.03    6.26
  -3  -4   7    1.99    4.94
  -3   4   9    3.49    5.99
  -3  -4   9   -0.07    6.53
  -3  -4   9    8.30    5.53
   4  -4   0  196.20   12.38
   4   4   0  189.39   12.24
  -4   4   0  185.23   12.07
  -4  -4   0  176.63   12.29
  -4  -4   0  190.84   10.16
  -4   4   0  183.89   10.13
   4   4   0  190.86   12.36
   4  -4   0  190.56    9.99
  -4  -4  -2  493.49   21.93
   4  -4   2  444.06   27.05
  -4   4   2  465.25   21.96
  -4   4   2  389.30   27.64
   4   4  -2  445.72   22.22
  -4  -4   2  450.19   27.65
  -4   4  -2  458.75   21.83
  -4  -4   2  443.87   27.34
   4  -4  -2  435.86   22.02
  -4  -4   2  457.25   21.99
   4   4   2  449.46   27.09
   4  -4   4  176.30   10.71
  -4   4   4  156.51   11.21
   4   4  -4  139.23    9.61
  -4   4   4  145.38   11.89
  -4  -4   4  160.16   11.27
  -4  -4   4  131.30   11.83
   4  -4  -4  160.17    9.28
   4  -4   6   54.30    8.34
   4   4  -6   28.64    5.04
  -4   4   6   32.07    6.37
  -4   4   6   36.43    6.94
  -4  -4   6   28.12    7.62
  -4  -4   6   32.80    5.95
  -4   4   8   16.27    6.33
  -4  -4   8   14.90    5.81
  -4  -4   8    8.29    7.12
  -4   4  10   11.15    7.49
  -4  -4  10   -2.90    7.18
  -4  -4  10   13.46    6.42
   5  -4   1   87.51    7.94
   5  -4   1   87.59    6.80
  -5   4   1   62.52    8.44
   5   4  -1   86.14    6.86
   5  -4   1   86.32    7.91
  -5  -4  -1   70.16    7.44
  -5   4   1   74.65    7.33
   5   4   1   80.30    7.84
   5   4   1   74.62    7.08
   5   4   1   70.42    8.25
  -5   4  -1   88.11    6.98
  -5  -4   1   68.90    7.16
  -5  -4   1   64.11    8.47
   5  -4  -1   69.90    7.45
   5  -4   3   34.63    5.05
  -5  -4  -3   26.21    3.48
  -5   4   3   28.41    5.35
   5   4  -3   24.78    4.06
  -5   4   3   26.32    3.31
   5  -4   3   23.45    4.53
  -5   4  -3   31.26    2.97
   5  -4  -3   29.59    3.78
  -5  -4   3   28.24    4.66
   5   4   3   36.34    5.36
  -5  -4   3   18.50    5.29
  -5  -4   3   22.07    3.22
   5  -4   5   29.70    8.04
  -5   4   5   29.32    6.69
  -5   4   5   26.29    6.07
   5   4  -5   19.79    4.99
  -5  -4   5   22.63    5.69
  -5  -4   5   15.32    7.04
   5  -4  -5   16.37    4.64
  -5   4   7    3.64    6.45
   5  -4   7    2.81    7.49
  -5   4   7    3.53    6.48
   5   4   7    8.65    6.23
  -5  -4   7    8.88    5.85
  -5  -4   7    2.93    7.17
  -5   4   9    1.44    6.31
  -5  -4   9    6.15    6.19
  -5  -4   9   -3.86    7.21
   6   4   0   37.62    5.21
   6  -4   0   39.18    5.16
  -6   4   0   40.19    4.36
   6  -4   0   38.23    4.44
  -6   4   0   49.44    7.40
   6   4   0   32.90    5.14
   6   4   0   29.10    4.51
  -6  -4   0   43.41    5.27
  -6  -4   0   33.83    4.28
   6  -4   2  254.73   17.42
  -6   4   2  280.62   14.41
   6  -4   2  260.44   13.83
  -6   4   2  294.64   17.94
  -6  -4  -2  273.69   14.50
   6   4   2  266.12   14.02
   6   4   2  260.61   17.47
  -6  -4   2  290.23   18.12
  -6  -4   2  289.26   14.54
   6  -4  -2  281.03   14.61
  -6   4  -2  263.70   14.30
   6   4   2  265.32   17.61
  -6  -4   2  283.82   17.70
   6  -4   4   76.96    7.47
  -6   4   4   90.95    9.89
  -6   4   4   88.37    9.71
   6   4  -4   88.01    7.93
   6  -4  -4   93.63    8.07
  -6  -4   4   91.61    9.48
  -6  -4   4   82.47    9.79
  -6   4  -4   80.70    6.65
   6   4   4   85.56    7.60
  -6   4   6   42.49    8.07
   6  -4   6   70.15    9.58
  -6   4   6   56.54    7.98
  -6  -4   6   47.15    8.51
  -6  -4   6   51.16    7.46
   6  -4   8    4.52    8.25
  -6   4   8   15.91    6.76
  -6  -4   8   12.66    6.52
  -6  -4   8    8.78    7.66
  -6  -4  10    5.46    7.90
  -6  -4  10   12.11    6.87
   7  -4   1   14.09    4.03
  -7  -4  -1   13.17    3.99
  -7   4   1   11.11    4.87
  -7   4   1   15.80    4.16
   7  -4   1   17.18    4.79
   7  -4  -1   10.99    4.13
  -7   4  -1   14.91    4.06
  -7  -4   1   11.08    4.69
  -7  -4   1   12.74    4.02
   7   4   1   11.45    3.94
   7   4   1   11.87    4.57
   7   4   1    9.54    4.83
  -7  -4   1    6.43    5.12
  -7  -4  -3   79.22    7.37
  -7   4   3   71.16    6.87
  -7   4   3   68.13    9.19
   7  -4   3   78.46    7.54
   7  -4   3   59.01    8.04
   7  -4  -3   69.53    7.78
  -7  -4   3   78.83    7.21
  -7   4  -3   74.62    6.96
  -7  -4   3   69.31    9.11
   7   4   3   74.23    8.15
  -7  -4   3   77.10    8.93
   7   4   3   78.19    7.65
   7  -4   5   28.07    9.06
  -7   4   5   23.96    6.94
  -7   4   5   20.94    7.05
   7  -4   5   12.13    4.69
  -7  -4  -5   12.56    4.32
   7  -4   5    7.20    6.42
  -7  -4   5   17.64    6.68
  -7  -4   5   22.54    7.49
   7  -4  -5   15.58    5.39
  -7   4  -5    6.93    3.67
   7   4   5   19.89    5.13
  -7   4   7    4.08    6.65
   7  -4   7   14.18    8.25
  -7  -4   7    5.68    6.39
   7   4   7    8.13    7.23
  -7  -4   7    6.74    7.61
   7  -4  -7   -3.77    5.14
  -7   4   9    5.54    7.67
  -7  -4   9    6.84    6.95
  -7  -4   9   -0.74    7.68
   8  -4   0  113.74    8.91
   8   4   0  117.12   10.77
   8   4   0  113.53    9.29
   8   4   0  117.18    9.99
  -8  -4   0  118.32    9.23
  -8   4   0  131.15    9.31
   8  -4   0  123.42   10.28
  -8  -4  -2  280.76   15.24
   8  -4   2  277.45   14.76
  -8   4   2  292.51   15.09
   8  -4   2  273.73   18.16
  -8   4   2  298.55   18.89
  -8  -4   2  290.60   18.62
   8  -4  -2  300.75   15.32
  -8   4  -2  269.83   15.13
   8   4   2  265.46   18.37
  -8  -4   2  300.71   18.84
   8   4   2  272.08   18.55
   8   4   2  279.76   14.92
  -8  -4   2  287.31   15.52
   8  -4   4   44.72    7.44
  -8  -4  -4   66.39    7.88
  -8   4   4   62.64    6.60
   8  -4   4   71.38    8.25
  -8   4   4   77.69   10.39
   8   4   4   76.11    8.58
  -8  -4   4   54.08    7.01
  -8  -4   4   62.84    8.24
  -8   4  -4   73.38    7.33
   8  -4  -4   75.69    8.76
  -8  -4   4   63.02    9.89
   8  -4   6   38.41    9.88
   8  -4   6    3.37    7.00
  -8   4   6   47.92    7.90
   8  -4  -6   20.50    6.00
  -8  -4   6   38.22    7.62
   8   4   6   25.87    5.84
  -8  -4   6   42.22    8.61
  -8   4   8   17.33    8.20
   8  -4   8    7.47    8.64
  -8  -4   8   11.09    8.07
  -8  -4   8   20.38    7.01
   8   4   8    2.36    5.47
   9   4  -1   19.23    4.56
   9  -4   1   22.96    4.36
  -9   4   1   23.43    4.35
  -9  -4  -1   18.94    4.36
  -9   4   1   22.90    5.21
   9  -4   1   19.02    5.16
   9   4   1   23.15    5.00
   9   4   1   19.13    4.33
  -9  -4   1   17.00    4.43
  -9  -4   1   24.75    5.12
  -9   4  -1   21.22    4.45
   9   4   1   19.16    4.98
  -9  -4   1   28.05    5.53
   9  -4  -1   24.50    4.52
  -9   4   3   16.78    4.66
  -9  -4  -3   23.90    4.72
  -9   4   3   12.72    6.57
   9  -4   3   32.00    5.28
   9  -4  -3   19.43    5.03
  -9   4  -3   33.40    4.46
   9   4   3   27.91    6.15
  -9  -4   3   12.06    5.94
  -9  -4   3   14.17    4.78
  -9  -4   3   18.22    6.38
  -9   4   5   21.99    7.90
   9  -4   5   13.44    5.90
   9  -4   5   15.77    7.11
  -9  -4  -5   10.28    4.98
   9   4   5    0.30    7.08
  -9   4  -5    9.32    4.59
   9  -4  -5   11.33    6.14
   9   4   5   22.39    6.11
  -9  -4   5   11.10    7.28
  -9  -4   5   14.01    8.06
   9  -4   7    8.93    8.86
  -9   4   7    3.69    7.71
   9  -4   7   -0.29    5.20
   9   4  -7   13.15    6.73
   9  -4   7    8.18    6.82
   9  -4  -7   -1.05    5.73
  -9  -4   7    1.76    7.80
   9   4   7    5.09    6.00
   9   4   7    0.62    5.36
  -9  -4   7    3.27    7.12
  -9   4   9    4.33    8.18
  -9  -4   9    9.83    7.14
   9   4   9   -1.79    5.40
  -9  -4   9   -3.15    8.17
 -10   4   0  367.61   19.52
  10   4   0  367.29   24.16
 -10  -4   0  385.91   19.83
  10   4   0  373.99   24.05
  10   4   0  388.28   19.79
  10  -4   0  376.69   23.73
  10  -4   0  368.84   19.65
  10  -4   2  154.31   11.97
  10   4  -2  155.80   11.30
 -10  -4  -2  145.62   10.77
  10  -4   2  143.85    9.93
 -10   4   2  166.13   12.94
 -10   4   2  149.26   10.90
  10   4   2  149.25   10.34
  10   4   2  144.12   11.98
 -10   4  -2  147.88   10.77
 -10  -4   2  154.62   11.13
  10   4   2  141.61   12.50
 -10  -4   2  150.56   12.42
 -10  -4   2  155.68   12.75
  10  -4  -2  153.79   10.93
 -10   4   4   60.07    8.57
 -10  -4  -4   26.52    5.71
  10  -4   4   31.88    6.61
 -10   4   4   44.48    5.45
  10   4   4   31.63    7.62
 -10  -4   4   47.17    5.81
 -10   4  -4   34.16    5.48
  10   4   4   45.33    6.68
 -10  -4   4   52.89    8.48
 -10  -4   4   45.70    7.90
  10  -4  -4   42.13    6.44
  10   4  -6   32.55    7.40
  10  -4   6   11.63    6.13
 -10   4   6   51.01    8.49
  10  -4  -6   21.69    6.30
  10   4   6   29.56    6.41
  10   4   6   16.87    7.40
 -10  -4   6   46.40    8.71
 -10  -4   6   46.25    8.07
 -10   4   8   17.33    7.60
  10  -4   8   12.18    9.19
 -10  -4   8   16.38    7.71
 -10  -4   8   12.69    8.62
  10   4   8    0.70    5.70
  10   4   8    3.33    6.02
  11   4  -1   23.06    5.25
 -11  -4  -1   23.04    5.32
 -11   4   1   34.28    5.06
  11  -4   1   24.44    5.11
  11  -4   1   29.46    6.10
  11   4   1   24.82    5.91
 -11   4  -1   30.36    5.24
  11   4   1   28.14    5.17
  11   4   1   28.55    5.83
  11  -4  -1   31.78    5.15
 -11  -4   1   24.78    5.16
 -11  -4   1   31.90    6.40
  11  -4  -1   29.90    5.85
 -11   4   3   -0.73    6.97
  11   4  -3  -15.19    6.20
  11  -4   3    5.54    6.29
  11  -4   3   11.96    4.19
 -11   4   3    3.29    5.21
 -11  -4  -3   -1.90    5.47
 -11  -4   3    2.17    7.37
  11   4   3    4.73    6.72
 -11  -4   3   -7.43    5.60
  11   4   3    4.59    4.41
  11   4   3    7.18    6.11
 -11   4  -3    8.71    5.28
  11  -4  -3    5.92    5.74
 -11  -4   3   -0.18    6.87
  11  -4   5    7.52    6.56
 -11   4   5   19.01    4.81
 -11  -4  -5    2.90    5.45
 -11   4   5   17.98    8.34
  11   4  -5   19.52    7.46
  11   4   5   21.74    6.73
  11  -4  -5   12.51    6.63
  11   4   5    6.85    7.77
 -11  -4   5   16.24    8.64
 -11  -4   5   22.44    8.01
 -11   4  -5   10.06    5.32
 -11  -4   5    5.72    5.14
  11   4  -7   -0.30    6.75
  11  -4   7   -2.12    6.12
 -11   4   7    1.24    8.27
  11  -4   7   19.87    9.58
 -11  -4   7    4.44    7.66
  11   4   7    0.74    6.13
 -11  -4   7   -4.75    8.23
  11  -4  -7   -1.15    6.24
  11   4   7    1.15    7.25
  11  -4   9    0.82    6.98
 -11   4   9    7.95    8.69
  11   4   9   -4.30    6.01
  11   4   9    7.12    6.76
 -11  -4   9   15.38    7.73
 -11  -4   9   -2.20    9.28
 -12   4   0   97.47   10.17
 -12  -4   0  103.55   10.59
  12  -4   0  102.13   11.07
  12   4   0   91.21   10.41
  12   4   0  115.00   11.28
  12  -4   0  102.34   10.09
  12   4   0   95.60   11.44
  12  -4   0   96.12   11.47
 -12   4   2   90.94   10.69
  12  -4   2   72.83   10.83
  12  -4   2   73.08    8.95
 -12  -4  -2   73.45    7.17
  12   4  -2   90.77   10.56
 -12   4   2   88.92   10.04
  12  -4  -2   89.35   10.32
 -12   4  -2   82.82   10.04
  12   4   2   77.46   10.45
  12   4   2   68.94   10.84
 -12  -4   2   89.86   11.27
 -12  -4   2   98.56   10.70
 -12  -4   2   87.42   10.78
  12   4   2   75.64    9.42
  12   4  -4   42.60    7.63
 -12  -4  -4   33.42    6.27
 -12   4   4   48.89    8.88
 -12   4   4   41.89    6.19
  12  -4   4   31.45    7.46
  12  -4  -4   39.99    7.01
 -12   4  -4   34.44    6.25
  12   4   4   37.04    7.40
 -12  -4   4   48.01    8.41
 -12  -4   4   45.05    6.44
 -12  -4   4   56.48    9.09
  12   4   4   30.50    8.17
 -12   4   6   42.42    8.57
  12   4  -6   36.45    7.54
  12   4   6   28.23    6.84
 -12  -4   6   38.90    7.99
  12  -4  -6   20.83    6.77
 -12  -4   6   35.33    8.81
  12   4   6   12.81    7.33
 -12   4   8   26.19    8.08
  12  -4   8    0.82    6.69
  12  -4   8    2.92    9.66
 -12  -4   8    7.63    8.99
 -12  -4   8   21.60    7.63
  12   4   8    0.35    6.46
  12   4   8    7.11    7.04
 -13  -4  -1   12.01    6.30
 -13   4   1   28.93    5.86
  13   4  -1   30.88    6.80
  13  -4   1   26.40    7.27
  13  -4   1   28.39    6.01
  13   4  -1   10.80    6.03
  13  -4   1   23.69    7.40
  13  -4  -1   31.16    5.99
  13   4   1   22.11    7.01
  13   4   1   18.35    6.09
  13   4   1   22.73    6.77
  13  -4  -1   26.76    6.50
 -13  -4   1   26.99    7.42
 -13   4  -1   28.24    6.15
 -13  -4   1   24.80    6.31
 -13   4   3   -3.43    5.86
 -13  -4  -3  -11.20    6.30
 -13   4   3   -2.40    7.77
  13  -4   3    0.06    7.28
  13  -4   3    5.39    5.09
  13   4  -3  -21.03    6.71
 -13  -4   3  -17.66    6.23
  13   4   3   -6.12    7.02
 -13  -4   3   -6.03    8.03
  13  -4  -3   -2.83    6.44
 -13  -4   3   -4.92    7.38
  13   4   3   -7.59    5.40
 -13   4  -3   -2.85    6.27
  13   4   3   -5.84    7.49
 -13  -4  -5  -10.39    5.98
 -13   4   5    2.22    8.50
  13   4  -5  -10.08    7.27
 -13   4   5    2.21    5.44
  13  -4   5   -0.43    6.91
 -13  -4   5    4.71    8.32
 -13  -4   5   -2.73    5.80
  13   4   5   -4.21    7.41
 -13  -4   5    4.06    7.89
  13   4   5    4.85    7.23
  13  -4  -5   -2.42    6.72
 -13   4  -5   -4.18    5.85
  13  -4   7   16.74   10.15
  13   4  -7    4.46    7.38
 -13   4   7    6.04    8.58
  13  -4   7    2.69    6.94
 -13  -4   7    6.17    9.18
 -13  -4   7   12.84    8.33
  13   4   7    3.37    7.34
  13   4   7    1.33    6.96
  13  -4  -7   -2.39    6.67
  13   4   9    9.97    7.54
  13   4   9    1.90    7.16
 -13  -4   9    0.59   10.06
 -14   4   0   34.83    6.48
  14   4   0   28.10    6.57
  14   4   0   31.76    7.45
  14  -4   0   30.32    6.34
 -14  -4   0   29.53    6.72
  14  -4   0   30.97    7.70
  14   4  -2   50.10    7.55
  14  -4   2   57.12    8.74
 -14  -4  -2   60.20    7.62
 -14   4   2   63.74    8.87
 -14   4   2   61.56    7.22
  14  -4   2   58.03    6.98
  14   4   2   64.35    8.84
 -14  -4   2   65.26    9.13
 -14  -4   2   57.64    7.50
 -14   4  -2   53.20    7.36
  14   4   2   53.71    8.44
  14  -4  -2   54.41    7.39
 -14  -4   2   69.10    8.56
  14   4   2   46.91    7.21
  14  -4   4   36.71    8.49
 -14   4   4   54.79    7.10
 -14   4   4   73.59    9.71
 -14  -4  -4   37.66    7.35
  14   4  -4   48.84    8.15
 -14  -4   4   68.89    9.78
  14   4   4   57.69    8.51
 -14   4  -4   37.71    7.16
  14  -4  -4   55.04    7.71
 -14  -4   4   66.24    9.32
 -14  -4   4   59.37    7.37
  14   4   4   40.36    8.81
  14  -4   6   -6.03    7.05
  14   4  -6    0.03    7.58
 -14  -4   6    8.60    9.12
  14   4   6    6.97    7.41
  14  -4  -6    2.49    6.90
  14   4   6   12.93    7.62
  14  -4   8    1.63    7.67
  14  -4   8   16.36   11.15
  14   4   8   11.99    7.62
 -14  -4   8    7.61    9.78
  14   4   8    0.20    7.16
  15   4  -1   -7.84    6.57
  15  -4   1   12.72    8.19
 -15  -4  -1   11.18    7.06
  15  -4   1    8.14    6.67
  15  -4   1   -1.49    8.05
 -15   4   1    9.80    6.37
  15   4  -1    3.14    7.43
 -15   4  -1   19.58    6.81
 -15  -4   1    2.36    6.75
  15  -4  -1    6.95    6.48
  15   4   1    1.40    7.35
  15   4   1    5.43    7.87
  15  -4  -1   11.66    7.04
 -15  -4   1   12.66    7.85
  15   4   1   -2.71    6.59
  15  -4   3    1.70    8.13
  15  -4   3    8.19    5.79
 -15  -4  -3   -4.93    7.24
 -15   4   3    2.37    6.46
  15   4  -3  -20.83    7.31
 -15   4  -3    4.05    6.94
  15   4   3   -3.96    8.27
 -15  -4   3   -2.46    8.53
  15   4   3   14.32    6.22
  15  -4  -3    1.72    7.12
  15   4   3   -3.59    7.66
 -15  -4   3   -4.15    6.87
  15   4  -5   -7.21    7.69
  15  -4   5    2.15    7.45
 -15   4   5    0.83    6.05
 -15  -4  -5   -6.86    6.48
 -15  -4   5   -5.59    6.36
  15   4   5   -3.90    7.84
 -15   4  -5   -0.93    6.18
  15  -4  -5   -5.19    6.97
 -15  -4   5   -5.96    8.57
  15   4   5   -5.78    7.25
  15  -4   7    2.73    7.67
  15   4  -7   -0.76    7.75
 -15  -4   7    3.44    9.65
  15   4   7   -3.29    7.65
  15   4   7    1.90    7.68
  15  -4  -7   -7.10    7.14
  16   4   0   24.24    7.12
  16   4   0   26.26    8.13
 -16  -4   0   28.16    7.36
 -16   4   0   30.82    7.12
  16  -4   0   20.58    6.86
  16  -4   0   32.44    8.46
  16  -4   2    4.74    8.38
 -16  -4  -2    7.93    7.43
  16  -4   2    5.57    6.93
  16   4  -2   -4.75    7.02
 -16   4   2    4.60    6.72
  16  -4   2    1.88    8.47
  16   4   2    0.73    7.60
  16   4   2    8.72    8.22
  16   4   2    0.94    6.99
 -16  -4   2    5.86    7.12
  16  -4  -2   -2.05    6.83
 -16  -4   2    4.10    8.34
 -16   4  -2    5.00    7.18
 -16   4   4   21.01    6.64
  16   4  -4   16.45    7.59
 -16  -4  -4   13.14    7.10
  16  -4   4   17.66    8.27
  16  -4  -4   18.80    7.18
 -16   4  -4    8.93    6.77
  16   4   4   19.31    7.79
 -16  -4   4   24.53    8.92
  16   4   4   20.61    8.21
 -16  -4   4   15.45    6.97
  16  -4   6    4.37    7.85
 -16   4   6   -1.59    5.55
  16   4  -6    4.12    7.98
 -16  -4   6  -15.74    6.05
  16   4   6    4.43    8.13
 -16  -4   6    9.91    9.76
  16  -4  -6    0.76    7.38
  16   4   6   10.10    8.02
  16   4  -8    2.64    8.33
  16  -4   8   10.11    7.83
  16  -4   8    7.75   11.13
  16  -4   8   -2.58    8.59
  16  -4  -8   -9.06    7.79
 -16  -4   8   32.50   11.79
  16   4   8   13.30    8.46
  16   4   8    3.64    8.14
 -17   4   1    9.21    6.83
 -17  -4  -1   -1.87    7.52
  17  -4   1   12.54    7.25
  17   4  -1  -12.20    7.03
  17  -4   1    9.31    8.71
  17   4   1   -5.41    8.43
 -17   4  -1   12.53    7.20
  17   4   1    5.77    7.26
  17  -4  -1    0.73    6.83
 -17  -4   1    0.12    7.40
  17   4  -3    1.57    7.47
 -17   4   3   16.62    6.78
  17  -4   3    4.94    8.81
 -17  -4  -3   -2.23    7.65
  17  -4   3   17.13    8.68
  17  -4   3   26.95    6.22
  17   4   3   -3.18    8.05
 -17  -4   3    7.65    7.19
  17  -4  -3   10.76    7.10
  17   4   3   18.67    6.67
 -17   4  -3   16.78    7.35
  17   4   3    6.38    8.52
  17  -4   5  -10.10    8.14
 -17  -4  -5   -6.02    6.99
  17  -4   5    0.04    9.59
  17   4  -5   -1.03    8.01
 -17   4   5   -3.74    6.54
 -17   4  -5   -5.61    6.65
 -17  -4   5    3.34    9.97
  17  -4  -5    1.36    7.40
  17   4   5    5.61    8.45
  17   4   5   -3.82    8.42
 -17  -4   5  -12.17    6.94
  17   4  -7   -1.06    8.30
  17  -4   7   -1.69    8.37
  17  -4   7   -4.18    9.40
  17   4   7    4.97    8.29
  17   4   7   -2.05    8.42
 -17  -4   7    9.41   11.01
  17  -4  -7    0.58    7.78
  18   4   0   10.05    7.18
  18  -4   0    9.78    7.21
 -18  -4   0   20.61    7.78
 -18   4   0   14.34    7.28
 -18  -4  -2   20.23    7.71
  18  -4   2    8.31    8.95
  18   4  -2    7.21    7.33
 -18   4   2    7.20    6.93
  18  -4   2    9.53    7.19
 -18  -4   2   17.78    7.43
 -18   4  -2   15.44    7.32
  18   4   2   -0.25    7.27
  18   4   2   11.62    8.71
  18  -4  -2    9.16    7.00
  18  -4   4    2.79    4.85
  18  -4   4    8.95    8.54
  18  -4   4   11.34    9.69
 -18  -4  -4    7.23    7.53
 -18   4   4    4.30    6.93
  18   4  -4    0.18    7.70
 -18   4  -4    3.72    7.14
 -18  -4   4   -1.84    7.23
  18   4   4   -5.54    4.93
  18   4   4    7.11    8.05
  18   4   4   12.02    8.46
  18  -4  -4    2.71    7.25
  18  -4   6   10.06    9.85
  18  -4   6   -1.44    8.25
 -18   4   6  -11.70    6.35
  18   4  -6    0.80    8.27
  18   4   6    8.59    8.40
  18  -4  -6    0.46    7.64
  18   4   6    7.04    8.80
  19   4  -1   -1.29    7.06
 -19  -4  -1    4.17    7.78
  19  -4   1    2.78    7.42
 -19   4   1    1.99    6.86
 -19   4  -1    4.85    7.36
  19   4   1   -2.90    7.23
  19  -4  -1    3.95    6.90
 -19  -4   1   -1.45    7.42
 -19   4   3   -0.39    6.80
 -19  -4  -3  -23.94    7.70
  19   4  -3   -8.12    7.59
  19  -4   3   -3.09    9.10
  19  -4   3    3.09    6.44
  19   4   3    1.64    6.99
  19  -4  -3   -3.60    6.99
 -19  -4   3   -5.95    7.28
  19   4   3  -15.23    8.79
 -19   4  -3  -11.20    7.26
 -19  -4  -5   -9.36    7.48
  19   4  -5    2.01    8.22
 -19   4   5   -8.21    6.93
  19  -4   5   -0.42    8.81
  19   4   5   -1.75    8.69
  19  -4  -5   -3.44    7.63
 -19   4  -5   -5.21    6.96
  19  -4   7   -6.54    9.18
  19   4  -7    3.20    8.92
  19  -4   7    4.17   10.32
  19  -4  -7   -9.49    8.00
  19   4   7    9.88    9.05
  20  -4   0   -0.17    7.33
 -20   4   0   -1.19    7.17
 -20  -4   0    5.23    7.84
  20   4   0   -2.84    7.11
  20   4  -2    1.10    7.36
 -20  -4  -2   -6.40    7.99
  20  -4   2   -1.55    7.38
 -20   4   2   -1.95    7.22
  20   4   2    0.27    7.46
  20  -4  -2    2.29    7.09
 -20  -4   2    3.37    7.53
 -20   4  -2   -1.47    7.40
  20   4  -4    1.27    8.00
  20  -4   4    2.41    9.25
 -20   4   4   -3.03    7.17
 -20  -4  -4   -4.92    7.75
  20  -4  -4   -5.72    7.35
 -20   4  -4  -11.30    7.18
  20   4   4   13.97    9.02
 -20  -4   4  -11.86    7.57
 -20   4   6  -11.44    7.12
  20   4  -6    4.97    9.01
  20  -4   6   -3.28    9.21
  20   4   6    9.32    8.91
  20  -4  -6   -2.59    8.11
  21   4  -1   12.54    7.30
 -21   4   1   15.55    7.23
 -21  -4  -1   17.55    8.38
  21  -4   1   17.91    7.89
 -21  -4   1    8.06    8.01
 -21   4  -1   11.68    7.71
  21  -4  -1    9.21    7.01
  21   4   1   15.07    7.74
 -21  -4  -3   -3.46    8.41
  21   4  -3    4.44    7.87
  21  -4   3   -2.12    6.89
 -21   4   3    4.29    7.15
 -21  -4   3    9.63    7.70
 -21   4  -3   -3.10    7.70
  21  -4  -3    3.65    7.42
  21   4   3    1.10    7.57
 -21  -4  -5  -18.05    7.88
 -21   4   5  -12.52    7.46
  21   4  -5   -7.38    8.57
  21  -4   5    1.48    9.43
  21  -4  -5    4.08    8.03
 -21  -4   5  -23.19    7.73
  21   4   5   -5.30    9.04
 -21   4  -5  -13.41    7.22
  22   4   0   -7.20    7.47
 -22   4   0   -5.25    7.46
 -22  -4   0   -5.85    8.10
  22  -4   0   -5.19    7.49
  22   4  -2   -2.19    7.39
 -22   4   2   -1.84    7.44
  22  -4   2   -8.59    7.74
 -22  -4  -2  -16.54    8.32
 -22  -4   2   -8.83    7.80
 -22   4  -2  -13.17    7.75
  22  -4  -2    0.91    7.23
  22   4   2   -4.99    8.29
 -22   4   4  -13.82    7.46
  22   4  -4   -2.77    8.29
 -22  -4  -4  -19.50    8.33
  22  -4  -4   -6.78    7.74
 -22   4  -4  -12.76    7.47
 -22  -4   4  -21.66    8.12
  22  -4   6   -2.61   10.02
  22   4   6   12.38    9.64
  23  -4   1    7.07    8.22
  23   4  -1    6.79    7.84
 -23   4   1   14.86    7.55
 -23  -4  -1    5.84    8.87
  23   4   1    2.22    8.08
  23  -4  -1    6.39    7.56
 -23   4  -1   11.42    7.92
 -23  -4   1    7.58    8.40
  23   4  -3    1.85    7.82
 -23  -4  -3   -8.43    8.83
  23  -4   3   -0.91    7.27
 -23   4   3   -4.75    7.61
  23   4   3   -7.34    7.89
 -23   4  -3    4.54    8.00
  23  -4  -3    8.51    7.55
 -23  -4   3   -1.19    8.00
  23   4  -5    4.37    9.31
 -23   4   5  -10.06    8.08
  23  -4  -5    2.45    8.53
 -23   4  -5  -16.06    7.75
  24   4   0  -18.21    7.79
 -24  -4   0  -18.58    8.67
  24  -4   0   -9.81    7.85
 -24   4   0  -12.40    7.84
  24   4  -2   -5.34    7.72
  24  -4   2  -17.96    7.90
 -24  -4  -2  -25.48    9.05
 -24   4   2  -15.28    7.58
  24  -4  -2   -2.87    7.37
  24   4   2  -24.21    8.52
 -24   4  -2   -9.70    8.19
 -24  -4   2  -18.17    8.20
 -24  -4  -4  -28.56    9.02
 -24   4   4   -9.83    8.14
  24   4  -4   -7.72    8.63
 -24   4  -4  -17.34    8.24
  24  -4  -4   -3.67    8.18
 -24  -4   4  -25.97    8.87
 -25  -4  -1   -3.08    9.32
  25  -4   1    5.03    8.85
 -25   4   1   10.85    8.08
  25   4  -1    0.13    8.09
  25   4   1   -0.31    8.48
  25  -4  -1    3.12    8.06
 -25  -4   1   -8.11    8.56
 -25   4  -1   -6.16    8.23
 -25  -4  -3   -9.96    9.52
  25   4  -3    4.79    8.67
 -25   4   3   -5.94    8.23
  25  -4   3   -9.74    7.94
  25  -4  -3    2.43    8.06
 -25  -4   3  -20.02    8.65
  25   4   3  -22.43    8.40
 -25   4  -3   -7.33    8.68
  26  -4   0   -7.33    8.70
 -26  -4   0  -16.75    9.09
  26   4   0   -6.82    8.55
 -26   4   0   -6.92    8.28
 -26  -4  -2  -22.38    9.62
 -26   4   2  -17.09    8.38
  26  -4   2  -19.65    8.53
  26   4  -2  -11.90    8.22
  26  -4  -2   -9.11    8.26
 -26  -4   2  -16.22    8.88
 -26   4  -2  -22.38    8.86
   0   5  -1  302.99   15.34
   0   5   1  319.44   15.26
   0  -5  -1  314.70   15.21
   0  -5   1  314.16   15.32
   0  -5   1  324.67   15.18
   0   5   1  309.67   19.01
   0  -5   1  315.22   18.99
   0   5   1  311.51   19.08
   0   5   3   25.78    3.66
   0  -5   3   39.06    3.96
   0  -5   3   49.35    5.29
   0   5   9    2.47    5.30
  -1   5   0  469.38   22.15
   1  -5   0  487.95   27.61
  -1  -5   0  468.41   27.63
   1   5   0  476.13   27.63
  -1  -5   0  458.13   22.05
  -1   5   0  458.53   27.57
  -1   5   0  473.80   27.62
   1   5   0  466.94   27.61
   1  -5   0  427.48   21.96
   1  -5   0  428.95   22.04
   1  -5   0  466.05   27.62
  -1  -5   0  473.46   27.58
   1   5   0  468.08   22.10
   1  -5   2  396.83   24.21
   1  -5   2  393.56   24.14
   1   5   2  395.31   24.18
  -1   5  -2  414.15   19.46
   1   5   2  402.28   24.14
  -1   5   4  135.01    9.63
   1  -5   4  139.12    9.56
  -1   5   8   13.38    5.46
  -1   5  10   -1.40    6.05
  -2   5   1  552.06   31.24
   2  -5   1  692.25   31.27
   2  -5   1  704.11   39.06
   2  -5   1  705.76   39.04
  -2  -5  -1  680.72   31.18
   2  -5   1  688.39   31.16
   2   5   1  691.72   39.03
   2   5   1  610.28   31.12
  -2  -5   1  537.34   31.17
   2   5   1  677.27   38.99
  -2   5  -1  682.35   31.21
   2   5  -3   50.40    4.19
   2  -5   3   46.68    5.75
  -2   5   3   62.90    6.73
  -2  -5   3   51.90    6.55
   2  -5  -3   52.54    5.11
  -2  -5   3   47.58    5.69
  -2   5   5   11.98    4.59
   2  -5   5   30.10    6.98
  -2   5   5   16.20    5.23
  -2  -5   5   10.34    5.05
  -2  -5   5   11.76    4.18
  -2   5   7    3.59    5.61
  -2  -5   7    3.44    4.81
  -2  -5   7    2.30    5.96
  -2   5   9    2.74    6.21
  -2  -5   9    1.41    6.19
  -2  -5   9   11.51    5.32
  -3   5   0  201.84   12.57
  -3  -5   0  197.79   12.60
   3   5   0  180.05   10.28
   3  -5   0  205.39   12.62
  -3   5   0  188.83   10.33
   3  -5   0  205.86   12.66
   3  -5   0  190.44   10.08
   3   5   0  201.80   12.53
   3   5   0  201.23   12.59
  -3  -5   0  192.22   10.23
   3  -5   2  157.53   10.54
   3  -5   2  148.59   10.71
   3  -5   2  175.92   10.34
   3  -5  -2  137.35    9.27
  -3   5  -2  175.59    8.87
  -3  -5   2  123.27   11.12
  -3  -5   2  141.31    9.11
   3   5   2  167.21   10.49
   3   5  -4  209.93   12.09
   3  -5   4  260.91   12.99
  -3   5   4  194.12   14.85
  -3  -5   4  247.14   14.53
  -3  -5   4  181.71   14.83
   3  -5  -4  238.25   11.80
   3  -5   6   51.61    8.34
  -3   5   6   52.81    6.90
   3   5  -6   51.60    5.12
  -3  -5   6   40.99    6.09
  -3  -5   6   36.34    7.11
  -3   5   8   20.67    6.37
  -3  -5   8    3.26    5.44
  -3  -5   8    2.74    6.61
  -3   5  10   -0.65    6.42
  -3  -5  10    8.51    6.35
  -3  -5  10    4.58    7.15
   4  -5   1   29.37    4.58
   4  -5   1   25.27    3.98
   4   5  -1   15.42    3.82
  -4   5   1   19.62    4.59
   4  -5   1   26.56    3.33
  -4   5   1   25.61    3.79
  -4  -5  -1   20.78    3.60
   4  -5  -1   22.18    3.61
   4   5   1   23.89    4.59
   4   5   1   27.92    4.09
  -4  -5   1   19.45    4.29
  -4  -5   1   21.06    4.75
  -4   5  -1   26.80    3.51
  -4  -5   1   19.17    3.37
  -4   5   3   48.21    4.88
   4   5  -3   42.85    4.36
   4  -5   3   40.39    5.21
  -4  -5  -3   47.79    4.98
   4  -5   3   59.00    7.25
  -4   5   3   53.69    5.83
   4   5   3   47.41    5.43
  -4  -5   3   40.55    4.56
  -4  -5   3   41.75    6.37
  -4  -5   3   41.25    5.73
   4  -5  -3   45.81    5.78
  -4   5  -3   47.85    4.94
   4   5  -5   41.76    5.10
  -4   5   5   47.98    6.91
   4  -5   5   59.86    7.86
  -4  -5   5   36.69    7.18
   4  -5  -5   28.37    4.69
  -4  -5   5   38.30    5.85
   4  -5   7    9.10    7.62
  -4   5   7    8.13    6.52
  -4  -5   7   10.29    5.63
  -4  -5   7   13.54    7.38
  -4   5   9    1.19    6.36
  -4  -5   9    0.14    7.11
  -4  -5   9    3.05    5.93
   5  -5   0  182.08   12.82
  -5  -5   0  174.73   10.74
  -5   5   0  181.30   10.91
  -5  -5   0  178.13   12.47
  -5   5   0  188.38   12.64
   5   5   0  173.13   12.43
   5   5   0  177.18   12.93
   5  -5   0  179.27   10.54
  -5   5   2  258.71   13.47
   5   5  -2  260.34   13.93
  -5   5   2  253.11   17.05
   5  -5   2  257.37   12.94
   5  -5   2  253.22   16.39
  -5  -5  -2  273.27   13.73
   5   5   2  242.32   16.33
  -5  -5   2  251.26   16.51
  -5  -5   2  257.25   16.93
   5  -5  -2  250.37   13.74
  -5  -5   2  263.55   13.59
   5   5   2  251.49   13.07
   5   5   2  242.21   16.50
  -5   5  -2  251.55   13.35
   5  -5   4  174.49   11.58
   5   5  -4  170.53   11.01
  -5   5   4  166.52   13.56
   5  -5   4  190.64   11.74
  -5  -5   4  182.05   12.95
  -5  -5   4  166.28   13.65
   5   5   4  182.06   11.71
   5  -5  -4  174.37   10.54
   5   5  -6   52.28    6.13
  -5   5   6   68.69    8.23
   5  -5   6   64.52    9.08
  -5  -5   6   45.39    8.78
  -5  -5   6   52.05    7.27
   5  -5   8    8.02    8.03
  -5   5   8   16.77    6.76
  -5  -5   8   10.50    6.03
  -5  -5   8   11.33    7.47
  -5   5  10    7.70    8.01
  -5  -5  10   13.06    6.75
  -5  -5  10   -3.77    7.67
  -6   5   1   16.93    4.09
  -6  -5  -1   12.25    4.10
   6  -5   1   11.45    4.64
  -6   5   1    7.66    4.74
   6  -5   1   14.24    5.06
   6  -5   1   10.75    3.85
   6   5   1   15.87    4.60
  -6   5  -1   15.91    4.00
   6   5   1    5.43    5.00
  -6  -5   1   13.91    4.04
   6  -5  -1    7.69    4.11
   6   5   1    5.75    3.84
  -6  -5   1    8.55    4.97
  -6  -5   1    6.18    4.70
   6   5  -3  115.21    9.25
  -6  -5  -3  143.13    8.45
   6  -5   3  102.75    9.73
   6  -5   3  136.30    9.48
  -6   5   3  112.99    8.09
   6   5   3  137.64    9.56
  -6  -5   3  114.62    8.31
   6  -5  -3  116.05    8.82
  -6   5  -3  125.08    8.19
  -6  -5   3  122.02   10.18
  -6  -5   3  116.27   10.74
  -6   5   5   24.02    7.06
   6   5  -5   16.21    5.36
   6  -5   5   11.88    7.86
   6  -5   5   -4.65    5.68
   6  -5   5    7.39    4.33
  -6  -5   5   15.31    7.28
   6  -5  -5   12.79    5.01
   6   5   5   13.41    4.58
  -6  -5   5   21.14    6.18
  -6   5   7    9.68    6.84
   6  -5   7   13.92    7.99
   6   5   7    9.23    6.54
  -6  -5   7    6.23    6.19
  -6  -5   7    5.49    7.40
  -6   5   9    1.12    7.40
  -6  -5   9    7.86    6.69
  -6  -5   9   -8.46    7.52
   7   5   0   64.41    8.90
  -7   5   0   86.14    7.86
   7   5   0   72.51    9.18
  -7   5   0   76.51    8.00
   7  -5   0   64.59    8.19
   7  -5   0   80.54    8.18
  -7  -5   0   82.01    8.08
   7   5   0   65.01    8.30
  -7  -5   0   76.01    9.15
  -7   5   2  339.07   21.01
  -7   5   2  329.77   16.89
   7  -5   2  318.20   20.56
   7  -5   2  318.62   16.44
  -7  -5  -2  337.46   16.89
  -7  -5   2  320.62   20.86
  -7  -5   2  330.13   20.92
   7   5   2  329.96   20.72
   7   5   2  314.80   20.55
  -7   5  -2  311.13   16.72
   7  -5  -2  340.07   16.86
   7   5   2  317.15   16.61
  -7  -5   2  341.57   16.91
  -7   5   4  105.31   11.22
  -7   5   4  117.60    7.50
   7  -5   4  104.75    9.12
   7   5  -4  123.89    9.43
  -7  -5   4  115.77   10.76
  -7  -5   4  102.42   11.15
   7  -5  -4  109.95    9.20
  -7  -5   4   87.65    7.58
  -7   5  -4  112.07    8.12
   7   5   4  104.66    9.31
   7  -5   6   60.59    9.77
  -7   5   6   44.63    7.97
   7  -5   6   21.70    5.15
   7  -5   6   20.99    7.17
  -7  -5   6   37.13    7.34
  -7  -5   6   39.57    8.44
   7   5   6   29.50    5.51
   7  -5  -6   31.26    5.81
  -7   5   8   25.34    7.14
   7  -5   8    5.09    8.52
  -7  -5   8   10.51    8.01
  -7  -5   8    9.20    6.79
  -8  -5  -1   17.09    4.09
   8  -5   1   21.04    3.97
  -8   5   1   18.95    4.98
   8  -5   1   30.58    5.10
  -8   5   1   16.88    4.17
   8   5   1   23.10    4.98
   8  -5  -1   10.29    4.16
   8   5   1   23.91    4.80
  -8  -5   1   15.45    5.11
  -8  -5   1   18.90    4.78
   8   5   1   20.06    4.06
  -8  -5   1   13.18    4.11
  -8   5  -1   24.55    4.09
  -8  -5  -3   42.78    4.77
  -8   5   3   16.89    6.14
   8  -5   3   55.07    7.59
  -8   5   3   30.25    4.48
  -8  -5   3   29.37    6.38
   8   5   3   52.85    7.92
  -8  -5   3   33.84    5.88
   8  -5  -3   34.46    4.93
  -8  -5   3   29.03    4.74
  -8   5  -3   59.93    6.74
   8  -5   5   21.77    5.51
   8  -5   5   11.59    7.20
  -8   5  -5   21.58    4.48
   8   5   5   30.62    5.74
  -8  -5   5   40.38    7.30
  -8  -5   5   40.33    8.26
   8  -5  -5   33.89    5.94
   8  -5   7   12.82    8.56
  -8   5   7   11.84    7.10
   8  -5   7   -0.04    4.93
   8  -5   7    0.70    6.88
  -8  -5   7   10.33    6.68
   8   5   7    0.25    6.04
   8  -5  -7   -2.31    5.37
  -8  -5   7    0.44    7.86
   8   5   7    9.98    5.19
  -8   5   9    0.23    8.18
  -8  -5   9   11.62    6.89
  -8  -5   9   -5.82    7.98
   9   5   0  210.77   15.22
   9   5   0  226.08   12.78
  -9   5   0  209.67   12.70
  -9  -5   0  223.37   12.86
   9  -5   0  219.73   14.93
   9   5   0  216.58   15.51
   9  -5   0  225.00   12.80
  -9  -5  -2  179.60   11.14
  -9   5   2  163.84   10.70
   9  -5   2  178.85   12.79
  -9   5   2  153.80   13.44
   9  -5   2  170.64   10.39
  -9  -5   2  159.47   13.18
   9   5   2  177.28   12.75
  -9  -5   2  165.69   11.18
   9   5   2  165.46   12.49
   9  -5  -2  155.79   11.26
  -9   5  -2  173.42   10.99
  -9  -5   2  155.66   12.93
   9   5   2  176.03   10.68
   9  -5   4   39.20    6.27
  -9  -5  -4   39.43    5.60
   9  -5   4   32.31    7.38
  -9   5   4   61.54    7.21
  -9   5   4   58.63    8.04
   9   5   4   32.74    7.67
   9  -5  -4   45.54    6.17
  -9  -5   4   45.42    8.19
   9   5   4   57.83    8.47
  -9  -5   4   37.69    5.42
  -9   5  -4   38.07    5.25
  -9  -5   4   49.01    7.40
   9  -5   6   10.60    5.75
   9  -5   6   38.53   10.09
   9  -5   6    5.83    7.58
  -9   5   6   50.23    8.13
   9  -5  -6   17.67    6.06
  -9  -5   6   42.08    7.70
   9   5   6   25.68    6.19
   9   5   6    4.83    6.71
  -9  -5   6   52.17    8.86
   9  -5   8   -8.64    6.83
   9  -5   8    8.64    8.98
   9  -5   8   -3.37    5.70
  -9   5   8   22.28    7.94
  -9  -5   8    9.51    7.33
   9   5   8    5.49    6.16
   9   5   8    3.41    5.49
  -9  -5   8    6.41    8.17
 -10   5   1   32.43    4.94
 -10  -5  -1   27.88    5.05
  10  -5   1   23.54    4.91
  10   5  -1   23.35    5.08
  10  -5   1   30.10    5.82
 -10  -5   1   32.67    6.12
  10   5   1   30.67    5.74
 -10   5  -1   28.70    4.91
 -10  -5   1   29.46    5.04
  10   5   1   33.98    5.59
  10   5   1   20.85    4.84
  10  -5  -1   31.88    4.93
  10  -5   3   29.28    4.01
 -10  -5  -3   25.25    5.32
  10  -5   3   30.57    6.20
 -10   5   3   11.21    7.26
 -10   5   3   16.79    5.11
 -10  -5   3   10.43    7.05
  10   5   3   27.22    6.85
 -10  -5   3   13.54    5.43
 -10  -5   3   11.95    6.39
  10  -5  -3   16.93    5.51
  10   5   3   33.89    6.04
  10   5   3   26.14    4.24
 -10   5  -3   30.77    5.15
 -10  -5  -5    9.86    5.48
  10  -5   5   12.11    6.27
 -10   5   5   31.27    8.56
  10  -5   5    8.65    7.75
 -10   5   5   21.12    4.55
 -10  -5   5   20.97    7.55
 -10  -5   5   26.79    8.48
 -10  -5   5    5.63    4.68
  10  -5  -5   14.04    6.32
  10   5   5    4.05    7.75
  10   5   5   22.71    6.40
 -10   5  -5   10.22    5.13
  10  -5   7   14.42    9.21
 -10   5   7    4.14    8.40
  10  -5   7   -4.88    5.85
  10   5  -7   -0.08    7.05
  10   5   7   -0.07    7.18
 -10  -5   7    6.00    8.28
 -10  -5   7    5.52    7.24
  10  -5  -7   -2.55    5.96
  10   5   7   -2.44    5.76
  10  -5   9    3.99    6.15
 -10   5   9    8.62    8.72
 -10  -5   9   10.60    7.93
  10   5   9    3.31    5.85
  10   5   9    8.31    6.18
 -10  -5   9    0.21    8.81
  11  -5   0  119.01   11.39
 -11   5   0  124.91   10.07
 -11  -5   0  129.96   10.63
  11   5   0  124.17   11.58
  11  -5   0  120.17   10.40
  11   5   0  112.34   10.24
  11   5   0  121.51   11.59
  11  -5   2   91.10    9.94
 -11  -5  -2   74.24    9.32
 -11   5   2   84.40    9.18
  11  -5   2   87.22    8.66
 -11   5   2   72.67   10.11
  11   5  -2   86.41    9.90
 -11  -5   2   82.78   10.84
 -11  -5   2   81.71    9.70
  11   5   2   87.64    9.14
  11   5   2   81.50    9.86
 -11   5  -2   72.85    9.12
  11   5   2   80.61   10.05
 -11  -5   2   85.53    9.69
  11  -5  -2   76.26    9.65
  11  -5   4   34.49    7.30
 -11  -5  -4   41.67    6.20
  11   5  -4   46.40    7.79
 -11   5   4   58.09    8.94
 -11   5   4   44.59    5.86
  11  -5  -4   43.30    6.74
 -11  -5   4   49.75    8.17
  11   5   4   33.93    8.17
 -11  -5   4   57.53    8.95
 -11   5  -4   33.76    6.02
 -11  -5   4   47.55    6.27
  11   5   4   41.05    7.25
 -11   5   6   56.58    9.04
  11   5  -6   42.69    7.82
  11   5   6   21.55    7.92
 -11  -5   6   48.12    7.99
 -11  -5   6   55.03    9.11
  11   5   6   29.53    6.84
  11  -5  -6   30.65    6.53
  11  -5   8    0.78    9.48
  11  -5   8   -0.82    6.59
 -11   5   8   18.65    8.03
 -11  -5   8    9.46    8.98
  11   5   8    3.82    5.93
  11   5   8    7.64    7.24
 -11  -5   8   16.83    7.38
  12  -5   1   28.61    5.63
  12   5  -1   18.01    5.55
 -12   5   1   24.44    5.39
  12  -5   1   27.83    6.91
 -12  -5  -1   28.42    5.95
  12   5  -1   27.83    6.28
  12   5   1   30.07    6.54
  12  -5  -1   19.63    5.56
  12   5   1   27.94    6.36
 -12  -5   1   27.71    6.91
  12   5   1   25.25    5.61
 -12   5  -1   25.36    5.58
  12  -5  -1   23.09    6.45
 -12  -5   1   20.04    5.69
  12  -5   3   21.85    4.84
  12  -5   3   15.96    7.08
  12   5  -3   -4.12    6.82
 -12   5   3    9.18    5.70
 -12   5   3    8.61    7.60
 -12  -5  -3   12.28    6.18
  12   5   3   15.16    6.81
  12  -5  -3    7.13    6.29
  12   5   3    9.65    7.48
  12   5   3    9.63    5.19
 -12  -5   3    9.38    7.08
 -12  -5   3    1.54    6.19
 -12   5  -3   12.24    5.96
 -12  -5   3    1.82    7.98
 -12   5   5   28.02    8.81
  12  -5   5    7.00    7.08
 -12   5   5   18.47    5.40
 -12  -5  -5   10.11    5.94
  12   5  -5   19.18    7.87
  12  -5  -5   16.58    6.81
  12   5   5    5.03    7.90
 -12   5  -5   12.38    5.78
 -12  -5   5   21.05    8.84
 -12  -5   5   17.98    8.04
 -12  -5   5    8.41    5.67
  12   5   5   22.30    7.12
  12  -5   7    9.13    9.79
 -12   5   7    2.91    8.61
  12   5  -7   -2.44    7.26
  12  -5   7    0.26    6.81
  12   5   7   -0.11    7.25
 -12  -5   7   -5.20    9.06
  12  -5  -7   -3.30    6.52
  12   5   7   -0.16    6.36
 -12  -5   7    8.28    7.92
 -12   5   9    8.48    8.47
  12  -5   9    1.42    7.08
  12   5   9    4.92    7.29
 -12  -5   9   -0.35    9.77
 -12  -5   9   13.77    8.08
  12   5   9   -0.21    6.68
  13  -5   0   23.62    6.93
 -13  -5   0   25.48    6.14
  13   5   0   21.54    6.01
  13  -5   0   22.49    5.96
  13   5   0   29.94    6.89
 -13   5   0   26.02    5.92
  13  -5   2   57.83    6.43
 -13  -5  -2   59.64    7.23
 -13   5   2   57.73    6.78
 -13   5   2   57.44    8.41
  13  -5   2   61.41    8.70
  13   5  -2   43.94    7.22
  13   5   2   60.22    8.44
 -13  -5   2   59.56    8.10
  13  -5  -2   56.32    6.96
  13   5   2   56.48    6.97
 -13  -5   2   58.56    7.17
 -13  -5   2   63.17    8.66
 -13   5  -2   57.68    7.06
  13   5   2   65.01    8.00
 -13  -5  -4   37.90    6.80
 -13   5   4   47.10    6.60
  13  -5   4   32.34    7.99
  13   5  -4   44.45    8.14
 -13   5   4   56.35    9.43
 -13  -5   4   50.57    6.96
 -13  -5   4   56.97    9.38
 -13  -5   4   53.22    8.71
  13   5   4   32.00    8.49
 -13   5  -4   38.58    6.77
  13   5   4   46.81    7.98
  13  -5  -4   43.58    7.38
 -13   5   6   30.19    8.78
  13  -5   6   -1.32    6.98
  13   5  -6   19.92    7.60
  13   5   6   22.82    6.95
  13  -5  -6   17.21    6.79
  13   5   6   15.79    7.64
 -13  -5   6   23.52    7.93
 -13  -5   6   27.94    8.71
  13  -5   8   -4.26    7.48
  13  -5   8    8.14   10.11
  13   5   8    6.41    6.92
  13   5   8   14.13    7.41
 -13  -5   8   10.62    9.39
  14   5  -1   37.50    7.50
 -14   5   1   39.34    6.42
  14   5  -1   23.15    6.77
  14  -5   1   34.35    6.72
  14  -5   1   38.65    8.24
  14  -5   1   23.92    8.09
 -14  -5  -1   34.05    7.15
  14   5   1   24.07    7.44
  14  -5  -1   36.48    7.48
  14   5   1   25.98    6.69
 -14   5  -1   38.74    6.72
 -14  -5   1   29.28    6.80
 -14  -5   1   35.31    8.11
  14  -5  -1   26.18    6.58
  14   5   1   34.41    7.89
  14  -5   3   20.68    5.56
  14  -5   3   19.94    8.06
  14   5  -3   -4.47    7.15
 -14   5   3   13.76    8.25
 -14  -5  -3    5.96    6.89
 -14   5   3   14.24    6.30
 -14  -5   3    9.87    7.72
  14   5   3    5.57    7.97
 -14  -5   3    7.92    8.47
 -14  -5   3    3.68    6.83
 -14   5  -3   14.83    6.66
  14   5   3    9.12    7.49
  14   5   3   11.56    6.10
  14  -5  -3    8.32    6.90
  14  -5   5    6.25    7.47
 -14   5   5   -0.25    5.65
 -14  -5  -5    1.48    6.21
 -14   5   5    5.33    8.65
  14   5  -5    0.97    7.61
 -14   5  -5   -1.09    6.00
 -14  -5   5   -0.51    8.47
  14  -5  -5   -1.61    6.82
  14   5   5   -0.13    7.14
 -14  -5   5   -4.87    6.24
 -14  -5   5   11.26    7.97
  14   5   5   -0.78    7.73
  14  -5   7   -2.67    7.42
  14   5  -7   10.59    7.68
  14  -5   7   14.96   10.89
  14   5   7    2.77    7.57
  14   5   7   -3.23    7.23
 -14  -5   7    3.20    9.33
  14  -5  -7  -10.71    7.03
  15  -5   0   16.98    6.87
 -15  -5   0   24.96    7.21
  15   5   0   23.02    7.64
  15   5   0   11.54    6.83
 -15   5   0   25.98    6.77
  15  -5   0   18.05    7.94
  15  -5   2   25.36    6.40
 -15   5   2   20.34    6.72
  15  -5   2   24.97    8.80
 -15  -5  -2   20.91    7.40
  15   5  -2   10.12    7.17
 -15   5  -2   24.97    7.06
  15   5   2   20.27    7.71
  15   5   2   31.12    8.36
  15   5   2   23.32    6.87
 -15  -5   2   23.46    7.24
 -15  -5   2   21.49    8.53
  15  -5  -2   15.02    6.86
 -15   5   4  103.23   10.60
  15  -5   4   64.46   10.10
 -15  -5  -4   93.64   10.90
  15   5  -4  106.75   11.85
 -15   5  -4   69.89    8.17
 -15  -5   4  108.59   12.76
  15   5   4   90.21   12.07
  15  -5  -4   96.21   11.40
 -15  -5   4  116.55   11.28
  15   5   4   86.83   11.73
 -15   5   6   13.26    5.63
  15   5  -6   20.34    8.00
  15  -5   6    3.12    7.74
  15   5   6   23.37    8.23
  15  -5  -6   13.28    7.30
  15   5   6   22.14    7.43
 -15  -5   6   30.63    9.12
  15  -5   8   -2.94    8.19
  15  -5   8   15.29   10.80
 -15  -5   8   10.88   10.42
  15   5   8    8.61    8.06
  15   5   8    0.74    7.82
  16   5  -1    2.08    6.90
 -16  -5  -1   10.67    7.50
  16  -5   1   17.30    7.19
 -16   5   1    8.05    6.57
  16  -5   1   12.18    8.56
  16  -5   1   12.50    8.43
  16   5   1    2.67    7.75
  16  -5  -1    9.63    6.68
  16   5   1   12.32    8.34
 -16  -5   1    9.73    7.29
  16   5   1    6.71    6.92
 -16   5  -1   19.51    7.16
  16   5  -3   11.10    7.82
  16  -5   3   30.41    9.09
 -16  -5  -3   18.25    7.79
  16  -5   3   36.87    6.50
 -16   5   3   23.92    6.89
  16   5   3   29.90    6.89
  16   5   3   16.81    8.86
 -16   5  -3   25.78    7.35
  16  -5  -3   13.21    7.16
  16   5   3   16.56    8.26
 -16  -5   3    9.82    7.34
 -16  -5   3   29.02    9.27
  16   5  -5   -4.39    7.96
 -16  -5  -5  -11.49    6.81
  16  -5   5    3.09    7.92
 -16   5   5    1.72    6.32
  16  -5  -5   -3.47    7.21
 -16   5  -5   -4.93    6.40
  16   5   5   -8.25    7.95
 -16  -5   5   -6.49    6.78
  16   5   5   -0.45    8.04
 -16  -5   5   -0.11    9.31
  16   5  -7    9.31    8.11
  16  -5   7   -5.52    8.09
  16   5   7    4.61    8.09
 -16  -5   7   -0.15   10.12
  16   5   7    2.08    8.02
  16  -5  -7   -4.35    7.36
 -17   5   0   19.47    7.13
  17  -5   0   21.18    7.40
  17   5   0   10.46    7.22
 -17  -5   0   27.49    7.77
 -17  -5  -2   20.38    7.87
  17  -5   2   12.09    7.03
 -17   5   2   15.13    6.98
  17  -5   2   19.23    9.18
  17   5  -2    5.97    7.34
 -17   5  -2   16.87    7.34
  17   5   2   13.05    7.38
 -17  -5   2   16.09    7.47
  17  -5  -2    7.87    7.17
  17   5   2   16.83    8.83
 -17   5   4   20.61    6.77
  17  -5   4   18.32    8.41
 -17  -5  -4   21.71    7.46
  17   5  -4   15.97    7.93
  17  -5  -4   24.93    7.25
  17   5   4    9.38    4.67
  17   5   4   27.21    8.66
 -17   5  -4    6.51    6.87
 -17  -5   4   18.58    7.13
  17   5   4   27.84    8.18
 -17   5   6   -0.33    6.07
  17   5  -6    2.13    8.27
  17  -5   6   -2.93    8.31
 -17  -5   6  -16.38    6.64
 -17  -5   6   14.65    9.15
  17   5   6   16.79    8.46
  17  -5  -6    0.82    7.39
  17   5   6   10.54    8.29
  17  -5   8   -1.39    9.70
  17   5   8   -2.58    8.71
 -18  -5  -1   17.45    7.91
  18  -5   1   16.73    7.52
  18   5  -1    3.64    7.30
  18  -5   1   11.44    8.83
 -18   5   1   16.05    6.94
  18  -5  -1   15.96    6.98
  18   5   1    8.12    7.40
 -18   5  -1   28.00    7.41
  18   5   1    7.54    8.72
 -18  -5   1   18.51    7.70
  18   5  -3  -14.90    7.45
 -18  -5  -3   -5.53    7.72
  18  -5   3   10.35    6.32
 -18   5   3    3.94    6.63
  18  -5   3    0.74    8.84
  18   5   3    4.97    6.85
  18   5   3   -5.29    8.64
  18  -5  -3   -4.32    6.94
 -18   5  -3   -8.47    7.16
 -18  -5   3   -5.74    7.16
  18   5  -5   -0.45    8.22
 -18   5   5    1.00    6.73
  18  -5   5    9.73   10.03
 -18  -5  -5   -3.29    7.22
  18  -5   5    1.92    8.70
  18   5   5    5.69    8.71
  18   5   5   -1.84    8.73
 -18   5  -5   -3.11    6.76
 -18  -5   5   -7.30    7.32
  18  -5  -5    6.21    7.49
  18  -5   7   -1.15   10.30
  18   5  -7   -0.79    8.61
  18  -5   7    4.56    8.77
  18   5   7    3.69    8.84
  18   5   7    1.33    8.59
  18  -5  -7   -4.98    8.03
 -19  -5   0   -1.62    7.58
  19   5   0    1.26    6.96
 -19   5   0   -2.03    7.09
  19  -5   0   -4.07    7.19
  19   5  -2    6.61    7.28
 -19   5   2    6.58    7.08
 -19  -5  -2    5.00    7.80
  19  -5   2    9.01    7.03
  19  -5   2   11.99    8.98
  19   5   2   12.65    7.42
  19  -5  -2    9.40    6.93
 -19  -5   2   10.68    7.51
 -19   5  -2    6.16    7.30
  19   5   2   21.69    8.83
  19  -5   4   -4.64    8.90
 -19   5   4    0.03    7.03
  19  -5   4   -2.75    5.01
  19   5  -4    2.79    7.93
 -19  -5  -4   -4.69    7.76
  19   5   4   -8.48    5.10
  19   5   4    8.30    8.84
 -19   5  -4   -8.57    7.03
  19  -5  -4   11.62    7.48
 -19  -5   4   -1.32    7.47
 -19   5   6  -10.58    6.72
  19  -5   6   -1.19    8.82
  19   5  -6    0.63    8.60
  19   5   6   12.68    8.84
  19  -5  -6   -5.86    7.75
 -20   5   1   10.80    7.09
  20   5  -1    7.43    7.23
  20  -5   1   11.95    7.69
 -20  -5  -1    3.06    7.98
  20   5   1    9.56    7.49
 -20  -5   1    7.12    7.79
  20  -5  -1    8.12    6.96
 -20   5  -1    7.37    7.39
 -20   5   3    6.18    7.00
  20  -5   3    2.90    6.71
  20   5  -3    5.55    7.75
 -20  -5  -3   -5.02    8.11
  20  -5   3    3.69    9.33
 -20   5  -3    0.63    7.40
 -20  -5   3   -3.51    7.60
  20   5   3    3.59    7.29
  20   5   3   -5.55    9.12
  20  -5  -3    1.47    7.20
 -20  -5  -5  -13.36    7.74
  20   5  -5   -4.85    8.61
  20  -5   5    4.64    9.13
 -20   5   5   -7.93    7.17
  20  -5  -5    1.05    7.76
 -20  -5   5  -22.77    7.64
  20   5   5    8.22    8.99
 -20   5  -5   -3.35    6.98
 -21   5   0  -11.68    7.18
 -21  -5   0    0.03    8.11
  21   5   0   -0.45    7.40
  21  -5   0   -0.07    7.34
  21  -5   2   -6.33    7.36
 -21   5   2   -5.59    7.07
 -21  -5  -2   -6.11    8.35
  21   5  -2   -2.52    7.40
 -21   5  -2   -4.40    7.61
  21  -5  -2   -4.02    7.01
 -21  -5   2    0.95    7.70
  21   5   2  -13.04    7.76
  21  -5   4   -7.96    9.26
 -21  -5  -4  -10.51    8.02
  21   5  -4   -0.31    8.39
 -21   5   4   -7.06    7.27
  21  -5  -4   -4.63    7.58
 -21  -5   4  -19.75    7.69
 -21   5  -4  -12.13    7.31
  21   5   4    7.24    9.22
 -21   5   6  -19.06    7.52
  21  -5   6    2.78    9.54
  21   5  -6   -5.81    9.28
  21  -5  -6   -3.35    8.37
  21   5   6    9.22    9.42
  22   5  -1   13.33    7.46
  22  -5   1   11.09    8.05
 -22   5   1    6.52    7.44
 -22  -5  -1    2.58    8.54
  22   5   1   14.35    7.97
 -22   5  -1    6.07    7.80
  22  -5  -1    8.70    7.45
 -22  -5   1    4.72    8.11
  22  -5   3   -7.43    7.07
 -22   5   3    0.82    7.27
  22   5  -3    0.24    7.89
 -22  -5  -3  -18.02    8.41
  22  -5  -3   -1.25    7.32
 -22  -5   3   -7.84    7.87
  22   5   3  -10.96    7.61
 -22   5  -3    1.91    7.86
 -22  -5  -5  -22.67    8.34
 -22   5   5  -17.51    7.77
  22   5  -5   -6.63    9.14
  22  -5   5    3.29    9.63
 -22   5  -5  -15.06    7.45
  22   5   5    8.37    9.75
  22  -5  -5    0.62    8.27
 -23   5   0  -11.01    7.52
  23   5   0    0.12    7.78
  23  -5   0  -12.69    7.66
 -23  -5   0  -10.78    8.37
 -23   5   2   -1.32    7.49
  23  -5   2   -5.68    7.75
  23   5  -2   -2.69    7.58
 -23  -5  -2   -5.92    8.86
 -23  -5   2   -2.02    8.09
  23   5   2   -6.10    8.35
 -23   5  -2  -14.49    7.97
  23  -5  -2    0.82    7.27
 -23  -5  -4  -23.71    8.68
  23   5  -4   -3.90    8.69
 -23   5   4  -19.57    7.79
 -23   5  -4  -13.73    7.99
  23  -5  -4   -5.03    7.87
  24   5  -1    0.33    7.84
  24  -5   1    0.05    8.40
 -24  -5  -1   -0.74    9.02
 -24   5   1    2.16    7.95
 -24  -5   1    1.85    8.38
 -24   5  -1    8.06    8.09
  24   5   1    3.30    8.33
  24  -5  -1   10.35    7.90
 -24   5   3   -4.36    7.71
  24  -5   3   -5.42    7.72
  24   5  -3    7.49    8.28
 -24  -5  -3  -11.23    9.14
  24   5   3   -6.41    8.27
  24  -5  -3    1.70    7.62
 -24   5  -3    5.13    8.37
 -24  -5   3  -12.29    8.29
 -25   5   0  -18.36    7.95
 -25  -5   0  -14.45    9.00
  25  -5   0  -14.85    8.26
  25   5   0   -5.54    8.37
  25  -5   2  -11.13    8.32
 -25   5   2   -8.47    7.96
  25   5  -2   -0.87    8.17
  25  -5  -2   -9.13    7.91
 -25   5  -2  -19.14    8.41
  25   5   2  -21.96    8.84
 -25  -5   2  -19.97    8.60
 -26  -5  -1   -6.34    9.77
  26  -5   1    0.40    9.10
 -26   5   1  -11.38    8.40
  26   5  -1    1.18    8.57
  26  -5  -1    0.03    8.29
 -26   5  -1    5.10    8.73
 -26  -5   1  -12.45    9.10
  26   5   1    5.11    9.04
  27   5   0  -21.98    8.92
   0   6   0   77.42    5.75
   0   6   0   75.54    5.25
   0  -6   0   72.33    5.66
   0   6   0   75.19    5.66
   0  -6   0   78.64    5.66
   0  -6   0   71.93    5.03
   0   6   2  308.51   20.36
   0  -6  -2  374.41   16.42
   0   6   2  348.89   16.11
   0   6  -2  318.58   16.71
   0  -6   2  282.65   20.56
   0  -6   2  349.18   20.33
   0  -6   4  208.47   11.60
   0   6   4  152.06   11.90
   1  -6   1  472.85   22.45
   1  -6   1  475.59   22.30
  -1  -6  -1  472.80   22.30
   1  -6   1  487.57   28.00
   1  -6   1  518.38   27.98
  -1  -6   1  411.37   22.35
   1   6   1  512.91   27.99
  -1   6  -1  507.78   22.48
   1  -6  -1  384.14   22.03
   1  -6  -1  391.02   22.32
   1   6   1  463.51   22.37
   1   6   1  483.44   27.90
   1   6  -3   25.75    3.57
   1  -6   3   31.84    3.64
   1  -6   3   44.91    5.46
  -1   6   3   27.97    4.49
   1  -6   3   29.94    3.62
  -1  -6  -3   42.17    4.21
  -1  -6   3   31.68    3.74
   1   6   3   33.09    4.80
   1   6   3   24.69    3.83
   1  -6  -3   37.59    4.55
  -1  -6   3   30.04    4.51
  -1   6   5   22.00    5.10
  -1  -6   5   14.09    4.05
  -1  -6   5   19.11    4.77
  -1   6   7    2.15    5.59
  -1  -6   7    3.09    4.59
  -1  -6   7    4.14    5.51
  -1   6   9    7.00    6.09
  -1  -6   9    8.84    5.27
  -1  -6   9    0.45    6.23
   2   6   0  671.33   39.12
  -2  -6   0  664.35   31.25
  -2   6   0  679.88   39.12
   2   6   0  669.23   39.11
  -2   6   0  644.32   31.29
  -2  -6   0  658.95   39.02
   2   6   0  643.35   31.28
   2  -6   0  678.21   39.11
   2  -6   0  616.13   31.21
   2  -6   0  622.25   31.12
   2  -6   0  674.16   39.12
  -2   6   2  313.39   14.99
  -2   6   2  312.78   18.90
  -2  -6  -2  279.41   14.83
   2  -6   2  284.41   15.78
  -2   6   2  305.95   18.33
   2   6  -2  284.59   15.35
  -2  -6   2  287.66   14.76
  -2  -6   2  295.14   18.79
  -2   6  -2  290.05   14.97
   2   6   2  278.79   18.37
   2  -6  -2  297.67   14.93
  -2  -6   2  285.16   18.33
   2   6  -4  166.76   10.57
   2  -6   4  191.33   11.64
  -2   6   4  195.51   12.80
  -2  -6   4  184.17   12.94
   2  -6  -4  189.11   10.11
  -2  -6   4  181.35   12.37
  -2   6   6   39.49    6.38
   2   6  -6   40.39    4.55
  -2  -6   6   26.21    5.45
  -2  -6   6   32.10    6.61
  -2   6   8   14.11    5.99
  -2  -6   8    1.24    5.15
  -2  -6   8   -1.20    6.40
  -2   6  10    0.17    6.59
  -2   6  10   -4.64    6.42
  -2  -6  10   -1.27    7.03
  -2  -6  10    6.93    6.25
  -3   6   1  215.28   11.03
   3  -6   1  164.54   13.05
   3  -6   1  185.46   10.72
   3  -6   1  160.41   13.29
  -3   6   1  221.96   13.21
  -3   6   1  237.82   13.66
  -3  -6  -1  188.46   10.96
   3   6  -1  221.75   11.37
   3  -6  -1  208.28   10.96
   3   6   1  186.81   13.30
  -3   6  -1  194.62   11.08
  -3  -6   1  220.85   13.43
   3   6   1  175.00   10.58
   3   6   1  188.18   13.41
  -3  -6   1  207.59   10.95
  -3  -6   1  204.32   13.27
  -3   6   3   54.65    6.83
   3  -6   3   38.64    5.95
   3   6  -3   48.09    4.40
  -3  -6   3   42.08    5.96
   3   6   3   35.77    5.38
  -3   6  -3   41.14    5.08
   3  -6  -3   41.41    3.87
  -3  -6   3   52.86    5.69
   3  -6   5   41.10    7.68
   3   6  -5   26.18    4.62
  -3   6   5   24.40    6.11
   3  -6  -5   17.58    4.15
  -3  -6   5   28.20    6.56
  -3  -6   5   26.58    5.25
  -3   6   7   11.37    6.29
  -3  -6   7    8.24    5.30
  -3  -6   7    7.81    6.67
  -3   6   9    3.32    6.56
  -3  -6   9    7.13    5.81
  -3  -6   9   -4.64    6.63
  -4  -6   0  495.71   23.94
   4   6   0  500.38   29.63
  -4   6   0  485.56   29.57
   4  -6   0  516.51   29.87
  -4  -6   0  486.55   29.74
   4   6   0  457.71   23.83
   4   6   0  490.81   29.67
   4  -6   0  480.64   23.83
  -4   6   0  478.19   23.93
   4  -6   0  501.18   29.72
  -4  -6  -2  191.11   10.27
  -4   6   2  169.43   10.30
   4   6  -2  144.44   10.77
   4  -6   2  176.27   12.18
   4  -6   2  184.73    9.50
   4  -6   2  186.89   12.21
  -4   6  -2  190.52   10.01
  -4  -6   2  139.74   13.05
   4  -6  -2  167.10   10.38
   4   6   2  181.66   12.29
  -4  -6   2  147.80   12.42
   4   6   2  184.68   12.08
   4   6   2  189.37    9.67
  -4  -6   2  168.98   10.31
  -4   6   4  182.59   13.67
   4  -6   4  190.78   12.20
   4   6  -4  176.88   11.27
   4   6   4  188.76   12.22
  -4  -6   4  192.27   13.04
  -4  -6   4  173.36   13.88
   4  -6  -4  197.45   10.67
   4   6  -6   33.78    5.38
   4  -6   6   41.36    8.61
  -4   6   6   47.97    7.62
  -4  -6   6   28.93    8.03
  -4  -6   6   28.14    6.22
  -4   6   8   15.24    6.88
  -4  -6   8   10.33    5.89
  -4  -6   8   -0.59    7.61
  -4   6  10    4.09    7.40
  -4  -6  10    4.49    7.75
  -4  -6  10   15.36    6.70
   5  -6   1  257.15   16.93
  -5   6   1  279.68   16.88
   5  -6   1  243.97   13.61
   5  -6   1  246.52   16.81
  -5  -6  -1  243.60   14.10
   5   6  -1  250.61   14.19
  -5   6   1  267.58   13.81
  -5   6   1  286.78   17.29
   5   6   1  236.45   16.73
   5   6   1  237.21   16.80
  -5  -6   1  254.73   16.88
  -5  -6   1  251.87   13.97
  -5   6  -1  245.43   13.90
   5  -6  -1  260.83   14.04
  -5  -6   1  261.47   16.80
  -5   6   3   66.71    6.04
   5  -6   3   51.77    6.88
   5  -6   3   70.94    7.12
  -5  -6  -3   80.15    6.60
  -5   6   3   54.01    8.63
   5   6  -3   70.36    7.84
   5   6   3   72.09    6.76
  -5  -6   3   65.73    6.34
  -5  -6   3   63.02    7.69
  -5   6  -3   78.08    6.17
   5  -6  -3   71.06    6.97
  -5  -6   3   53.68    8.47
   5  -6   5   42.89    8.46
   5  -6   5   19.03    4.34
   5   6  -5   22.66    5.38
  -5   6   5   31.97    7.12
  -5  -6   5   27.05    7.70
  -5  -6   5   24.38    5.93
   5  -6  -5   20.85    4.84
   5   6   5   28.94    4.61
   5  -6   7   27.37    8.46
  -5   6   7   14.21    7.03
  -5  -6   7   13.74    5.92
  -5  -6   7    5.32    7.76
  -5   6   9    0.08    6.54
  -5  -6   9   -1.55    7.47
  -5  -6   9    2.54    6.45
   6   6   0   78.03    8.87
  -6  -6   0   85.51    9.49
  -6   6   0   97.62    9.00
  -6  -6   0   73.75    8.68
   6  -6   0   88.44    9.55
  -6   6   0   90.07    8.21
   6   6   0   71.62    9.21
   6  -6   0   91.78    8.10
   6  -6   2  163.35   11.64
  -6   6   2  141.72   12.42
  -6  -6  -2  187.04   10.36
   6  -6   2  174.76    9.35
   6   6  -2  161.67   10.35
  -6   6   2  151.00    9.94
   6  -6   2  163.09   11.92
   6   6   2  162.97   11.85
  -6   6  -2  167.08    9.92
  -6  -6   2  155.00   12.30
  -6  -6   2  160.88   12.18
   6   6   2  170.52    9.62
  -6  -6   2  165.93   10.21
   6   6   2  169.04   11.82
   6  -6  -2  159.44   10.08
  -6   6   4   73.41   10.08
   6   6  -4   68.96    8.66
   6  -6   4   84.39    8.53
  -6  -6  -4   64.55    7.18
  -6  -6   4   62.38    8.12
   6   6   4   73.12    7.59
  -6  -6   4   69.66    9.10
  -6   6  -4   65.06    6.73
   6  -6  -4   74.90    7.67
   6   6  -6   42.03    6.23
  -6   6   6   53.54    8.42
   6  -6   6   58.86    9.44
  -6  -6   6   38.69    7.13
  -6  -6   6   37.52    8.69
  -6   6   8   16.22    7.03
   6  -6   8   13.33    8.68
  -6  -6   8    3.06    7.82
  -6  -6   8   10.68    6.57
   7  -6   1   51.34    5.56
  -7  -6  -1   47.29    4.82
  -7   6   1   38.59    5.59
  -7   6   1   44.23    4.67
   7  -6   1   56.32    6.74
   7  -6   1   54.07    7.43
  -7  -6   1   39.52    5.89
  -7  -6   1   37.44    5.53
  -7   6  -1   49.16    4.65
  -7  -6   1   38.42    4.61
   7   6   1   50.62    5.46
   7  -6  -1   33.58    4.69
   7   6   1   55.72    5.97
   7   6   1   44.06    4.64
  -7  -6  -3  127.98    9.08
  -7   6   3  113.92   11.45
   7   6  -3  123.72    9.14
   7  -6   3  126.92   10.15
  -7   6   3  121.41    8.51
  -7  -6   3  124.50   10.96
   7  -6  -3  115.08    9.24
  -7   6  -3  119.11    8.62
  -7  -6   3  120.29    8.84
   7   6   3  122.27    9.85
  -7  -6   3  123.15   10.78
  -7  -6  -5   21.23    4.87
   7  -6   5    7.52    7.14
  -7   6   5   27.31    7.56
   7  -6   5   17.16    8.48
   7   6  -5   30.24    5.87
   7  -6   5    9.69    5.11
  -7  -6   5   27.64    6.61
  -7   6  -5   12.93    4.23
   7   6   5   25.39    5.35
  -7  -6   5   36.48    8.19
   7  -6  -5   17.86    5.46
  -7   6   7    6.37    7.09
   7  -6   7   -0.27    6.69
   7  -6   7    9.39    8.33
   7  -6   7   -0.89    4.87
   7  -6  -7   -7.11    5.26
   7   6   7    0.07    4.95
   7   6   7   -5.20    6.20
  -7  -6   7    3.87    6.32
  -7  -6   7   -3.81    7.72
   7   6   7   14.08    7.28
  -7   6   9    2.15    7.97
  -7  -6   9   10.39    7.11
  -7  -6   9    6.11    8.10
   8   6   0   64.18    7.81
  -8   6   0   73.69    7.91
   8  -6   0   68.08    8.56
   8   6   0   58.38    8.86
   8  -6   0   74.70    7.52
  -8  -6   0   69.28    7.77
   8   6   0   63.27    8.41
   8  -6   2  163.57   12.22
  -8  -6  -2  160.63   10.67
   8  -6   2  161.04   12.20
   8  -6   2  162.07    9.71
  -8   6   2  144.95   10.33
  -8   6   2  151.30   12.79
   8   6   2  157.26   11.79
  -8   6  -2  158.79   10.27
  -8  -6   2  162.19   10.74
  -8  -6   2  146.30   12.30
   8   6   2  164.56   10.21
   8  -6  -2  160.18   10.40
   8   6   2  163.01   12.02
  -8  -6   2  159.12   12.61
  -8  -6  -4   47.09    5.57
   8  -6   4   58.79    8.35
   8  -6   4   34.01    7.45
  -8   6   4   55.40    6.89
  -8   6   4   57.52    7.81
   8   6   4   62.57    8.05
  -8  -6   4   50.19    7.15
  -8  -6   4   40.96    5.11
  -8  -6   4   51.72    8.05
   8  -6  -4   52.06    5.92
  -8   6  -4   46.57    5.10
   8   6   4   28.33    7.30
   8  -6   6    0.57    5.50
   8  -6   6   34.46    9.81
  -8   6   6   34.19    7.73
   8  -6   6    3.08    7.43
  -8  -6   6   27.89    7.24
   8   6   6   14.92    5.75
   8   6   6   -6.94    6.86
   8  -6  -6    9.95    5.80
  -8  -6   6   33.60    8.68
   8  -6   8  -11.68    7.06
  -8   6   8   19.65    7.46
   8  -6   8   -2.61    5.21
   8  -6   8    9.22    8.91
  -8  -6   8    8.88    7.12
   8   6   8    2.37    6.30
  -8  -6   8    3.47    8.16
   8   6   8   -1.51    5.36
  -9   6   1   63.81    5.52
  -9  -6  -1   58.10    5.48
   9  -6   1   57.22    7.30
   9  -6   1   64.96    8.40
  -9   6   1   61.42    8.47
   9   6   1   63.35    6.41
  -9  -6   1   61.28    5.54
  -9  -6   1   61.45    8.48
  -9  -6   1   52.36    8.42
   9   6   1   61.52    6.74
  -9   6  -1   58.38    5.49
   9   6   1   56.32    5.40
   9  -6  -1   62.69    7.86
   9  -6   3   34.36    6.72
  -9  -6  -3   33.85    5.24
   9  -6   3   36.72    5.98
  -9   6   3   24.28    4.84
   9  -6   3   34.34    3.84
  -9   6   3   16.53    6.50
  -9  -6   3   28.78    7.02
  -9   6  -3   32.62    4.89
   9   6   3   26.80    3.86
  -9  -6   3   24.98    6.08
   9  -6  -3   24.44    5.38
  -9  -6   3   27.88    5.23
   9   6   3   41.29    5.77
   9   6   3   32.33    6.70
   9  -6   5    8.73    7.86
  -9  -6  -5   22.74    5.46
  -9   6   5   36.12    8.00
   9  -6  -5   21.05    6.06
   9   6   5    1.93    7.03
  -9   6  -5   13.24    4.89
  -9  -6   5   23.62    7.44
  -9  -6   5   25.00    8.30
   9   6   5   24.83    6.13
  -9   6   7   10.74    7.62
   9  -6   7    2.73    7.58
   9  -6   7   14.88    9.07
   9  -6   7   -2.70    5.80
   9  -6  -7   -4.04    5.82
  -9  -6   7    6.78    7.17
   9   6   7    1.98    6.51
   9   6   7    2.92    5.51
  -9  -6   7    5.41    8.24
   9  -6   9   -2.60    5.89
   9  -6   9  -11.91    6.91
  -9   6   9    9.32    7.96
  -9  -6   9   13.81    7.25
   9   6   9    1.91    5.84
  -9  -6   9   -3.40    8.52
   9   6   9    8.11    6.32
  10  -6   0  169.80   11.16
  10  -6   0  165.61   13.20
  10   6   0  168.73   11.56
 -10  -6   0  166.19   11.70
  10   6   0  174.87   13.31
 -10   6   0  171.34   11.27
  10   6   0  166.47   13.02
 -10   6   2  107.44   11.84
 -10   6   2  112.05    9.74
  10  -6   2  125.79   10.90
 -10  -6  -2  131.89    9.83
  10  -6   2  120.47    9.28
  10   6   2  120.10   11.50
 -10  -6   2  110.93   11.56
 -10  -6   2  112.66   11.26
  10   6   2  120.25    9.68
 -10  -6   2  128.72   10.34
  10  -6  -2  125.86    9.86
 -10   6  -2  119.17    9.80
  10   6   2  111.93   11.07
 -10  -6  -4   35.09    6.04
  10  -6   4   20.26    7.85
 -10   6   4   47.26    8.49
 -10   6   4   47.16    5.51
  10  -6   4   27.77    6.92
  10   6   4   42.85    6.78
 -10  -6   4   50.84    7.72
  10  -6  -4   39.35    6.53
  10   6   4   28.16    8.02
 -10   6  -4   37.04    5.68
 -10  -6   4   49.38    5.94
 -10  -6   4   45.35    8.61
  10  -6   6   34.70   10.24
  10  -6   6    2.93    6.24
  10  -6   6   -0.14    7.49
 -10   6   6   23.85    8.26
  10   6   6   14.63    6.24
  10  -6  -6   16.56    6.17
 -10  -6   6   23.12    8.54
  10   6   6    8.08    7.68
 -10  -6   6   22.94    7.28
  10  -6   8   -4.88    6.25
  10  -6   8    5.34    9.42
 -10   6   8   16.01    8.16
  10   6   8    1.45    6.51
 -10  -6   8    4.92    7.47
 -10  -6   8    7.40    8.65
  10   6   8    4.98    5.77
 -11  -6  -1   28.17    5.51
 -11   6   1   29.53    5.34
  11  -6   1   34.56    6.30
  11  -6   1   32.08    5.35
  11   6  -1   29.42    5.63
 -11   6  -1   29.00    5.32
  11  -6  -1   29.51    5.33
 -11  -6   1   30.20    5.44
  11   6   1   35.11    6.28
 -11  -6   1   36.26    6.71
  11   6   1   32.78    6.05
  11   6   1   21.46    5.28
  11  -6   3   23.07    4.51
 -11   6   3   25.15    5.71
 -11   6   3   29.54    7.94
  11  -6   3   20.58    6.94
 -11  -6  -3   18.38    5.87
  11  -6  -3   23.29    6.17
 -11   6  -3   27.21    5.80
 -11  -6   3   31.65    7.15
  11   6   3   13.86    7.44
 -11  -6   3   25.62    7.93
  11   6   3   21.48    4.88
  11   6   3   27.32    6.52
 -11  -6   3   17.52    6.04
 -11   6   5   29.35    9.02
 -11   6   5   21.65    5.12
 -11  -6  -5    8.82    6.02
  11  -6   5    5.06    6.94
  11  -6  -5   19.57    6.71
 -11  -6   5   21.56    8.64
  11   6   5    8.19    8.22
 -11   6  -5   14.68    5.60
 -11  -6   5   27.29    7.91
  11   6   5   19.80    6.81
 -11  -6   5   13.65    5.38
  11  -6   7   -0.31    6.70
  11   6  -7   -1.76    7.43
 -11   6   7    4.60    8.88
  11  -6   7   12.31    9.51
 -11  -6   7    4.51    7.61
  11   6   7    2.81    6.14
 -11  -6   7   -1.17    8.73
  11   6   7   -0.36    7.66
  11  -6  -7  -11.20    6.34
  11  -6   9   -1.59    6.60
 -11   6   9    6.98    9.32
  11   6   9   11.54    7.55
  11   6   9    1.51    6.60
 -11  -6   9   17.07    7.86
 -11  -6   9    4.00    9.30
  12  -6   0   48.64    6.26
  12   6   0   58.39    7.32
  12   6   0   54.74    6.24
 -12  -6   0   53.82    6.47
  12  -6   0   59.89    7.25
 -12   6   0   52.08    6.11
 -12  -6  -2   87.66   10.05
  12   6  -2   76.46    7.71
 -12   6   2   80.13    9.77
 -12   6   2   84.74   11.78
  12  -6   2   77.97   10.79
  12  -6   2   81.47    9.14
 -12  -6   2   85.47   10.65
 -12   6  -2   72.35    7.16
  12  -6  -2   81.40   10.21
  12   6   2   83.74    9.85
 -12  -6   2   82.51   10.86
  12   6   2   74.56   10.57
  12   6   2   73.72   10.76
 -12  -6   2   76.68   11.50
  12  -6   4   24.07    7.62
 -12   6   4   36.98    6.06
  12   6  -4   31.56    7.94
 -12   6   4   33.54    8.91
 -12  -6  -4   29.45    6.37
  12   6   4   17.37    8.09
  12  -6  -4   29.83    6.98
 -12  -6   4   33.68    6.53
 -12  -6   4   37.60    8.96
 -12  -6   4   30.68    7.98
 -12   6  -4   29.26    6.23
  12   6   4   31.15    7.36
  12   6  -6   37.62    8.03
 -12   6   6   48.59    9.03
  12  -6  -6   25.22    6.85
  12   6   6   27.65    8.23
 -12  -6   6   43.88    8.07
  12   6   6   24.90    6.97
 -12  -6   6   42.51    9.10
  12  -6   8   -7.33    6.98
 -12   6   8   14.76    8.40
  12  -6   8    1.57    9.92
 -12  -6   8    5.47    9.45
  12   6   8   11.93    7.51
 -12  -6   8   11.55    8.02
  12   6   8   -1.82    6.54
  13  -6   1   46.58    7.91
  13  -6   1   48.60    6.70
  13   6  -1   47.88    6.72
 -13   6   1   51.48    6.58
 -13  -6  -1   42.28    6.97
  13   6  -1   56.46    7.63
  13   6   1   49.55    7.59
 -13   6  -1   44.36    6.72
 -13  -6   1   50.83    8.13
  13   6   1   47.07    6.71
 -13  -6   1   56.43    6.86
  13   6   1   49.87    7.80
  13  -6  -1   51.96    7.82
  13  -6  -1   51.84    6.51
  13  -6   3   11.83    5.23
 -13   6   3    2.66    5.99
 -13  -6  -3    6.45    6.49
 -13   6   3   14.63    8.15
  13  -6   3    6.77    7.68
  13   6  -3   -0.13    7.22
  13  -6  -3    2.73    6.51
 -13  -6   3    5.36    7.58
  13   6   3   10.64    7.10
 -13  -6   3    1.76    6.71
  13   6   3    8.92    5.61
 -13  -6   3    9.51    8.61
  13   6   3    1.20    7.80
 -13   6  -3    8.25    6.28
 -13  -6  -5    5.12    6.25
  13   6  -5   10.89    7.88
 -13   6   5   15.42    8.56
 -13   6   5   16.07    5.64
  13  -6   5    8.48    7.37
 -13  -6   5   16.71    7.83
  13  -6  -5   14.59    6.98
 -13   6  -5    3.37    5.86
 -13  -6   5   15.51    8.89
 -13  -6   5   -2.87    6.08
  13   6   5    2.25    7.85
  13   6   5   14.38    7.21
  13  -6   7   -4.75    7.47
  13   6  -7   -0.46    7.64
  13  -6   7   10.04   10.17
 -13   6   7   11.24    8.42
  13  -6  -7    3.90    6.78
 -13  -6   7    7.07    8.09
  13   6   7   -0.15    7.01
 -13  -6   7   -2.34    9.50
  13   6   7    0.81    7.63
 -14  -6   0   24.19    6.77
  14   6   0   23.62    7.43
  14   6   0   20.11    6.50
 -14   6   0   34.73    6.55
  14  -6   0   19.48    7.49
  14  -6   0   22.79    6.51
  14  -6   2   60.19    9.09
 -14  -6  -2   56.86    7.68
 -14   6   2   45.12    6.93
  14  -6   2   53.86    6.83
  14   6  -2   44.40    7.40
 -14   6   2   50.88    8.63
  14   6   2   55.82    8.34
 -14  -6   2   55.87    8.31
  14   6   2   55.89    8.73
  14   6   2   48.08    7.24
 -14  -6   2   44.95    7.43
 -14   6  -2   57.42    7.25
  14  -6  -2   50.70    7.23
 -14  -6   2   51.07    9.03
  14   6  -4   83.15    9.21
  14  -6   4   53.34    9.83
 -14   6   4  118.98   14.08
 -14   6   4   88.73   10.11
 -14  -6  -4   83.74   10.56
 -14  -6   4  110.02   10.97
 -14  -6   4   95.46   12.75
 -14  -6   4   94.82   12.77
  14   6   4   70.66   11.33
  14  -6  -4   76.14    8.40
  14   6   4   80.30   12.01
 -14   6   6    3.49    5.10
  14   6  -6    4.62    7.86
  14  -6   6   -1.82    7.53
  14  -6  -6    1.99    7.02
  14   6   6    4.31    7.41
 -14  -6   6    7.72    9.32
  14   6   6   10.55    7.97
  14  -6   8   -5.45    7.72
  14  -6   8   13.36   10.63
 -14  -6   8    4.85    9.97
  14   6   8   10.48    7.88
  14   6   8    0.10    7.29
  15   6  -1   11.52    6.86
  15  -6   1   12.01    6.95
 -15   6   1   19.83    6.72
 -15  -6  -1   24.48    7.44
  15   6  -1   22.90    7.48
  15  -6   1   15.90    8.20
  15  -6   1   16.33    8.45
 -15  -6   1   25.89    8.32
  15  -6  -1   18.48    6.60
  15  -6  -1   11.68    7.80
  15   6   1   20.11    7.56
  15   6   1   18.82    7.97
  15   6   1   24.56    6.88
 -15   6  -1   29.59    7.04
 -15  -6   1   22.92    7.09
  15   6  -3   -7.29    7.33
 -15   6   3    6.08    6.38
 -15  -6  -3   -0.16    7.36
  15  -6   3    0.62    8.46
  15  -6   3    9.08    5.94
 -15  -6   3   -6.26    7.12
 -15   6  -3    3.22    6.85
  15   6   3   13.21    6.29
  15   6   3   -3.20    7.64
 -15  -6   3   -3.91    8.60
  15   6   3   -3.92    8.37
  15  -6  -3   -2.27    6.91
 -15  -6  -5   -2.26    6.53
  15  -6   5   -0.14    7.95
  15   6  -5    0.09    7.77
 -15   6   5   -5.37    5.91
  15  -6  -5   -2.08    6.99
 -15  -6   5   -6.28    8.49
 -15   6  -5    1.01    6.15
  15   6   5   -2.69    7.13
  15   6   5    6.20    8.20
 -15  -6   5  -14.49    6.53
  15   6  -7    6.72    7.96
  15  -6   7    3.47   10.65
  15  -6   7    1.96    7.94
  15  -6  -7   -3.67    7.18
  15   6   7    2.22    7.92
  15   6   7   -2.33    7.71
 -15  -6   7    1.71    9.76
 -16   6   0   17.39    6.82
  16   6   0   11.52    7.01
 -16  -6   0   21.09    7.40
  16  -6   0   16.50    8.01
  16  -6   0   17.13    6.98
  16   6   0   20.82    8.09
  16  -6   2    2.66    6.61
  16  -6   2    5.22    8.65
  16   6  -2    0.90    7.30
 -16   6   2    0.49    6.76
 -16  -6  -2    5.02    7.71
  16   6   2    6.94    8.63
 -16   6  -2    7.13    7.05
  16   6   2    7.83    7.09
 -16  -6   2    7.65    7.42
  16  -6  -2   -0.21    6.88
  16   6   2    3.83    7.75
  16   6  -4   30.84    7.93
 -16  -6  -4   35.42    7.49
 -16   6   4   27.01    6.82
  16  -6   4   14.41    8.55
  16   6   4   36.76    8.70
  16  -6  -4   31.39    7.39
 -16   6  -4   20.14    6.81
 -16  -6   4   35.20    9.24
  16   6   4   31.30    8.02
 -16  -6   4   36.30    7.32
  16  -6   6   -3.39    8.11
  16   6  -6   12.06    8.18
 -16   6   6    2.94    5.90
  16   6   6   13.97    8.35
 -16  -6   6  -10.34    6.25
  16  -6  -6    2.89    7.22
  16   6   6    7.65    8.20
 -16  -6   6   17.22    9.19
  16  -6   8   14.84   11.27
  16  -6   8    0.42    8.34
  16   6  -8    2.55    8.60
  16  -6  -8  -13.42    7.79
  16   6   8   14.41    8.53
  16   6   8    3.86    8.11
 -16  -6   8    5.23   10.82
  17  -6   1   19.20    7.59
 -17   6   1   11.88    7.08
 -17  -6  -1   10.05    7.87
  17   6  -1   -2.01    7.14
  17  -6   1    8.06    8.38
  17   6   1    3.64    8.61
  17  -6  -1   11.49    7.02
  17   6   1   15.81    7.34
 -17  -6   1   10.02    7.58
 -17   6  -1   10.13    7.24
  17   6  -3    5.45    7.61
  17  -6   3   22.69    6.41
 -17   6   3   13.82    6.62
 -17  -6  -3    3.14    7.72
  17  -6   3   11.00    8.93
  17   6   3   11.69    6.80
  17   6   3    8.22    8.11
 -17  -6   3    9.32    7.34
 -17   6  -3   10.43    7.10
  17  -6  -3    8.75    6.98
  17   6   3    8.12    8.81
 -17  -6  -5   -0.76    7.09
 -17   6   5   -2.05    6.53
  17   6  -5    8.54    8.30
  17  -6   5   -0.54    8.49
 -17  -6   5   -9.94    7.16
  17  -6  -5    2.39    7.31
 -17  -6   5    2.69    9.56
  17   6   5    1.17    8.51
 -17   6  -5   -2.84    6.48
  17   6   5    5.05    8.36
  17  -6   7   -1.46    8.48
  17   6  -7    7.58    8.59
 -17  -6   7    2.02   10.57
  17   6   7    2.17    8.39
  17  -6  -7   -3.62    7.73
  17   6   7   -8.22    8.51
 -18   6   0    9.91    7.15
  18  -6   0    6.46    7.18
  18   6   0    4.95    7.22
 -18  -6   0    9.60    7.64
  18  -6   2   13.63    6.96
 -18  -6  -2   19.68    7.97
  18   6  -2   14.65    7.43
 -18   6   2    8.93    6.73
  18  -6   2   16.51    8.82
  18  -6  -2   15.36    6.98
  18   6   2   18.33    8.76
 -18  -6   2   22.37    7.48
  18   6   2   12.83    7.39
 -18   6  -2   15.51    7.22
 -18   6   4    5.34    6.90
  18  -6   4    6.08    8.62
  18   6  -4    8.57    8.00
 -18  -6  -4   11.28    7.67
  18  -6   4   11.18    4.93
 -18  -6   4    7.81    7.55
 -18   6  -4    2.46    6.83
  18  -6  -4   11.59    7.33
  18   6   4    2.99    5.17
  18   6   4   24.40    8.99
  18  -6   6   -2.84    8.54
  18   6  -6   11.65    8.65
 -18   6   6  -11.01    6.44
  18   6   6   15.28    8.75
  18  -6  -6    0.29    7.63
 -18  -6   6  -15.71    6.84
  18   6   6   10.28    8.74
  19  -6   1    9.44    7.52
 -19   6   1   13.57    7.13
 -19  -6  -1   20.74    7.89
  19   6  -1   15.19    7.26
 -19   6  -1   16.29    7.35
  19  -6  -1    7.67    7.00
 -19  -6   1   11.23    7.84
  19   6   1   11.90    7.35
 -19  -6  -3   -7.65    7.98
  19  -6   3   -0.61    8.89
  19   6  -3   -0.81    7.60
 -19   6   3    3.00    6.74
  19  -6   3    4.86    6.78
  19   6   3  -13.47    8.69
  19   6   3   -3.52    7.14
 -19  -6   3    2.98    7.34
 -19   6  -3   -7.44    7.18
  19  -6  -3   -3.70    7.01
  19  -6   5   -0.27    8.98
 -19  -6  -5  -16.29    7.56
 -19   6   5   -4.07    6.93
  19   6  -5   -3.54    8.48
  19  -6  -5   -1.46    7.52
 -19  -6   5  -22.33    7.61
  19   6   5    1.40    8.85
 -19   6  -5   -7.35    6.71
  19  -6   7   -4.35    8.78
  19   6  -7    5.06    9.07
  19  -6  -7   -0.63    8.17
  19   6   7   12.92    9.06
 -20   6   0   -4.93    7.12
 -20  -6   0   -5.90    7.82
  20   6   0    0.10    7.08
  20  -6   0   -5.58    7.22
 -20  -6  -2   -1.42    8.19
  20   6  -2   12.31    7.47
 -20   6   2    0.57    6.99
  20  -6   2    2.90    7.07
  20   6   2    9.41    7.71
  20  -6  -2    0.87    6.89
 -20   6  -2    2.37    7.44
 -20  -6   2    9.50    7.88
  20  -6   4   -0.25    8.97
  20   6  -4    0.85    8.11
 -20  -6  -4   -4.21    8.05
 -20   6   4    2.06    7.31
  20   6   4    4.42    9.00
  20  -6  -4   -7.65    7.34
 -20  -6   4  -10.73    7.69
 -20   6  -4   -4.33    7.28
  20  -6   6   -3.07    8.93
 -20   6   6  -15.11    7.12
  20   6  -6    2.12    9.12
  20   6   6    8.80    9.14
  20  -6  -6   -1.77    8.14
  21   6  -1    6.26    7.37
  21  -6   1   12.18    7.96
 -21   6   1   10.83    7.27
 -21  -6  -1    6.40    8.29
  21   6   1   11.85    7.69
  21  -6  -1   10.08    7.42
 -21   6  -1    1.49    7.50
 -21  -6   1    4.57    7.92
 -21   6   3    3.69    7.07
  21  -6   3    3.93    7.24
  21   6  -3    7.49    8.00
 -21  -6  -3    7.30    8.39
 -21   6  -3   -6.66    7.61
  21   6   3   -1.34    7.52
 -21  -6   3   -3.95    7.77
  21  -6  -3    2.63    7.21
 -21   6   5   -5.89    7.40
  21   6  -5   -1.34    8.90
  21  -6   5   -0.13    9.07
 -21  -6  -5  -22.67    7.97
 -21   6  -5  -10.57    7.19
  21  -6  -5    0.34    7.84
  21   6   5   10.55    9.40
 -22  -6   0   -3.83    8.38
  22  -6   0   -5.27    7.63
  22   6   0   -1.23    7.61
 -22   6   0   -6.55    7.35
  22  -6   2   -5.31    7.54
 -22   6   2   -7.99    7.18
  22   6  -2   -6.21    7.72
 -22  -6  -2   -7.62    8.60
  22  -6  -2   -6.59    7.34
 -22   6  -2   -5.11    7.71
  22   6   2   -6.09    7.96
 -22  -6   2   -2.19    8.09
  22   6  -4   -3.65    8.43
 -22  -6  -4   -8.30    8.41
 -22   6   4  -14.86    7.53
 -22  -6   4  -24.62    8.07
 -22   6  -4  -16.90    7.45
  22  -6  -4   -1.91    7.56
 -23   6   1    2.19    7.60
 -23  -6  -1    1.53    9.00
  23   6  -1    4.13    7.64
  23  -6   1    1.87    8.15
 -23  -6   1   -3.85    8.35
  23  -6  -1   -0.27    7.38
  23   6   1    2.77    8.15
 -23   6  -1    2.14    7.95
 -23  -6  -3   -2.68    9.00
  23   6  -3   -4.82    8.14
  23  -6   3   -7.96    7.66
 -23   6   3    0.38    7.53
  23   6   3  -14.84    7.87
 -23  -6   3   -8.77    8.28
  23  -6  -3   -4.35    7.46
 -23   6  -3  -10.52    7.74
 -23   6   5  -17.98    7.97
  23   6  -5   -8.82    9.32
 -23  -6  -5  -21.41    8.79
 -23   6  -5  -15.31    7.65
  23  -6  -5   -4.10    8.31
  24  -6   0    0.74    8.05
  24   6   0   -2.34    7.95
 -24  -6   0  -16.43    8.60
 -24   6   0   -7.47    7.81
 -24  -6  -2  -14.91    9.08
 -24   6   2  -11.27    7.57
  24  -6   2  -13.74    8.00
  24   6  -2   -9.46    7.77
 -24   6  -2   -7.01    8.07
  24  -6  -2   -3.36    7.65
  24   6   2   -7.17    8.70
 -24  -6   2  -14.91    8.23
 -24   6   4  -14.10    8.34
  24   6  -4   -5.72    8.90
 -24   6  -4  -17.23    8.05
  24  -6  -4   -5.47    7.99
 -25   6   1    2.38    7.89
  25  -6   1    0.06    8.49
  25   6  -1   -0.80    8.24
 -25  -6  -1   -4.64    9.28
  25  -6  -1   -1.34    8.03
 -25  -6   1   -7.55    8.80
  25   6   1   -1.11    8.66
 -25   6  -1   -1.70    8.17
 -25   6   3   -9.83    8.05
  25  -6   3  -12.91    8.29
  25   6  -3    7.19    8.82
 -25  -6  -3  -11.44    9.73
 -25   6  -3   -7.24    8.42
  25  -6  -3    1.04    8.32
  25   6   3  -27.07    8.54
 -25  -6   3  -14.23    8.98
  26  -6   0  -11.44    8.78
  26   6   0   -8.64    8.71
 -26   6   0  -15.09    8.40
 -26  -6   0  -18.45    9.31
  26   6  -2   -7.50    8.58
 -26  -6  -2  -16.81   10.06
 -26   6   2  -13.26    8.17
  26  -6   2  -11.55    9.04
 -26   6  -2  -18.47    8.65
  26   6   2  -18.98    9.38
  26  -6  -2   -7.37    8.23
 -26  -6   2  -22.84    9.04
   0   7   1  275.21   14.26
   0  -7   1  280.11   17.40
   0  -7   1  275.23   14.02
   0  -7   1  259.35   14.05
   0   7  -1  295.95   14.33
   0   7   1  280.69   17.59
   0   7   1  267.53   17.22
   0  -7  -1  268.51   13.97
   0  -7   3   70.97    7.64
   0   7  -3   70.66    6.55
   0   7   3   68.11    6.72
   0  -7   3   90.46    6.84
   0  -7  -3   85.98    5.67
   0   7   3   59.68    7.18
   0  -7   5   40.55    6.41
   0  -7   5   40.12    5.53
   0   7   5   50.88    5.88
   0   7   9    6.26    5.89
   0   7   9    1.86    5.93
   1  -7   0  237.11   14.36
   1   7   0  226.41   11.80
  -1  -7   0  230.28   14.16
   1  -7   0  205.28   11.41
  -1   7   0  224.18   14.25
  -1   7   0  228.72   14.32
  -1   7   0  234.01   11.99
   1   7   0  224.78   14.14
   1   7   0  231.63   14.48
   1  -7   0  228.36   14.14
  -1  -7   0  225.19   14.16
  -1  -7   0  214.61   11.67
   1  -7   0  217.02   11.55
   1  -7   2  117.06    9.86
   1   7  -2  126.57    8.96
   1  -7   2  130.36    9.45
  -1   7   2  122.74    9.50
   1  -7   2  122.22    7.39
  -1   7   2  107.83   10.52
  -1  -7  -2  144.40    8.16
  -1   7   2  136.93    8.11
  -1   7  -2  123.39    8.65
   1   7   2  120.65    7.53
  -1  -7   2  120.47    9.54
   1   7   2  113.50    9.89
  -1  -7   2  116.54   10.55
   1  -7  -2  141.87    8.08
  -1  -7   2  125.90    7.60
  -1  -7  -4   91.60    6.01
  -1   7   4   64.17    8.26
   1  -7   4   86.86    7.84
   1  -7   4  115.03    8.92
   1  -7   4   97.08    7.25
   1   7   4   76.03    7.56
  -1  -7   4   62.22    8.33
   1   7   4   84.27    7.35
  -1  -7   4   89.77    7.51
   1  -7  -4  102.53    6.46
  -1   7   6   34.52    6.12
  -1  -7   6   21.72    5.22
  -1  -7   6   31.80    6.05
  -1   7   8    9.36    5.77
  -1  -7   8   -0.43    6.42
  -1  -7   8   -0.16    5.15
  -1   7  10   -2.29    6.59
  -1   7  10   -0.83    6.82
   1   7  10   -4.06    6.20
  -1  -7  10    1.32    6.75
  -1  -7  10    3.57    6.07
  -2  -7  -1  369.75   19.40
   2  -7   1  389.21   23.95
   2  -7   1  421.94   24.25
   2  -7   1  393.49   19.35
   2  -7   1  387.30   19.59
  -2   7  -1  393.11   19.48
   2   7   1  400.60   23.97
   2   7   1  369.89   19.35
   2   7   1  402.79   24.06
  -2   7   3   73.13    7.50
   2   7  -3   75.43    6.84
  -2  -7  -3   68.92    5.65
   2  -7   3   73.48    7.81
   2  -7   3   54.40    6.76
  -2   7  -3   71.18    6.10
  -2  -7   3   80.70    7.76
   2   7   3   63.88    6.85
  -2  -7   3   67.05    6.98
   2  -7  -3   73.19    5.97
   2  -7   5   61.86    7.79
  -2   7   5   36.75    6.45
   2   7  -5   26.57    4.53
  -2  -7   5   29.29    6.37
   2  -7  -5   36.87    4.27
  -2  -7   5   28.99    5.11
  -2   7   7    2.11    5.83
  -2  -7   7    5.99    6.59
  -2  -7   7    2.65    5.21
  -2   7   9   12.43    6.51
  -2  -7   9    6.11    5.69
  -2  -7   9    3.19    6.88
   3   7   0   10.29    4.24
   3   7   0    6.39    3.45
   3  -7   0   16.55    4.19
   3   7   0   14.38    4.15
  -3  -7   0   13.85    4.15
   3  -7   0   16.41    3.92
  -3   7   0   16.31    3.65
  -3   7   0   13.66    4.09
   3  -7   0   14.59    3.31
  -3  -7   0    7.09    3.40
  -3   7   2  100.12   10.34
  -3  -7  -2  120.13    8.24
   3  -7   2  116.66    9.20
   3   7  -2  117.76    9.07
  -3   7   2  126.04    8.32
   3  -7   2   93.86    9.97
  -3   7   2  126.10    9.62
   3  -7   2  114.11    9.69
   3  -7   2  123.82    7.41
  -3  -7   2  120.60    7.98
  -3  -7   2  113.26    9.63
   3  -7  -2  124.72    8.27
   3   7   2  101.58    9.20
  -3   7  -2  137.31    8.38
  -3  -7   2  102.33   10.48
   3   7   2  113.71    9.59
  -3   7   4  209.90   14.73
   3   7  -4  219.42   12.18
  -3  -7  -4  204.95   11.24
   3  -7   4  226.14   12.94
  -3  -7   4  198.19   14.84
  -3  -7   4  214.90   14.25
   3  -7  -4  216.49   11.60
   3   7  -6   26.43    4.84
  -3   7   6   29.91    6.88
   3  -7   6   41.05    8.70
  -3  -7   6   24.09    7.23
  -3  -7   6   25.07    5.81
  -3   7   8    8.19    6.71
  -3  -7   8   -6.12    6.92
  -3  -7   8    1.12    5.65
  -3   7  10    3.22    7.04
  -3  -7  10    0.11    7.57
  -3  -7  10   11.31    6.57
   4  -7   1   19.51    5.11
   4  -7   1   18.04    4.77
   4  -7   1   14.06    3.82
   4   7  -1    3.68    4.29
  -4  -7  -1    7.10    4.17
  -4   7   1   14.80    4.08
  -4   7   1    8.46    4.87
  -4   7   1   17.42    4.73
   4   7   1    5.06    4.97
   4  -7  -1   17.32    3.98
  -4  -7   1    7.05    5.21
  -4   7  -1   20.41    3.99
  -4  -7   1    7.63    3.82
   4   7   1   12.74    4.67
  -4  -7   1    8.56    4.72
   4   7   1   26.62    3.73
  -4  -7  -3   33.38    3.97
  -4   7   3   44.01    3.82
   4   7  -3   45.80    4.70
   4  -7   3   38.99    6.42
  -4   7   3   49.14    7.54
   4  -7  -3   44.87    4.22
  -4  -7   3   45.92    5.19
  -4  -7   3   46.61    6.12
  -4   7  -3   37.03    3.91
   4   7   3   29.80    4.61
  -4  -7   3   44.94    5.39
   4  -7   5   21.55    4.59
   4  -7   5   48.85    8.35
  -4   7   5   49.85    7.11
   4   7  -5   30.83    5.28
  -4  -7   5   33.97    7.60
  -4  -7   5   41.36    6.07
   4   7   5   44.34    6.67
   4  -7   7   17.72    8.15
  -4   7   7   21.09    7.05
  -4  -7   7   13.03    7.27
  -4  -7   7   10.51    5.75
  -4   7   9    1.93    6.84
  -4  -7   9   14.38    6.12
  -4  -7   9    3.38    7.72
  -5   7   0  124.07   10.01
   5  -7   0  124.97   10.10
  -5   7   0  122.40    9.35
  -5  -7   0   98.01    9.00
  -5  -7   0  108.96   10.37
   5   7   0  102.01    9.72
   5  -7   0  123.23    8.95
   5  -7   0  125.37   10.77
   5   7   0  116.44    8.57
   5   7   0  109.18   10.70
   5  -7   2  174.84   13.06
   5  -7   2  195.62   10.39
  -5  -7  -2  198.49   11.15
   5   7  -2  188.49   11.35
  -5   7   2  173.49   13.56
  -5   7   2  191.46   10.94
  -5  -7   2  189.14   13.01
   5   7   2  187.95   10.49
   5  -7  -2  183.82   10.89
   5   7   2  176.94   12.93
  -5   7  -2  193.47   10.92
  -5  -7   2  191.35   10.90
  -5  -7   2  190.76   13.51
   5   7   2  183.43   12.87
  -5   7   4  119.01   11.79
   5  -7   4  122.62   10.08
   5  -7   4  152.02   10.82
   5   7  -4  132.25   10.13
   5   7   4  145.05    9.86
  -5  -7   4  124.81   10.88
   5  -7  -4  139.72    9.21
  -5  -7   4  108.68   11.79
  -5   7   6   42.19    7.75
   5   7  -6   35.79    5.86
   5  -7   6   46.24    8.96
   5   7   6   15.41    5.32
  -5  -7   6   28.04    6.59
  -5  -7   6   27.75    8.55
  -5   7   8    7.78    7.06
  -5  -7   8   -7.55    7.72
  -5  -7   8    7.79    6.32
  -5  -7  10    8.17    6.86
  -5  -7  10   -4.31    8.12
   6  -7   1  142.85    9.70
  -6   7   1  140.47    9.67
  -6   7   1  150.29   11.32
   6   7  -1  139.47    9.73
  -6   7   1  148.82   11.82
  -6  -7  -1  141.48   10.23
   6  -7   1  145.85   11.20
   6  -7   1  142.00   11.42
   6  -7  -1  136.98    9.70
  -6  -7   1  131.37    9.97
   6   7   1  136.87   11.34
  -6  -7   1  142.28   11.85
  -6   7  -1  149.62    9.83
   6   7   1  142.47   11.30
  -6  -7   1  133.19   11.34
   6  -7   3   94.78    8.55
   6  -7   3   75.18    8.95
  -6  -7  -3  100.56    7.87
  -6   7   3   75.62   10.18
   6   7  -3   81.55    8.74
  -6   7   3   86.47    7.33
   6  -7  -3   90.55    7.92
  -6  -7   3   72.50   10.00
  -6  -7   3   89.96    9.21
  -6  -7   3   88.12    7.66
  -6   7  -3   94.97    7.28
   6   7   3  100.67    8.44
  -6  -7  -5   23.78    4.69
   6   7  -5   28.49    5.90
  -6   7   5   40.98    7.96
   6  -7   5   33.54    8.94
   6  -7  -5   30.59    5.44
  -6  -7   5   26.82    8.16
  -6  -7   5   30.16    6.46
   6   7   5   20.34    5.30
  -6   7  -5    9.72    4.14
  -6   7   7   14.25    7.25
   6  -7   7   -5.03    4.47
   6  -7   7  -11.42    6.35
   6  -7   7   14.31    8.14
   6   7   7   -3.96    6.22
   6   7   7    0.54    5.08
  -6  -7   7    9.71    6.15
  -6  -7   7   11.84    7.87
  -6   7   9    4.98    7.63
  -6  -7   9    9.43    6.85
  -6  -7   9   -2.64    7.83
   7   7   0  149.93   12.58
  -7   7   0  167.24   10.71
  -7   7   0  165.17   12.23
   7  -7   0  162.90   10.61
   7   7   0  162.16   11.96
  -7  -7   0  154.61   11.94
  -7  -7   0  157.83   10.64
   7  -7   0  161.43   12.17
   7  -7   2  221.62   12.40
  -7   7   2  241.83   16.18
  -7  -7  -2  238.74   13.14
   7  -7   2  221.29   15.56
   7  -7   2  214.35   15.37
  -7   7   2  228.68   12.91
   7   7  -2  241.24   13.15
  -7  -7   2  247.98   16.04
   7   7   2  230.35   15.62
  -7  -7   2  233.75   12.94
   7   7   2  227.81   12.58
  -7  -7   2  238.53   15.64
  -7   7  -2  214.14   12.75
   7   7   2  212.08   15.42
   7  -7  -2  225.54   12.95
   7  -7   4   25.74    7.09
  -7   7   4   59.67    7.76
  -7  -7  -4   41.85    5.26
   7   7  -4   49.67    6.05
   7  -7   4   30.09    5.98
  -7   7   4   45.84    4.47
  -7  -7   4   35.29    4.57
   7   7   4   43.67    5.78
  -7  -7   4   46.10    6.57
  -7  -7   4   43.50    7.70
   7  -7  -4   46.41    5.56
  -7   7  -4   35.56    4.67
   7  -7   6   20.92    8.89
   7  -7   6    6.42    5.63
   7   7  -6   15.46    6.07
  -7   7   6   19.87    8.00
   7  -7   6   14.71    7.32
   7  -7  -6   12.77    5.65
  -7  -7   6   14.03    6.79
   7   7   6   11.25    5.66
  -7  -7   6   22.33    8.56
   7  -7   8   13.36    9.04
   7  -7   8   -5.99    7.34
  -7   7   8   11.07    7.09
   7  -7   8   -2.16    5.13
  -7  -7   8    6.68    6.92
   7   7   8   -1.03    5.47
   7   7   8   -2.59    6.71
  -7  -7   8    7.29    8.24
  -8  -7  -1   87.98    8.77
  -8   7   1   90.81    8.48
   8  -7   1   86.87    8.30
  -8   7   1   97.95    9.68
  -8   7   1   96.62    9.27
   8  -7   1   99.71    9.26
   8   7   1  102.92    9.53
   8   7   1   91.99    9.25
  -8  -7   1   92.69    8.28
  -8   7  -1   90.49    8.39
  -8  -7   1   90.82    9.35
   8  -7  -1  103.30    8.41
   8   7   1   87.84    8.55
  -8  -7   1   86.07    9.79
   8  -7   3   28.83    5.69
   8  -7   3   26.70    6.30
  -8   7   3   21.90    4.47
  -8   7   3   13.80    6.32
  -8  -7  -3   21.56    4.93
   8   7  -3   31.44    5.35
  -8  -7   3   21.90    4.85
   8   7   3   33.67    5.38
   8   7   3   20.66    6.37
  -8  -7   3   21.36    5.83
  -8   7  -3   31.65    4.50
   8  -7  -3   23.99    4.98
  -8  -7   3   23.93    6.52
   8  -7   5    8.91    7.78
   8  -7   5   13.66    6.28
   8   7  -5   37.52    6.45
  -8  -7  -5   20.21    5.40
   8  -7   5   40.89    9.66
  -8   7   5   49.32    8.27
  -8   7  -5   18.89    4.80
  -8  -7   5   44.34    8.64
  -8  -7   5   37.49    7.27
   8  -7  -5   26.37    6.10
   8   7   5   34.15    5.99
  -8   7   7   16.80    7.26
   8  -7   7   15.06    8.92
   8  -7   7    2.49    7.69
   8  -7   7   -3.19    5.45
   8   7   7   -5.52    6.86
   8  -7  -7    3.32    5.58
  -8  -7   7    8.46    8.13
  -8  -7   7   16.01    6.61
   8   7   7    3.81    5.50
  -8   7   9    8.72    8.75
   8   7   9    5.85    6.53
  -8  -7   9   -2.38    8.33
  -8  -7   9   12.15    7.65
   8   7   9    2.59    6.11
   9   7   0  315.90   16.70
  -9   7   0  295.14   16.55
   9  -7   0  307.55   16.68
   9  -7   0  308.92   19.98
   9   7   0  309.52   20.34
  -9  -7   0  304.55   16.77
   9   7   0  304.91   20.18
   9  -7   2  137.88   11.96
   9  -7   2  155.96   11.97
  -9   7   2  146.75   10.85
   9  -7   2  157.56    9.98
  -9   7   2  144.38   12.78
  -9  -7  -2  159.47   11.01
   9   7   2  148.23   10.43
   9   7   2  158.83   12.30
   9  -7  -2  151.14   10.61
  -9  -7   2  155.13   12.32
  -9  -7   2  161.69   11.00
   9   7   2  154.30   12.70
  -9  -7   2  155.47   12.87
  -9   7  -2  157.05   10.57
   9  -7   4   12.15    6.43
  -9   7   4   27.76    7.52
   9  -7   4   10.02    7.65
  -9   7   4   22.03    4.83
  -9  -7  -4   20.39    5.63
  -9  -7   4   24.49    8.04
   9  -7  -4   22.26    5.99
   9   7   4   27.57    6.10
  -9  -7   4   21.48    5.32
   9   7   4    4.36    7.43
  -9  -7   4   26.82    6.96
  -9   7  -4   10.78    5.01
   9  -7   6   -2.80    6.25
   9  -7   6    1.04    7.95
  -9   7   6   24.55    7.96
   9  -7   6   18.66    9.09
   9   7   6   -0.93    7.01
  -9  -7   6   22.09    8.47
   9  -7  -6   11.10    6.05
  -9  -7   6   29.23    7.18
   9   7   6   13.22    6.04
   9  -7   8   12.67    9.21
   9  -7   8   -6.06    5.71
   9  -7   8   -9.15    7.66
  -9   7   8   12.54    8.57
  -9  -7   8    6.30    8.63
   9   7   8    6.01    6.74
   9   7   8    0.57    5.89
  -9  -7   8   16.66    7.52
  10  -7   1   74.58    9.27
 -10  -7  -1   71.59    6.31
  10  -7   1   64.82    8.13
 -10   7   1   76.40    8.46
  10  -7  -1   73.73    6.31
  10   7   1   70.64    6.13
 -10   7  -1   76.34    8.78
 -10  -7   1   88.16    9.18
 -10  -7   1   72.46    9.92
  10   7   1   72.36    9.51
  10   7   1   75.39    9.66
 -10  -7  -3   31.23    5.94
  10  -7   3   22.67    7.45
  10  -7   3   31.46    4.47
  10  -7   3   35.08    6.93
 -10   7   3   46.52    7.72
 -10   7   3   37.11    5.41
 -10   7  -3   35.73    5.52
 -10  -7   3   45.31    7.18
  10   7   3   27.07    4.77
  10   7   3   23.77    7.47
 -10  -7   3   37.91    6.01
  10   7   3   40.17    6.49
  10  -7  -3   38.35    6.04
 -10  -7   3   49.93    7.97
 -10   7   5   20.88    4.61
 -10  -7  -5   12.64    5.81
  10  -7   5    0.52    7.86
  10  -7   5    2.43    6.85
 -10   7   5   26.84    8.30
 -10  -7   5   19.76    7.48
  10  -7  -5   13.09    6.51
 -10   7  -5   10.64    5.25
 -10  -7   5    8.80    4.93
 -10  -7   5   19.13    8.71
  10   7   5   18.06    6.46
  10   7   5    5.05    8.19
  10  -7   7   -2.39    7.54
  10  -7   7  -13.50    6.45
 -10   7   7   14.71    7.94
  10  -7   7   27.05   10.28
 -10  -7   7   10.47    7.31
  10   7   7    1.46    5.95
  10  -7  -7   -0.24    6.09
 -10  -7   7   10.57    8.60
  10   7   7   -2.21    7.16
  10  -7   9   -3.55    6.63
 -10   7   9   11.13    9.22
  10   7   9    7.81    6.84
 -10  -7   9   12.75    7.50
 -10  -7   9   -4.01    9.11
  10   7   9    3.51    6.32
  11   7   0   92.31    9.97
  11   7   0   84.76   10.84
 -11  -7   0   90.32    9.74
 -11   7   0   92.64    9.46
  11  -7   0   96.97   10.68
  11   7   0   77.45    9.61
  11  -7   0   93.43    9.50
 -11  -7  -2   96.40   10.09
 -11   7   2   98.92    9.98
  11  -7   2  105.51    9.62
  11  -7   2   96.05   11.33
 -11   7   2  127.39   12.39
 -11  -7   2  107.72   11.25
  11   7   2   97.03    9.92
 -11   7  -2   97.46   10.16
 -11  -7   2  115.51   10.76
  11   7   2  100.39   10.95
 -11  -7   2  106.69   11.81
  11  -7  -2  104.82   10.40
  11   7   2   98.65   11.63
 -11  -7  -4   27.64    6.43
  11  -7   4   16.93    7.58
 -11   7   4   50.39    9.03
 -11   7   4   33.58    5.76
 -11   7  -4   27.29    5.92
 -11  -7   4   32.85    6.31
 -11  -7   4   36.41    7.85
  11  -7  -4   29.95    6.68
  11   7   4   36.30    7.07
  11   7   4   15.60    8.30
 -11  -7   4   44.86    8.88
 -11   7   6   45.40    8.75
  11  -7   6   -1.59    6.94
  11  -7   6    0.84    8.01
  11  -7   6   38.31   10.38
  11   7   6   19.37    6.48
 -11  -7   6   37.11    8.81
  11  -7  -6   18.24    6.42
  11   7   6    9.94    8.10
 -11  -7   6   34.21    7.58
  11  -7   8   -1.89    9.70
 -11   7   8    5.50    8.95
  11  -7   8   -3.65    6.46
 -11  -7   8   12.53    7.94
 -11  -7   8    6.28    9.24
  11   7   8    2.94    6.33
  11   7   8    8.76    7.85
  12  -7   1   66.64    7.78
  12  -7   1   66.97    6.48
 -12   7   1   55.38    6.46
  12   7  -1   54.34    6.82
 -12  -7  -1   54.92    6.79
  12   7   1   58.79    6.57
  12   7   1   64.95    7.90
  12  -7  -1   56.44    6.50
  12   7   1   66.82    7.58
 -12  -7   1   61.06    6.75
  12  -7  -1   54.33    7.66
 -12  -7   1   61.91    8.15
 -12   7  -1   63.24    6.57
 -12   7   3   21.73    6.04
  12  -7   3   15.34    7.59
  12  -7   3   21.08    5.06
 -12   7   3   27.25    8.31
 -12  -7  -3   14.86    6.39
  12   7   3   15.50    5.56
  12   7   3   28.24    7.10
 -12  -7   3   27.76    8.55
  12  -7  -3   20.93    6.54
 -12  -7   3   19.62    6.58
 -12   7  -3   21.99    6.10
 -12  -7   3   24.94    7.57
  12   7   3   14.35    7.98
 -12  -7  -5   13.13    6.33
  12  -7   5    5.47    7.55
 -12   7   5   17.74    5.50
 -12   7   5   27.06    9.22
  12   7   5   11.33    8.49
 -12  -7   5    7.24    6.02
  12  -7  -5   18.12    6.83
 -12   7  -5   10.08    5.80
  12   7   5   20.41    7.04
 -12  -7   5   16.62    8.93
 -12  -7   5   29.83    8.01
  12  -7   7   -4.31    7.05
  12  -7   7   23.05   10.69
  12   7  -7    3.50    7.79
 -12   7   7   12.93    8.61
  12   7   7    0.87    6.81
  12  -7  -7   -6.33    6.53
 -12  -7   7   -6.19    9.22
  12   7   7    3.32    8.13
 -12  -7   7   11.80    7.98
  12  -7   9   -1.29    7.39
 -12  -7   9   -4.93    9.97
  12   7   9    4.64    7.76
  12   7   9    6.89    7.19
  13  -7   0   25.85    6.24
  13   7   0   23.85    6.20
 -13  -7   0   28.59    6.57
  13  -7   0   23.17    7.03
 -13   7   0   27.27    6.02
  13   7   0   28.21    7.07
  13  -7   2   57.09    8.58
 -13   7   2   48.88    6.67
  13  -7   2   51.73    6.56
 -13  -7  -2   54.95    7.32
 -13   7   2   53.53    8.52
  13   7  -2   49.95    7.52
  13  -7  -2   46.88    6.95
 -13   7  -2   55.36    7.03
  13   7   2   58.38    8.56
 -13  -7   2   59.54    8.14
 -13  -7   2   48.74    8.97
 -13  -7   2   52.19    7.17
  13   7   2   54.53    6.91
  13   7   2   51.91    7.95
 -13   7   4   26.77    9.05
 -13  -7  -4   17.99    6.76
 -13   7   4   20.98    6.21
  13   7  -4   29.53    8.21
  13  -7   4   17.44    8.22
  13   7   4   22.96    8.66
  13  -7  -4   18.89    7.07
 -13  -7   4   33.55    8.21
 -13   7  -4   20.05    6.41
 -13  -7   4   25.46    6.92
 -13  -7   4   34.36    9.37
  13   7   4   26.78    7.60
  13  -7   6    2.14    7.48
  13   7  -6   15.51    8.02
 -13   7   6   28.65    8.89
  13  -7  -6    8.11    6.62
  13   7   6   14.13    8.23
 -13  -7   6   19.05    8.92
  13   7   6   20.31    6.90
 -13  -7   6   25.11    7.91
  13  -7   8   13.63   10.47
  13  -7   8    1.31    7.30
 -13  -7   8    6.19    9.91
  13   7   8   13.30    7.84
  13   7   8   -0.19    7.06
 -14  -7  -1   33.92    7.28
  14   7  -1   33.50    7.53
  14  -7   1   33.97    6.78
  14   7  -1   18.06    6.63
  14  -7   1   31.27    7.96
 -14   7   1   31.82    6.57
  14  -7  -1   27.56    6.74
  14  -7  -1   27.09    7.49
  14   7   1   28.88    7.43
  14   7   1   30.10    7.80
  14   7   1   29.11    6.83
 -14   7  -1   31.94    6.72
 -14  -7   1   25.28    6.96
 -14  -7   1   31.24    8.26
 -14   7   3    5.94    6.22
 -14   7   3    3.32    8.39
 -14  -7  -3    7.20    6.99
  14   7  -3   -1.49    7.50
  14  -7   3    6.59    8.34
  14  -7   3   11.42    5.66
  14  -7  -3    0.53    6.73
 -14  -7   3   10.24    7.57
 -14   7  -3    6.48    6.57
 -14  -7   3    2.23    8.61
  14   7   3   -4.06    6.15
  14   7   3    5.19    7.32
 -14  -7   3    0.83    6.92
  14   7   3   -3.80    8.02
  14   7  -5   16.15    8.11
 -14  -7  -5    8.57    6.52
 -14   7   5   13.11    5.87
  14  -7   5    8.45    7.75
  14  -7  -5   16.33    6.96
 -14   7  -5    7.78    5.98
  14   7   5   14.13    8.20
 -14  -7   5    4.12    6.56
 -14  -7   5   13.08    9.10
  14   7   5   16.28    7.32
  14   7  -7    5.98    7.90
  14  -7   7   -6.47    7.56
  14  -7   7   10.80   10.53
  14  -7  -7    0.98    7.11
  14   7   7    2.43    7.46
  14   7   7    8.44    8.11
 -14  -7   7   10.86    9.86
  15  -7   0    9.06    6.72
  15   7   0    7.31    6.74
  15   7   0   10.65    7.65
 -15  -7   0   12.50    7.06
  15  -7   0    8.92    7.85
 -15   7   0    2.97    6.59
 -15   7   2    2.71    6.43
  15  -7   2   12.10    8.15
 -15  -7  -2    4.19    7.44
  15   7  -2    0.33    6.98
  15  -7   2    6.64    6.62
  15   7   2    7.62    8.14
 -15  -7   2   -2.70    8.38
 -15   7  -2    5.20    6.88
  15   7   2   -2.46    7.48
  15  -7  -2   -3.12    6.65
  15   7   2   12.34    6.88
 -15  -7   2    8.62    7.08
  15  -7   4   30.10    8.80
 -15   7   4   50.38    7.01
 -15  -7  -4   42.01    7.67
  15   7  -4   67.35    8.58
  15  -7  -4   54.17    7.78
 -15   7  -4   40.84    7.07
  15   7   4   60.04    9.30
 -15  -7   4   64.04    9.88
  15   7   4   55.57    8.56
 -15  -7   4   60.18    7.69
  15  -7   6   -2.15    7.95
 -15   7   6   -0.06    5.43
  15   7  -6   15.62    8.11
  15  -7  -6    1.62    7.22
  15   7   6   14.96    8.28
 -15  -7   6    6.88    9.64
 -15  -7   6   -4.26    5.97
  15   7   6    8.90    7.84
  15  -7   8    4.55   10.86
  15  -7   8   -2.78    8.05
 -15  -7   8   17.61    9.77
  15   7   8    4.16    7.93
  15   7   8   13.54    8.44
 -16   7   1   12.07    6.82
 -16  -7  -1   10.26    7.61
  16  -7   1    6.25    7.08
  16   7  -1    2.86    6.99
  16  -7   1   11.64    8.32
  16   7   1   12.77    8.32
 -16  -7   1   13.71    7.19
  16   7   1    6.58    7.05
 -16   7  -1   13.52    6.95
  16  -7  -1    8.13    6.86
 -16  -7  -3   30.77    8.03
 -16   7   3   31.71    6.95
  16  -7   3   39.05    6.50
  16  -7   3   33.06    9.00
  16   7  -3   28.17    7.83
  16   7   3   28.73    9.12
  16  -7  -3   31.66    7.34
 -16  -7   3   33.76    9.51
 -16  -7   3   33.32    7.76
  16   7   3   23.22    8.39
  16   7   3   30.46    6.91
 -16   7  -3   26.60    7.25
 -16   7   5    8.80    6.28
  16  -7   5    6.91    8.25
  16   7  -5    9.83    8.16
 -16  -7  -5    4.04    6.93
  16   7   5    9.51    8.19
  16   7   5    8.06    8.48
  16  -7  -5    3.54    7.26
 -16  -7   5   -2.16    7.12
 -16  -7   5    6.29    8.98
 -16   7  -5    1.12    6.26
  16   7  -7   15.01    8.50
  16  -7   7    0.40    7.96
  16  -7   7    6.45   11.39
  16  -7  -7  -12.24    7.25
  16   7   7    4.27    8.14
 -16  -7   7   -2.50   10.32
  17   7   0    9.02    7.33
 -17   7   0    8.74    6.97
  17  -7   0    5.33    7.26
 -17  -7   0   22.56    7.75
 -17   7   2    2.26    6.77
  17  -7   2   -4.51    8.44
  17  -7   2    5.31    6.97
 -17  -7  -2    6.54    7.95
  17   7  -2   -2.10    7.35
  17   7   2    6.49    7.37
  17   7   2    3.29    8.75
  17  -7  -2    2.32    6.82
 -17   7  -2    4.19    7.16
 -17  -7   2   10.38    7.60
 -17   7   4   10.73    6.57
  17   7  -4   18.79    7.96
  17  -7   4   10.34    8.49
  17  -7   4   12.18    4.75
 -17  -7  -4   19.25    7.57
  17   7   4    3.58    5.17
 -17  -7   4   13.46    7.33
  17   7   4   11.32    8.02
  17   7   4   15.94    8.65
  17  -7  -4    7.52    7.16
 -17   7  -4    2.78    6.71
 -17   7   6   -2.81    6.20
  17   7  -6    3.45    8.49
  17  -7   6   -4.27    8.12
  17   7   6   13.17    8.55
  17  -7  -6   -2.71    7.36
  17   7   6   13.46    8.71
 -17  -7   6  -12.31    6.63
 -17  -7   6    7.38   10.32
 -18   7   1   11.87    6.98
  18   7  -1   -1.90    7.25
  18  -7   1    6.70    7.35
 -18  -7  -1    9.90    8.06
  18   7   1    7.79    7.17
 -18   7  -1   20.00    7.26
  18  -7  -1    6.21    7.06
 -18  -7   1    9.64    7.60
 -18  -7  -3   -3.43    7.79
  18   7  -3    2.11    7.64
 -18   7   3    3.09    6.53
  18  -7   3   -1.09    8.42
  18  -7   3    4.99    6.38
  18  -7  -3   -0.89    6.87
  18   7   3   -2.64    6.72
 -18   7  -3   -0.36    7.18
 -18  -7   3   -6.11    7.29
  18   7   3   -3.73    8.72
 -18   7   5    1.02    6.80
  18   7  -5    5.49    8.53
 -18  -7  -5   -2.53    7.50
  18  -7   5    1.56    8.56
 -18  -7   5  -12.20    7.63
  18  -7  -5    5.36    7.40
  18   7   5    9.35    8.63
 -18   7  -5   -7.87    6.59
  18   7  -7   -0.88    9.01
  18  -7   7   -0.12    8.47
  18   7   7    7.79    8.87
  18   7   7    0.80    8.70
  18  -7  -7   -7.89    7.97
 -19   7   0    7.75    7.02
 -19  -7   0   12.24    7.75
  19   7   0   11.17    7.14
  19  -7   0    8.46    7.35
 -19  -7  -2   16.05    8.16
 -19   7   2   10.93    6.86
  19  -7   2    5.85    8.85
  19   7  -2   11.89    7.45
  19  -7   2   15.79    7.23
 -19   7  -2    8.26    7.42
 -19  -7   2   25.88    7.67
  19  -7  -2   12.14    6.96
  19   7   2   19.90    7.48
  19   7   2   22.36    8.99
  19  -7   4    3.32    5.22
 -19   7   4   -0.28    7.18
 -19  -7  -4    0.75    7.87
  19  -7   4   -5.59    8.74
  19   7  -4    8.95    8.19
 -19  -7   4    3.33    7.70
  19  -7  -4   -0.27    7.33
 -19   7  -4   -6.41    6.97
  19   7   4   -4.75    5.64
  19   7   4    4.42    9.02
  19  -7   6  -11.19    8.60
 -19   7   6   -8.59    6.63
  19   7  -6   -2.33    8.88
  19   7   6   11.36    9.07
  19  -7  -6    3.87    7.84
 -20   7   1    4.00    7.01
  20   7  -1    4.29    7.20
  20  -7   1    1.56    7.55
 -20  -7  -1    9.95    8.06
 -20   7  -1    4.05    7.23
  20   7   1    9.95    7.56
 -20  -7   1   10.87    7.86
  20  -7  -1   12.42    7.25
 -20  -7  -3    3.43    8.32
 -20   7   3    0.86    6.82
  20  -7   3    5.67    8.93
  20   7  -3   -1.14    7.79
  20  -7   3    9.51    6.96
 -20   7  -3   -6.81    7.35
  20   7   3   -5.31    7.48
  20   7   3    8.49    9.34
  20  -7  -3    1.47    7.01
 -20  -7   3   -2.50    7.65
 -20   7   5  -10.33    7.08
 -20  -7  -5  -13.29    7.86
  20   7  -5   -7.60    8.64
  20  -7   5   -5.47    8.60
  20  -7  -5   -5.45    7.61
 -20   7  -5   -4.37    6.86
  20   7   5    4.50    9.02
 -21   7   0   -1.19    7.28
 -21  -7   0    0.45    8.04
  21  -7   0    2.76    7.54
  21   7   0    5.28    7.38
  21   7  -2    9.40    7.64
 -21   7   2   -6.02    7.05
  21  -7   2   -3.58    7.50
 -21  -7  -2    4.14    8.35
  21   7   2   -4.63    7.82
 -21  -7   2    5.60    8.01
  21  -7  -2   -1.85    7.18
 -21   7  -2  -10.13    7.49
  21   7  -4   -0.45    8.34
 -21   7   4  -12.94    7.35
  21  -7   4   -0.20    9.06
 -21  -7  -4   -6.03    8.35
  21  -7  -4   -1.94    7.45
 -21  -7   4  -14.57    7.97
  21   7   4   10.81    9.44
 -21   7  -4  -13.62    7.19
  21  -7   6   -1.59    9.21
  21   7  -6   -4.07    9.63
 -21   7   6  -19.35    7.51
  21   7   6    9.02    9.61
  21  -7  -6   -7.00    8.33
 -22   7   1    1.60    7.34
 -22  -7  -1    3.05    8.70
  22  -7   1    8.22    7.96
  22   7  -1    9.79    7.73
  22  -7  -1   13.11    7.51
  22   7   1   13.98    7.94
 -22   7  -1   10.18    7.75
 -22  -7   1    5.65    8.19
 -22   7   3    6.64    7.29
  22  -7   3   -5.61    7.29
  22   7  -3    3.59    8.22
 -22  -7  -3   -6.06    8.51
 -22   7  -3    1.28    7.53
  22   7   3  -14.24    7.63
  22  -7  -3   -0.36    7.35
 -22  -7   3  -10.15    8.05
 -22   7   5  -11.92    7.71
  22  -7   5    0.05    9.36
 -22  -7  -5  -17.78    8.37
  22   7  -5   13.26    9.37
 -22   7  -5  -14.09    7.41
  22   7   5   14.81    9.99
 -22  -7   5  -22.89    8.48
  22  -7  -5   -1.62    8.01
 -23  -7   0   -4.63    8.66
  23   7   0   -0.72    7.90
  23  -7   0    0.83    7.94
 -23   7   0  -10.71    7.76
 -23   7   2    3.38    7.36
  23   7  -2   10.28    8.02
  23  -7   2    2.30    8.05
 -23  -7  -2    2.88    9.04
 -23  -7   2   -0.79    8.36
 -23   7  -2    1.26    7.93
  23  -7  -2    0.67    7.58
  23   7   2    1.80    8.28
 -23   7   4  -18.26    7.87
  23   7  -4   -1.54    8.86
 -23  -7  -4  -16.58    8.78
 -23  -7   4  -13.42    8.57
 -23   7  -4   -9.93    7.65
  23  -7  -4   -1.14    7.86
  24   7  -1    1.02    7.93
  24  -7   1    2.27    8.21
 -24  -7  -1    4.79    9.17
 -24   7   1    2.01    7.64
  24   7   1    7.08    8.53
 -24  -7   1   -7.49    8.56
  24  -7  -1   20.12    7.94
 -24   7  -1    4.90    8.07
 -24  -7  -3  -11.85    9.41
 -24   7   3    1.87    7.74
  24  -7   3  -12.23    7.78
  24   7  -3    0.54    8.56
 -24   7  -3   -3.04    8.16
 -24  -7   3  -21.13    8.54
  24   7   3  -15.57    8.20
  24  -7  -3   -3.63    7.94
  25   7   0    0.31    8.34
 -25  -7   0   -3.58    9.27
  25  -7   0   -4.02    8.48
 -25   7   0   -5.97    8.19
 -25  -7  -2  -17.61    9.60
 -25   7   2  -13.11    7.75
  25   7  -2   -2.23    8.25
  25  -7   2   -8.98    8.70
  25   7   2   -9.80    9.05
 -25   7  -2  -12.95    8.30
 -25  -7   2  -16.56    8.69
  25  -7  -2    1.42    7.92
  26  -7   1   -7.49    8.63
  26   7  -1   -2.52    8.57
 -26  -7  -1  -14.16    9.84
 -26   7   1   -4.47    8.27
 -26   7  -1   -4.73    8.72
  26   7   1   -8.20    9.19
 -26  -7   1   -6.68    9.43
  26  -7  -1    2.03    8.60
   0   8   0  312.34   19.70
   0   8   0  311.18   16.17
   0   8   0  328.62   19.80
   0  -8   0  295.43   15.89
   0  -8   0  329.47   19.77
   0  -8   0  316.71   19.72
   0   8   2  257.26   12.84
   0  -8   2  269.02   13.55
   0  -8   2  194.32   16.41
   0  -8   2  245.59   12.53
   0  -8  -2  265.52   13.03
   0  -8   2  254.10   16.12
   0   8   2  217.55   15.87
   0   8  -2  234.66   13.52
   0   8   4   85.14    8.11
   0   8   4   79.17    8.54
   0  -8   4  106.38    8.15
   0  -8   4   84.74    9.01
   0  -8  -4  112.36    6.79
   0   8   6   15.60    5.41
   0  -8   6   13.66    5.74
   0  -8   6   12.17    5.23
   0   8   6   20.07    6.11
   0   8   8    1.95    5.81
   0  -8   8    1.54    6.10
   0   8   8    3.16    6.08
   0   8  10   -2.46    6.82
   0   8  10    1.46    7.04
   0  -8  10   -1.60    6.84
  -1   8   1  145.71   10.39
   1  -8   1  130.81    8.71
   1  -8   1  106.09   10.57
  -1   8   1  145.06    9.11
   1   8  -1  146.30    9.55
  -1   8   1  148.46   10.67
  -1  -8  -1  129.43    8.74
   1  -8   1  135.93   10.62
   1  -8   1  122.97    9.03
   1   8   1  129.61   10.50
   1   8   1  120.39    8.91
   1  -8  -1  151.43    8.85
  -1  -8   1  131.74    8.78
  -1   8  -1  153.54    9.39
   1   8   1  118.48   10.26
  -1  -8   1  141.35   10.41
  -1  -8   1  141.90   10.73
  -1   8   3   69.32    7.11
   1  -8   3   63.28    7.75
   1   8  -3   69.98    6.90
  -1   8   3   66.37    7.89
  -1  -8  -3   64.04    6.05
   1  -8  -3   69.39    6.01
  -1  -8   3   70.39    7.90
  -1  -8   3   66.82    7.10
   1  -8   5   29.17    5.27
   1   8  -5   21.54    4.64
  -1   8   5   33.46    6.48
   1  -8   5   44.92    5.62
  -1  -8   5   29.95    6.36
  -1  -8   5   25.31    5.38
   1   8   5   46.41    5.86
   1   8   5   45.41    6.00
   1  -8  -5   33.39    4.35
  -1   8   7    9.33    6.31
   1   8   7   16.59    5.84
   1   8   7   14.10    5.68
  -1  -8   7    5.63    5.34
  -1  -8   7    9.73    6.25
  -1   8   9   -3.36    6.34
  -1   8   9    1.88    6.33
  -1  -8   9    4.99    5.60
   1   8   9    5.35    6.17
  -1  -8   9    2.79    6.74
   1   8   9   -3.98    6.42
   2  -8   0  332.24   17.41
  -2  -8   0  341.40   21.24
   2   8   0  340.20   17.54
  -2   8   0  348.83   17.72
   2  -8   0  355.53   21.36
  -2   8   0  357.23   21.47
   2  -8   0  360.98   21.48
   2   8   0  344.71   21.35
   2   8   0  337.69   21.40
   2  -8   0  325.60   17.20
  -2  -8   0  330.62   17.41
  -2   8   2  174.35    9.80
   2  -8   2  158.59    9.21
  -2   8   2  165.63   11.69
  -2   8   2  160.16   12.39
   2  -8   2  161.59   10.71
   2   8  -2  172.33   10.83
  -2  -8  -2  167.26    9.70
   2   8   2  136.80   11.71
   2  -8  -2  167.98    9.62
  -2  -8   2  151.83   12.25
   2   8   2  141.27   11.69
  -2   8  -2  168.76   10.13
  -2  -8   2  161.88   11.82
   2   8   2  159.52    9.19
  -2  -8   2  166.13    9.46
   2  -8   4   40.51    5.63
  -2   8   4   47.19    6.27
   2  -8   4   67.41    7.05
   2  -8   4   52.72    6.95
   2   8  -4   36.79    4.78
  -2  -8   4   45.81    6.39
   2   8   4   43.77    5.45
   2  -8  -4   65.70    6.11
  -2  -8   4   48.53    5.43
  -2   8  -4   42.07    4.26
   2   8   4   48.87    7.01
  -2   8   6   30.90    6.68
   2   8  -6   31.06    4.83
  -2  -8   6   28.42    7.01
   2   8   6   12.53    5.94
   2   8   6   11.30    5.71
  -2  -8   6   16.96    5.53
  -2   8   8   11.02    6.56
  -2  -8   8   -0.40    6.98
   2   8   8   -2.07    6.32
  -2  -8   8    3.07    5.65
  -2   8  10   -0.13    7.26
  -2   8  10   -3.36    7.08
  -2  -8  10    1.12    7.12
  -2  -8  10    9.98    6.48
   3  -8   1  359.67   17.84
  -3  -8  -1  365.30   17.66
   3  -8   1  363.36   17.51
   3  -8   1  388.52   21.68
  -3   8   1  338.54   17.76
   3   8  -1  324.45   17.85
   3  -8   1  392.19   21.85
  -3  -8   1  283.34   21.80
   3   8   1  343.21   17.54
   3   8   1  366.10   21.68
   3  -8  -1  306.93   17.55
  -3  -8   1  297.57   17.58
  -3   8  -1  366.51   17.75
  -3  -8   1  298.08   21.62
   3   8   1  374.75   21.54
   3  -8  -1  315.21   17.09
   3   8  -3  115.72    8.81
  -3   8   3  130.34    9.81
  -3   8   3  116.14    9.24
  -3   8   3  108.75    7.39
  -3  -8   3  107.65    9.53
  -3  -8   3  108.07    7.24
  -3  -8   3  131.02   10.22
   3  -8  -3  120.49    7.95
  -3   8   5   43.59    6.87
   3   8  -5   37.08    5.34
   3  -8   5   66.65    8.20
   3  -8   5   24.71    5.27
  -3  -8   5   41.81    7.27
   3  -8  -5   38.48    4.76
   3   8   5   26.98    5.65
  -3  -8   5   38.31    5.88
   3   8   5   32.16    6.29
  -3   8   7   23.61    6.85
  -3  -8   7   18.72    7.32
  -3  -8   7   17.17    5.73
  -3   8   9   -1.99    6.70
  -3   8   9    4.99    7.04
  -3  -8   9    4.16    6.20
  -3  -8   9   -0.94    7.33
   4   8   0   20.31    5.15
   4   8   0   25.63    5.33
  -4  -8   0   15.77    4.98
   4  -8   0   25.21    5.05
   4   8   0   16.09    4.41
  -4   8   0   21.06    4.46
  -4  -8   0   11.27    4.27
  -4   8   0   29.35    5.42
   4  -8   0   18.56    4.06
   4  -8   0   20.41    4.92
  -4   8   2  200.36   13.58
   4  -8   2  207.45   13.60
   4  -8   2  207.93   10.65
   4   8  -2  173.94   11.63
   4  -8   2  158.48   13.51
  -4  -8  -2  214.05   11.16
  -4   8   2  196.06   11.11
   4  -8   2  201.72   11.88
   4   8   2  187.37   13.37
  -4  -8   2  188.99   13.46
   4   8   2  207.23   13.47
   4  -8  -2  193.65   11.42
  -4   8  -2  214.70   11.31
  -4  -8   2  183.39   14.17
  -4  -8   2  188.98   11.19
  -4  -8  -4   57.55    6.53
   4  -8   4   68.98    7.68
   4   8  -4   53.61    5.65
  -4   8   4   66.09    8.89
   4   8   4   52.75    7.32
   4  -8  -4   75.62    6.94
  -4  -8   4   64.92    7.72
  -4  -8   4   58.29    7.96
  -4   8  -4   52.45    6.34
  -4   8   6   33.59    7.46
   4   8  -6   33.93    5.70
   4  -8   6   36.49    9.14
  -4  -8   6   23.64    6.40
  -4  -8   6   26.37    8.19
  -4   8   8   10.08    7.07
  -4  -8   8    8.85    6.15
  -4  -8   8    3.89    7.69
  -4   8  10   -4.89    7.34
  -4  -8  10    9.74    7.26
  -4  -8  10   -3.67    8.07
  -5   8   1  165.55   10.67
   5  -8   1  190.51   12.52
  -5   8   1  142.30   13.26
   5  -8   1  198.00   13.15
   5  -8   1  185.00   10.75
  -5   8   1  167.34   12.69
   5   8  -1  153.68   11.49
  -5  -8  -1  186.01   11.16
  -5   8  -1  189.22   10.84
  -5  -8   1  140.90   12.67
  -5  -8   1  146.46   10.97
  -5  -8   1  144.68   12.29
   5   8   1  183.88   12.58
   5  -8  -1  165.54   10.94
   5   8   1  186.30   12.84
   5  -8   3   74.14    8.60
  -5  -8  -3   71.32    6.97
   5  -8   3   65.74    7.64
  -5   8   3   59.15    6.57
   5  -8   3   59.91    7.67
   5   8  -3   43.54    5.45
  -5   8   3   41.73    7.03
  -5   8  -3   72.96    6.77
   5  -8  -3   70.29    6.86
  -5  -8   3   40.54    7.08
   5   8   3   73.71    7.57
  -5  -8   3   55.39    6.66
  -5  -8   3   58.18    8.01
   5  -8   5   76.43    9.04
  -5   8   5   61.59    8.42
   5   8  -5   46.51    6.21
  -5   8  -5   32.29    4.76
   5  -8  -5   45.13    5.61
   5   8   5   57.00    7.80
  -5  -8   5   46.45    6.89
  -5  -8   5   41.19    8.53
  -5   8   7   25.18    7.49
   5  -8   7   27.16    8.97
  -5  -8   7   18.99    8.25
  -5  -8   7   16.20    6.25
   5   8   7   -1.65    6.91
  -5   8   9    0.69    7.19
  -5  -8   9    5.84    6.76
  -5  -8   9    4.07    8.13
   6  -8   0  175.97   11.07
   6   8   0  158.77   13.03
  -6  -8   0  166.46   13.10
   6  -8   0  178.39   12.59
   6  -8   0  183.07   13.61
  -6  -8   0  168.97   11.25
   6   8   0  168.95   12.88
  -6   8   0  184.03   11.02
   6   8   0  180.53   10.58
  -6   8   0  169.89   12.79
  -6  -8  -2  164.68   10.71
   6  -8   2  167.81   10.00
  -6   8   2  181.58   12.41
  -6   8   2  195.10   13.17
   6   8  -2  187.77   11.13
  -6   8   2  172.51   10.28
   6  -8  -2  165.77   10.54
   6   8   2  149.17   12.34
  -6  -8   2  185.72   12.97
   6   8   2  167.22   12.57
  -6  -8   2  170.51   10.67
   6   8   2  153.61   10.23
  -6   8  -2  159.14   10.42
  -6  -8   2  176.75   12.51
   6  -8   4   31.81    5.46
   6   8  -4   33.41    5.83
  -6  -8  -4   40.54    5.05
   6  -8   4   27.36    6.51
  -6   8   4   40.50    4.18
  -6   8   4   34.54    7.38
   6  -8   4   62.12    8.22
   6  -8  -4   40.00    5.18
  -6  -8   4   23.03    4.07
  -6   8  -4   40.92    4.54
   6   8   4   56.28    7.45
  -6  -8   4   28.12    7.65
  -6  -8   4   32.19    6.23
   6  -8   6   17.96    8.65
   6   8  -6   18.10    6.04
   6  -8   6    3.63    5.11
   6  -8   6   -8.89    7.09
  -6   8   6   22.42    8.25
  -6  -8   6   18.22    6.66
   6   8   6    6.40    5.71
  -6  -8   6   10.91    8.61
   6   8   6  -11.16    6.79
   6  -8  -6    8.90    5.47
  -6   8   8    7.24    7.30
   6  -8   8   -0.82    8.79
  -6  -8   8    7.00    6.73
   6   8   8    3.29    5.87
   6   8   8    3.10    6.98
  -6  -8   8    4.45    8.20
  -7  -8  -1  106.41    8.53
  -7   8   1   82.78    7.98
   7   8  -1   84.38    7.77
  -7   8   1   71.62    8.73
  -7   8   1   69.23    8.23
   7  -8   1   95.42    7.81
   7  -8   1   95.88    9.15
   7  -8   1  104.59    8.78
   7  -8  -1   77.73    7.98
  -7  -8   1   76.97    8.66
   7   8   1   95.09    8.98
  -7   8  -1   95.95    8.17
   7   8   1   95.57    9.29
  -7  -8   1   73.75    8.79
  -7  -8   1   81.33    8.27
  -7   8   3   39.32    4.66
   7   8  -3   38.48    5.59
   7  -8   3   42.53    5.72
  -7   8   3   43.97    7.04
   7  -8   3   42.39    6.71
  -7  -8  -3   43.89    5.16
  -7   8  -3   44.15    4.72
   7   8   3   52.43    7.31
  -7  -8   3   44.59    7.09
   7   8   3   41.39    6.84
   7  -8  -3   47.73    5.15
  -7  -8   3   41.09    4.93
  -7  -8   3   48.39    6.24
   7   8  -5   46.59    6.54
   7  -8   5   -1.30    7.48
   7  -8   5   45.91    9.38
  -7  -8  -5   26.29    5.38
   7   8   5   22.08    5.89
  -7  -8   5   40.99    7.08
  -7   8  -5   15.78    4.67
   7  -8  -5   35.80    5.85
  -7  -8   5   41.52    8.69
   7   8   5   -2.15    7.11
  -7   8   7   14.83    7.47
   7  -8   7   -4.21    5.18
   7  -8   7   13.94    8.68
   7  -8   7   -9.46    7.45
   7  -8  -7   -3.73    5.42
   7   8   7   -1.92    5.61
  -7  -8   7   10.59    8.24
   7   8   7   -9.85    6.86
  -7  -8   7   14.23    6.74
  -7   8   9    7.11    8.11
   7   8   9    2.28    6.25
  -7  -8   9    4.20    8.51
  -7  -8   9   13.49    6.90
   8   8   0   64.07    8.22
  -8  -8   0   58.43    5.34
   8   8   0   54.94    8.48
  -8   8   0   61.84    7.57
   8  -8   0   64.03    8.93
   8  -8   0   61.52    5.33
   8   8  -2  104.31    9.00
  -8   8   2   99.31    8.56
  -8  -8  -2  103.66    8.99
   8  -8   2   91.63    9.34
   8  -8   2  108.51    8.12
  -8   8   2   80.45   10.44
   8  -8   2   94.54    9.29
   8   8   2  100.77   10.16
   8   8   2  102.68    8.50
  -8  -8   2   95.51    9.74
  -8   8  -2  101.56    8.60
  -8  -8   2   87.32   10.38
   8   8   2   99.94    9.78
   8  -8  -2   95.70    8.90
  -8  -8   2   98.96    9.12
  -8   8   4   25.60    7.72
  -8  -8  -4   20.25    5.47
   8  -8   4   17.80    7.34
   8   8  -4   23.50    6.24
  -8   8   4   23.78    4.62
   8  -8   4   14.38    5.99
  -8  -8   4   17.69    4.97
  -8  -8   4   19.93    7.86
  -8   8  -4   24.02    4.89
   8   8   4   26.69    5.80
   8  -8  -4   20.94    5.74
  -8  -8   4   19.28    6.73
   8   8   4    5.38    7.47
   8   8  -6   11.57    6.37
   8  -8   6    4.50    8.33
   8  -8   6    3.16    5.80
  -8   8   6   21.38    8.16
   8  -8   6   24.61    9.78
   8   8   6   -7.99    7.42
  -8  -8   6   13.49    8.61
   8  -8  -6   13.99    5.94
   8   8   6    3.54    5.99
  -8  -8   6   19.99    7.03
  -8   8   8   17.00    7.56
   8  -8   8   -5.41    7.75
   8  -8   8   -5.23    5.83
   8  -8   8   13.27    9.06
  -8  -8   8   -0.46    8.25
   8   8   8    1.49    7.17
   8   8   8   -1.67    5.99
  -8  -8   8   11.11    7.28
  -9   8   1   82.30    8.53
   9  -8   1   84.54    8.33
  -9  -8  -1   86.49    9.33
   9  -8   1   83.53    9.78
  -9   8   1   81.91    9.58
   9   8   1   81.85    9.69
   9  -8  -1   91.29    8.62
  -9  -8   1   85.94    8.81
   9   8   1   81.48    6.45
  -9   8  -1   88.39    8.59
   9   8   1   84.85    9.71
  -9  -8   1   88.49    9.43
   9  -8   3   21.97    3.95
  -9  -8  -3   15.69    5.45
  -9   8   3   11.78    6.61
  -9   8   3   14.75    4.84
   9  -8   3   21.91    6.04
   9  -8   3   19.92    6.81
  -9  -8   3   15.90    6.35
   9  -8  -3   13.53    5.36
  -9  -8   3   12.22    7.07
   9   8   3   16.31    4.23
  -9  -8   3   12.89    5.20
   9   8   3   27.00    5.65
   9   8   3   11.31    7.01
  -9   8  -3   23.30    4.97
   9  -8   5   12.42    8.22
  -9   8   5   28.07    4.48
   9  -8   5   38.46   10.11
  -9  -8  -5   22.91    5.87
   9  -8   5    8.96    6.60
  -9   8   5   34.69    8.28
   9   8   5    5.57    7.55
  -9  -8   5   25.36    7.40
   9   8   5   16.77    6.32
  -9  -8   5   19.07    8.64
   9  -8  -5   25.28    6.43
  -9   8  -5   14.80    5.19
   9  -8   7   -0.79    8.16
  -9   8   7   20.75    7.78
   9  -8   7   21.15    9.32
   9  -8   7   -7.24    5.82
  -9  -8   7   15.47    8.52
  -9  -8   7   23.96    7.21
   9  -8  -7   -5.47    5.89
   9   8   7    3.35    7.24
   9   8   7    5.12    5.96
   9  -8   9  -14.84    7.54
  -9   8   9    9.73    8.23
   9  -8   9   -3.30    6.68
   9   8   9    5.87    7.02
  -9  -8   9   -6.93    8.78
   9   8   9    1.28    6.49
  -9  -8   9   13.70    8.08
  10   8   0   63.57    6.24
  10  -8   0   68.52    8.99
 -10   8   0   61.81    6.03
  10   8   0   62.36    8.81
 -10  -8   0   67.63    6.20
  10   8   0   71.64    7.19
  10  -8   0   68.92    6.16
  10  -8   2   70.28    9.67
 -10  -8  -2   74.38    6.73
 -10   8   2   81.68   10.82
 -10   8   2   78.39    8.80
  10  -8   2   75.24    8.32
  10   8   2   68.54    9.43
  10   8   2   71.45    8.72
 -10   8  -2   70.95    8.64
 -10  -8   2   71.06   10.31
  10   8   2   63.65   10.28
 -10  -8   2   70.83    9.74
 -10  -8   2   80.55    9.57
  10  -8  -2   70.64    8.76
 -10   8   4   17.23    7.92
  10  -8   4   10.57    7.74
 -10   8   4   13.40    5.09
  10  -8   4    4.64    6.87
 -10  -8  -4    5.87    6.02
  10   8   4    4.52    8.06
 -10  -8   4   18.06    5.79
 -10  -8   4   17.22    7.23
  10  -8  -4   14.17    6.27
 -10   8  -4    8.81    5.53
 -10  -8   4   13.39    8.21
  10   8   4   14.91    6.55
  10  -8   6   14.34    9.26
  10  -8   6   -7.50    6.26
 -10   8   6   13.58    7.92
  10  -8   6   -2.49    7.99
  10  -8  -6    0.31    6.13
 -10  -8   6   12.60    8.46
 -10  -8   6   15.98    7.34
  10   8   6    5.56    8.08
  10   8   6    9.97    6.13
  10  -8   8    4.72    9.49
 -10   8   8   12.37    8.19
  10  -8   8   -7.99    6.35
  10  -8   8  -13.84    7.88
  10   8   8    2.59    7.26
  10   8   8    3.62    6.22
 -10  -8   8    8.54    7.75
 -10  -8   8    3.23    8.99
  11  -8   1   47.12    6.95
 -11   8   1   37.10    5.55
 -11  -8  -1   37.78    6.01
 -11   8   1   34.95    6.84
  11  -8   1   40.28    5.39
 -11  -8   1   31.23    5.83
  11   8   1   47.25    7.02
  11   8   1   40.48    5.69
 -11  -8   1   36.50    7.09
 -11   8  -1   40.81    5.67
  11   8   1   42.60    6.56
  11  -8  -1   37.86    5.74
  11  -8   3   31.51    4.97
 -11   8   3   40.34    8.30
 -11  -8  -3   29.71    6.59
 -11   8   3   34.77    5.80
  11  -8   3   28.01    7.32
  11   8   3   37.88    6.95
  11   8   3   28.53    8.08
 -11  -8   3   37.54    8.46
  11  -8  -3   32.24    6.43
 -11   8  -3   27.42    6.07
 -11  -8   3   26.82    6.48
 -11  -8   3   33.24    7.48
  11   8   3   29.49    5.41
 -11   8   5   23.24    8.84
 -11   8   5   21.54    5.22
  11  -8   5    0.76    8.28
 -11  -8  -5   13.22    6.29
  11  -8   5    5.16    7.33
  11  -8  -5   18.01    6.80
 -11   8  -5    3.93    5.66
 -11  -8   5    9.16    5.76
 -11  -8   5   20.53    7.73
  11   8   5    5.79    8.44
 -11  -8   5   12.60    9.00
  11   8   5   19.57    6.87
  11  -8   7   23.75    9.76
  11  -8   7   -0.68    6.62
 -11   8   7    9.32    8.51
  11  -8   7   -9.73    7.87
  11  -8  -7   -2.10    6.44
  11   8   7    4.25    6.34
 -11  -8   7    7.84    9.17
 -11  -8   7    5.18    7.69
  11   8   7    5.62    8.20
  11  -8   9   -0.04   10.16
 -11   8   9   11.53    8.87
 -11  -8   9   18.22    7.98
  11   8   9   12.62    8.27
 -11  -8   9   -5.04    9.65
  11   8   9    5.20    7.18
 -12   8   0   13.35    5.63
  12  -8   0   12.24    5.65
  12   8   0    5.17    5.57
 -12  -8   0   12.45    5.79
  12   8   0   11.98    6.32
  12  -8   0   15.36    6.67
 -12  -8  -2   48.29    6.87
  12  -8   2   51.70    7.91
 -12   8   2   47.85    8.18
 -12   8   2   45.89    6.31
  12  -8   2   53.97    6.42
 -12  -8   2   46.24    6.79
 -12  -8   2   53.68    7.72
  12  -8  -2   43.04    6.53
  12   8   2   45.83    6.51
 -12   8  -2   47.15    6.57
  12   8   2   54.75    8.22
  12   8   2   50.78    7.52
 -12  -8   2   56.49    8.62
 -12   8   4    6.15    8.92
 -12  -8  -4    6.93    6.71
 -12   8   4    7.19    5.76
  12  -8   4    1.57    7.54
 -12  -8   4   13.30    8.91
  12  -8  -4    4.62    6.76
  12   8   4    0.39    8.42
 -12   8  -4   10.26    6.14
 -12  -8   4    7.03    6.52
 -12  -8   4   14.60    7.60
  12   8   4    9.91    6.98
 -12   8   6   43.82    9.33
  12  -8   6   38.21   10.61
 -12  -8   6   34.12    9.03
  12   8   6   27.22    8.78
  12  -8  -6   24.05    6.88
  12   8   6   27.71    7.00
 -12  -8   6   42.74    8.18
  12  -8   8   -3.99    6.86
 -12   8   8    5.02    9.34
  12  -8   8    8.00   10.10
 -12  -8   8   12.37    8.16
  12   8   8    3.13    6.98
 -12  -8   8    4.82    9.48
  12   8   8    7.54    8.24
  13  -8   1   49.22    7.99
 -13   8   1   38.60    6.40
 -13  -8  -1   44.27    7.00
  13   8  -1   37.58    7.01
 -13   8   1   46.43    7.77
  13  -8   1   49.78    6.42
  13   8   1   45.61    8.11
 -13  -8   1   37.69    6.79
  13  -8  -1   38.82    7.92
  13   8   1   41.93    7.51
 -13  -8   1   40.44    7.99
  13  -8  -1   43.79    6.73
 -13   8  -1   39.13    6.57
  13   8   1   39.32    6.72
 -13  -8  -3   10.86    6.81
 -13   8   3   23.75    8.50
  13  -8   3   20.43    5.44
 -13   8   3   17.45    6.26
  13   8  -3   12.92    7.76
  13  -8   3    9.97    7.64
 -13   8  -3   22.56    6.49
  13   8   3   13.30    7.32
 -13  -8   3   15.53    6.97
  13   8   3    4.79    5.93
 -13  -8   3   21.85    7.67
  13  -8  -3   15.36    6.77
 -13  -8   3   18.10    8.83
  13   8   3    9.22    8.20
 -13   8   5   35.02    5.84
  13   8  -5   35.21    8.54
 -13  -8  -5   28.10    6.71
 -13   8   5   45.89    9.63
  13  -8   5    7.18    7.78
 -13  -8   5   42.57    8.41
  13   8   5   30.73    8.73
 -13  -8   5   44.53    9.52
  13   8   5   30.98    7.52
 -13  -8   5   29.53    6.57
  13  -8  -5   28.88    7.17
  13  -8   7   11.98   10.18
  13  -8   7   -2.18    7.14
  13   8  -7   12.77    8.18
  13   8   7    4.19    7.16
  13  -8  -7  -11.04    6.63
  13   8   7   12.60    8.46
 -13  -8   7    0.35    9.64
  14   8   0    2.25    6.53
  14   8   0   12.98    7.39
 -14   8   0    6.34    6.41
  14  -8   0   11.91    7.61
 -14  -8   0   11.81    6.80
  14  -8   0    4.95    6.50
 -14  -8  -2   28.00    7.28
 -14   8   2   18.12    8.13
  14  -8   2   25.56    8.15
  14  -8   2   23.06    6.34
 -14   8   2   17.21    6.40
  14   8  -2   16.81    7.28
  14   8   2   27.82    8.34
 -14  -8   2   25.68    7.52
 -14  -8   2   27.55    7.04
 -14   8  -2   29.84    6.81
 -14  -8   2   22.05    8.59
  14  -8  -2   15.05    6.62
  14   8   2   23.60    7.53
  14   8   2   22.46    6.85
  14   8  -4   55.46    8.69
 -14   8   4   47.44    6.81
 -14  -8  -4   51.42    7.61
  14  -8   4   25.68    8.57
  14  -8  -4   43.84    7.49
 -14  -8   4   60.30   10.01
  14   8   4   34.54    9.16
 -14   8  -4   33.82    6.99
  14   8   4   47.02    8.31
 -14  -8   4   50.37    7.42
  14  -8   6    0.64    7.45
  14   8  -6    6.22    8.33
  14   8   6   11.96    8.30
  14   8   6    9.30    7.52
  14  -8  -6    2.31    6.85
 -14  -8   6   13.20    9.67
  14  -8   8    7.76   10.79
  14  -8   8   -2.77    7.68
  14   8   8    9.87    8.37
 -14  -8   8    5.82   10.24
  14   8   8   -1.77    7.58
  15  -8   1   25.99    8.28
  15   8  -1   15.49    6.92
 -15   8   1   22.37    6.61
  15  -8   1   28.71    6.91
 -15  -8  -1   23.62    7.62
 -15   8   1   21.38    8.22
  15   8   1   23.86    7.71
 -15  -8   1   26.07    7.42
 -15   8  -1   30.56    7.00
  15   8   1   16.63    7.03
  15  -8  -1   26.91    6.87
  15   8   1   26.91    8.23
 -15  -8  -3   12.72    7.56
  15   8  -3    4.83    7.85
 -15   8   3   19.22    6.66
  15  -8   3    9.96    8.33
  15  -8   3   22.43    6.12
 -15  -8   3   18.80    7.55
  15   8   3    5.89    6.65
  15   8   3    3.65    8.60
  15   8   3   13.53    7.77
  15  -8  -3    7.18    6.95
 -15  -8   3   13.19    9.10
 -15   8  -3   11.00    6.93
  15  -8   5    4.76    7.84
  15   8  -5    0.61    8.26
 -15  -8  -5    0.79    6.70
 -15   8   5   -3.22    6.05
  15  -8  -5    1.98    7.10
 -15  -8   5   -5.67    8.87
 -15   8  -5    1.57    6.24
 -15  -8   5   -1.18    6.82
  15   8   5    5.32    7.47
  15   8   5    2.02    8.39
  15  -8   7   -0.33    7.64
  15   8  -7    8.56    8.38
  15  -8   7    9.49   11.24
  15  -8  -7   -1.64    7.06
  15   8   7    8.30    8.40
 -15  -8   7    4.60   10.00
  15   8   7    5.74    7.89
 -16  -8   0   17.62    7.61
  16   8   0    1.39    7.01
  16   8   0    9.21    7.97
  16  -8   0    4.85    8.28
 -16   8   0    6.92    6.89
  16  -8   0    3.10    7.06
  16  -8   2    2.18    8.43
  16   8  -2    6.09    7.29
 -16   8   2    2.55    6.58
  16  -8   2    3.05    6.92
 -16  -8  -2   -0.33    7.83
 -16   8  -2    6.87    7.06
  16   8   2    8.91    7.85
 -16  -8   2   12.64    7.55
  16   8   2   13.22    8.63
  16  -8  -2   -0.18    6.92
  16   8   2   10.74    7.17
  16  -8   4   12.20    8.33
 -16   8   4   28.00    6.68
  16   8  -4   30.88    8.06
 -16  -8  -4   27.70    7.41
  16  -8  -4   23.16    7.18
  16   8   4   17.78    5.18
 -16  -8   4   31.89    7.32
 -16   8  -4   21.70    6.88
 -16  -8   4   32.11    9.23
  16   8   4   33.96    8.87
  16   8   4   33.59    8.06
  16   8  -6   18.44    8.50
 -16   8   6    4.64    5.89
  16  -8   6    5.18    7.91
 -16  -8   6    5.22    9.86
  16  -8  -6    3.60    7.20
  16   8   6    8.53    8.42
 -16  -8   6  -16.55    6.18
  16   8   6    9.83    8.14
  16  -8   8   -2.26    8.33
 -16  -8   8    4.15   11.38
  16   8   8    1.96    8.44
  17  -8   1   11.07    7.35
  17  -8   1    8.78    8.67
  17   8  -1    8.18    7.28
 -17  -8  -1   13.71    7.99
 -17   8   1    8.59    6.80
 -17  -8   1   17.79    7.62
  17   8   1   15.57    8.71
  17   8   1    7.04    7.35
  17  -8  -1    5.82    7.06
 -17   8  -1   15.83    7.19
 -17  -8  -3   15.36    7.94
  17   8  -3   13.11    7.65
  17  -8   3    7.68    8.46
 -17   8   3   13.85    6.67
  17  -8   3   17.38    6.43
 -17   8  -3    8.44    6.88
  17   8   3   15.31    6.92
  17   8   3   17.90    8.81
  17  -8  -3   14.43    7.04
 -17  -8   3   16.75    7.47
  17  -8   5   -0.78    8.18
 -17  -8  -5    4.82    7.39
  17   8  -5    4.77    8.48
 -17   8   5    2.91    6.47
 -17  -8   5   -3.43    7.35
 -17   8  -5    1.70    6.48
  17   8   5    4.30    8.42
  17   8   5    9.66    8.74
  17  -8  -5    3.17    7.29
  17  -8   7   -5.46    8.15
  17   8  -7    8.69    8.91
  17  -8   7    3.38   11.72
  17   8   7   14.33    8.79
  17  -8  -7    6.60    7.71
  17   8   7    2.32    8.51
 -18   8   0    5.15    7.12
 -18  -8   0   13.03    7.90
  18  -8   0    2.59    7.33
  18   8   0    2.85    7.30
  18   8  -2    3.53    7.31
 -18   8   2    2.48    6.58
  18  -8   2   -5.76    8.59
  18  -8   2    8.37    7.04
 -18  -8  -2    8.58    8.00
 -18  -8   2   10.41    7.56
 -18   8  -2    0.70    7.01
  18  -8  -2    6.36    7.04
  18   8   2    8.91    7.44
  18   8   2   15.90    8.86
  18  -8   4   -0.35    8.51
 -18   8   4    4.50    6.77
 -18  -8  -4    7.66    7.86
  18   8  -4   10.16    8.23
  18  -8   4    9.04    5.15
  18   8   4   15.87    8.94
  18   8   4    9.09    5.62
  18  -8  -4    6.00    7.26
 -18   8  -4    1.69    6.72
 -18  -8   4    8.81    7.66
 -18   8   6   -3.19    6.54
  18   8  -6    5.68    8.87
  18  -8   6   -3.59    8.42
  18   8   6    4.25    8.59
  18   8   6    9.99    8.72
 -18  -8   6  -15.89    6.88
  18  -8  -6  -12.98    7.50
  19   8  -1    6.46    7.28
  19  -8   1   20.91    7.38
 -19   8   1   12.60    6.88
 -19  -8  -1   17.42    8.18
 -19   8  -1   24.08    7.27
 -19  -8   1   27.24    7.84
  19   8   1   17.11    7.31
  19  -8  -1    8.62    6.99
  19  -8   3    0.66    8.53
 -19  -8  -3   11.28    8.18
  19  -8   3    2.89    6.68
 -19   8   3    4.01    6.77
  19   8  -3    2.62    7.77
  19   8   3    6.59    9.01
 -19  -8   3    0.63    7.61
 -19   8  -3    8.08    7.20
  19   8   3    5.53    7.12
  19  -8  -3   -5.17    6.90
 -19  -8  -5  -13.27    7.75
  19   8  -5    4.95    8.72
  19  -8   5   -4.61    8.59
 -19   8   5  -11.14    6.89
 -19   8  -5   -6.23    6.61
 -19  -8   5  -19.08    7.72
  19   8   5    9.71    9.11
  19  -8  -5   -1.28    7.41
  19  -8   7   -8.84    9.09
  19   8   7   11.32    9.44
  20  -8   0    0.64    7.40
 -20  -8   0    2.02    8.05
 -20   8   0    3.55    7.22
  20   8   0    9.27    7.31
  20  -8   2    7.31    7.44
  20   8  -2    9.47    7.59
 -20   8   2    9.68    6.90
 -20  -8  -2    5.71    8.44
 -20  -8   2   16.85    8.03
 -20   8  -2   -0.50    7.39
  20  -8  -2    6.51    7.23
  20   8   2    8.74    7.82
  20   8  -4   -3.40    8.30
 -20   8   4   -3.76    7.08
  20  -8   4   -1.35    8.84
 -20  -8  -4   -0.04    8.18
 -20   8  -4   -9.70    7.13
  20   8   4    7.57    9.24
 -20  -8   4   -2.41    7.89
  20  -8  -4   -5.61    7.25
  20  -8   6   -7.43    8.86
 -20   8   6  -12.55    7.08
  20   8  -6    3.46    9.43
  20  -8  -6   -4.96    8.07
  20   8   6   10.94    9.38
  21   8  -1    3.37    7.48
 -21   8   1    0.44    7.03
  21  -8   1    7.92    7.64
 -21  -8  -1    3.03    8.28
 -21  -8   1    6.20    8.18
  21   8   1   -2.39    7.70
  21  -8  -1    7.74    7.38
 -21   8  -1    2.76    7.44
  21   8  -3    5.88    8.04
 -21  -8  -3    0.98    8.57
  21  -8   3   -4.70    7.07
 -21   8   3    2.90    7.09
  21   8   3   -3.15    7.71
 -21   8  -3    0.31    7.46
  21  -8  -3    2.34    7.32
 -21  -8   3   -3.46    7.95
  21   8  -5   -0.38    9.12
  21  -8   5   -2.39    8.88
 -21   8   5  -13.41    7.42
 -21  -8  -5  -19.36    8.32
 -21  -8   5  -25.03    8.26
  21  -8  -5    1.71    7.76
  21   8   5    5.68    9.52
 -21   8  -5  -11.49    7.05
 -22  -8   0    3.10    8.50
  22   8   0    4.37    7.58
 -22   8   0   -1.44    7.57
  22  -8   0   -2.42    7.82
  22   8  -2   -1.62    7.77
  22  -8   2    9.61    7.95
 -22   8   2    0.00    7.28
 -22  -8  -2    8.77    8.71
 -22  -8   2    5.64    8.30
  22   8   2    2.51    8.23
 -22   8  -2   -6.03    7.62
  22  -8  -2    4.97    7.43
 -22  -8  -4   -6.81    8.75
  22   8  -4    3.30    8.66
 -22   8   4  -14.19    7.43
 -22  -8   4   -6.54    8.41
  22  -8  -4  -11.71    7.67
 -22   8  -4  -10.72    7.40
 -23   8   1    4.85    7.37
  23   8  -1   -0.99    7.78
  23  -8   1    3.93    7.81
 -23  -8  -1    1.26    8.82
  23   8   1    8.79    8.20
  23  -8  -1    5.17    7.77
 -23  -8   1    0.52    8.50
 -23   8  -1    2.86    7.82
 -23  -8  -3  -13.39    8.85
  23  -8   3   -4.18    7.56
 -23   8   3   -4.83    7.51
  23   8  -3    3.50    8.36
  23   8   3  -20.63    7.89
 -23  -8   3  -11.29    8.38
 -23   8  -3   -7.85    7.70
  23  -8  -3   -1.06    7.59
  23  -8  -5   -7.13    8.47
  24   8   0    0.37    8.19
 -24  -8   0   -1.70    8.97
 -24   8   0  -12.19    7.63
  24  -8   0    0.95    8.13
  24   8  -2    5.02    8.19
 -24  -8  -2   -5.64    9.38
  24  -8   2   -8.07    8.29
 -24   8   2   -9.15    7.40
  24  -8  -2   -0.31    7.73
  24   8   2   -9.20    8.56
 -24  -8   2   -3.89    8.68
 -24   8  -2   -6.76    8.17
 -24   8   4  -16.30    8.12
  24   8  -4    0.93    9.28
 -24  -8  -4   -9.73    9.45
 -24  -8   4  -24.54    8.90
 -24   8  -4  -13.44    8.03
  24  -8  -4   -9.67    8.33
  25   8  -1   -5.65    8.31
 -25  -8  -1   -2.98    9.51
 -25   8   1  -10.91    7.60
  25  -8   1   -7.18    8.23
 -25  -8   1   -3.96    9.11
  25  -8  -1   -2.30    8.18
  25   8   1   -4.48    8.77
 -25   8  -1   -5.44    8.28
  25  -8   3   -5.98    8.16
  25   8  -3   -6.98    8.88
 -25   8   3  -17.79    8.04
 -25  -8  -3  -15.79    9.89
  25  -8  -3   -6.99    8.04
 -25  -8   3  -20.50    9.06
  25   8   3  -20.95    8.67
 -25   8  -3  -12.05    8.45
 -26  -8   0  -10.82    9.58
  26   8   0   -8.41    8.76
 -26   8   0  -10.93    8.27
  26  -8   0   -6.14    8.76
  26  -8   2  -12.14    8.90
  26   8  -2   -1.83    8.67
 -26  -8  -2  -14.17   10.25
 -26   8   2   -9.37    8.16
  26   8   2  -15.07    9.48
 -26  -8   2  -10.16    9.32
 -26   8  -2  -17.86    8.75
  26  -8  -2   -5.75    8.27
   0  -9   1  244.95   13.59
   0   9  -1  260.26   13.95
   0   9   1  253.15   16.50
   0  -9   1  253.15   17.14
   0  -9   1  236.10   16.43
   0   9   1  259.79   16.79
   0  -9  -1  247.85   13.65
   0   9   1  242.81   14.05
   0  -9  -3   92.35    6.64
   0  -9   3   73.89    7.52
   0   9   3   67.24    8.37
   0   9   3   75.54    8.02
   0  -9   3   73.08    8.67
   0   9  -3   65.00    7.34
   0   9  -5   57.51    5.49
   0   9   5   75.57    7.68
   0   9   5   60.57    8.69
   0  -9   5   65.87    9.49
   0  -9   5   61.70    8.22
   0  -9   7   21.27    6.31
   0   9   7   23.03    6.49
   0  -9   7    6.69    5.30
   0   9   7   12.04    6.24
   0   9   9    2.90    6.25
   0  -9   9    1.08    6.83
   0   9   9   -2.21    6.69
   0  -9   9    1.76    5.77
  -1   9   0   59.85    7.07
   1  -9   0   52.03    6.49
   1  -9   0   67.44    8.00
   1  -9   0   64.87    7.83
  -1  -9   0   60.46    5.05
   1   9   0   65.56    5.33
   1   9   0   60.38    8.14
  -1   9   0   60.25    7.54
  -1  -9   0   59.10    7.88
   1   9   0   54.26    7.61
   1  -9   0   60.56    6.77
  -1   9   2   59.45    6.43
  -1  -9  -2   39.64    4.35
   1  -9   2   28.81    5.70
   1  -9   2   43.77    5.98
   1  -9   2   35.55    3.78
  -1  -9   2   51.61    7.38
   1   9   2   33.08    3.95
   1   9   2   20.27    5.58
  -1  -9   2   53.49    5.98
   1  -9   4   24.22    5.20
   1  -9   4   38.49    5.36
   1  -9   4   23.31    6.90
  -1   9   4   10.14    5.89
  -1   9   4   14.91    5.13
  -1  -9  -4   34.92    4.02
  -1  -9   4   15.63    4.87
   1  -9  -4   26.93    3.98
   1   9   4   39.83    5.52
  -1   9  -4   29.49    4.21
   1   9   4   44.03    5.82
  -1  -9   4   12.39    5.92
  -1   9   6   28.00    6.73
  -1   9   6   25.28    6.40
   1   9  -6   26.71    4.56
   1  -9   6   -4.55    5.46
   1  -9   6    6.40    5.88
   1   9   6    9.53    6.37
  -1  -9   6   18.30    6.58
   1  -9  -6    3.16    4.66
   1   9   6    8.22    6.01
  -1  -9   6   12.23    5.75
   1  -9   8    8.58    6.31
   1  -9   8   -0.24    5.34
  -1   9   8   -0.79    6.32
  -1   9   8    8.36    6.30
  -1  -9   8    3.50    5.54
  -1  -9   8    1.64    6.72
   1   9   8    2.26    6.41
   1   9   8    3.47    6.26
  -1   9  10   -4.53    7.50
   1  -9  10    9.34    6.77
   1  -9  10    2.83    7.00
   1   9  10   -7.81    6.73
  -1  -9  10   -0.99    7.47
  -1  -9  10    8.82    6.39
   2  -9   1  315.96   18.33
   2  -9   1  309.11   15.01
   2  -9   1  301.55   15.29
  -2  -9  -1  300.12   15.08
  -2   9   1  246.76   18.54
   2  -9  -1  234.28   14.36
   2   9   1  301.63   18.46
  -2  -9   1  243.27   18.47
   2   9   1  310.70   18.29
   2   9   1  291.52   15.10
  -2   9  -1  334.18   15.43
  -2  -9   1  249.35   15.14
   2  -9  -1  245.70   14.92
   2   9  -3  132.89    9.07
  -2  -9  -3  135.45    8.21
   2  -9   3   98.04    9.84
  -2   9   3  131.06    7.73
   2  -9   3  140.74    9.70
  -2   9   3  124.26   10.63
  -2   9   3  134.89    9.97
  -2  -9   3  132.88    7.49
  -2  -9   3  126.94   10.65
   2   9   3   97.44    9.90
   2   9   3  105.81   10.07
  -2   9  -3  123.12    8.81
   2  -9  -3  131.64    8.36
  -2  -9   3  132.18    9.92
   2  -9   5  100.59   10.64
  -2   9   5   68.22    9.56
   2  -9   5   60.72    8.82
  -2   9   5   72.51    8.82
   2   9  -5   55.94    5.78
   2  -9  -5   74.51    7.54
  -2  -9   5   70.62    8.85
   2   9   5   54.47    7.20
  -2  -9   5   67.31    8.00
   2   9   5   66.12    8.89
  -2   9  -5   46.66    5.31
  -2   9   7   16.57    6.39
  -2   9   7    9.09    6.22
   2  -9   7    2.29    5.45
   2  -9   7   -8.08    5.39
  -2  -9   7    7.99    5.78
  -2  -9   7   11.38    6.87
   2   9   7    7.30    6.16
   2   9   7   -2.30    6.50
  -2   9   9   -1.03    6.82
  -2   9   9   12.39    7.04
   2  -9   9   -4.30    6.10
  -2  -9   9    5.02    7.41
   2   9   9    8.63    6.44
  -2  -9   9    5.58    6.10
   3   9   0   14.35    4.43
   3  -9   0   21.76    4.94
  -3  -9   0   10.14    4.41
   3   9   0   14.43    5.39
   3   9   0   23.79    5.15
  -3   9   0   23.91    4.46
  -3  -9   0   22.47    5.29
  -3   9   0   19.33    5.18
   3  -9   0   22.05    4.99
   3  -9   0   22.01    4.19
   3  -9   0   27.87    5.34
  -3   9   2   77.57    8.78
   3  -9   2   89.70    8.36
   3  -9   2   89.20    6.96
   3  -9   2   71.72    8.37
   3   9  -2   91.52    8.56
  -3   9   2   91.91    8.33
  -3   9   2   96.75    7.47
  -3  -9  -2   98.40    7.43
  -3  -9   2   92.33    8.44
  -3   9  -2  104.94    8.02
   3  -9  -2   88.33    7.40
   3   9   2   91.81    6.46
   3   9   2   69.14    8.40
  -3  -9   2   80.01    9.40
  -3  -9   2   87.30    7.25
   3   9   2   85.86    8.67
   3   9  -4   46.70    5.41
  -3   9   4   55.18    7.97
  -3   9   4   65.91    7.18
   3  -9   4   48.24    7.47
   3  -9  -4   44.38    4.88
  -3  -9   4   44.45    6.09
  -3  -9   4   60.11    7.19
   3  -9   6   40.38    9.31
   3   9  -6   28.43    5.36
  -3   9   6   34.22    7.21
   3  -9   6   13.40    5.80
  -3  -9   6   19.27    7.84
   3   9   6   11.64    6.31
   3  -9  -6   13.76    5.02
  -3  -9   6   20.24    6.16
   3   9   6    5.68    6.95
  -3   9   8   -0.49    6.59
  -3   9   8    7.06    6.96
   3  -9   8   -3.26    5.98
   3   9   8   -3.42    6.74
  -3  -9   8   -1.55    7.45
  -3  -9   8   -3.97    6.01
   3   9   8    5.88    6.22
  -3  -9  10   -3.81    8.21
  -3  -9  10   11.35    6.71
  -4   9   1  140.06    9.62
   4   9  -1  126.06   10.08
   4  -9   1  130.54   10.91
   4  -9   1  129.04    9.55
  -4   9   1  140.27   11.62
   4  -9   1  118.63   11.44
  -4  -9  -1  130.65    9.94
   4  -9   1  121.90    9.83
  -4   9   1  146.25   10.88
  -4   9  -1  145.90    9.79
   4   9   1  113.13    9.00
  -4  -9   1  118.28   10.91
  -4  -9   1  136.68   11.45
   4  -9  -1  134.71    9.28
   4   9   1  117.88   11.00
   4   9   1  128.95   10.78
  -4  -9   1  132.82    9.69
  -4   9   3  172.68   12.34
   4   9  -3  158.30   10.44
  -4   9   3  148.68    9.43
  -4   9   3  158.65   11.64
   4  -9   3  127.71   10.72
   4  -9  -3  148.49    9.75
  -4  -9   3  170.36   12.41
  -4  -9   3  159.58    9.39
  -4  -9   3  148.11   11.75
   4  -9   5   59.82    8.54
   4   9  -5   24.04    5.43
  -4   9   5   33.74    7.50
   4  -9   5   29.83    5.83
   4  -9   5   11.46    6.54
   4   9   5   18.44    6.96
  -4  -9   5   18.57    6.11
   4  -9  -5   36.03    5.23
  -4  -9   5   25.18    7.91
   4   9   5   39.92    6.11
   4  -9   7   39.83    8.91
  -4   9   7   32.95    7.44
   4   9   7    3.75    6.11
  -4  -9   7   20.56    7.81
   4   9   7   -0.87    6.90
  -4  -9   7   18.74    6.21
  -4   9   9    6.41    7.43
  -4   9   9   -5.07    7.04
  -4  -9   9    8.07    6.74
  -4  -9   9   -3.23    7.79
   4   9   9    6.96    6.41
  -5   9   0   36.06    5.86
   5   9   0   29.10    5.80
   5  -9   0   31.48    4.72
   5   9   0   32.30    5.81
  -5  -9   0   32.51    5.59
   5  -9   0   34.41    5.77
   5   9   0   28.21    4.86
  -5   9   0   40.19    4.88
  -5  -9   0   25.12    4.82
   5  -9   0   36.67    5.60
  -5   9   2  112.98    9.67
   5  -9   2   76.04    8.23
  -5   9   2   94.53    7.76
   5  -9   2   63.53    8.62
   5  -9   2   87.88    7.17
  -5   9   2   96.67    8.55
  -5  -9  -2   87.72    7.96
   5   9  -2  103.03    8.43
  -5   9  -2   84.02    7.73
   5   9   2   82.28    8.49
   5   9   2   75.91    8.77
  -5  -9   2  107.49    9.43
   5  -9  -2   95.44    8.09
  -5  -9   2   91.87    8.66
  -5  -9   2   92.89    7.65
   5  -9   4   23.03    5.18
  -5  -9  -4   26.03    4.65
   5  -9   4   37.86    7.74
   5  -9   4   13.68    6.13
  -5   9   4   17.44    6.91
   5   9  -4   15.04    5.32
  -5   9  -4   22.46    4.30
  -5  -9   4   14.95    5.69
   5   9   4    8.22    6.15
   5   9   4   19.70    5.31
   5  -9  -4   22.85    4.83
  -5  -9   4   10.79    7.10
   5   9  -6   24.11    5.99
   5  -9   6   34.06    9.36
  -5   9   6   31.46    8.16
  -5  -9  -6   26.94    4.98
  -5  -9   6   21.02    8.70
   5   9   6    3.49    6.25
   5  -9  -6   14.02    5.38
  -5  -9   6   17.60    6.61
  -5   9   8    9.73    7.72
   5  -9   8   -3.36    5.70
   5   9   8   -3.66    7.42
   5   9   8    4.82    6.25
  -5  -9   8    1.16    7.99
  -5  -9   8    4.75    6.55
  -6   9   1  213.68   16.25
   6  -9   1  254.67   16.23
  -6   9   1  231.04   13.62
  -6  -9  -1  242.70   13.65
   6  -9   1  243.68   13.50
   6   9  -1  243.18   13.91
   6  -9   1  259.58   16.68
  -6   9   1  246.44   16.32
  -6   9  -1  246.82   13.55
  -6  -9   1  258.27   16.59
   6  -9  -1  227.84   13.56
  -6  -9   1  235.66   16.26
  -6  -9   1  234.21   13.59
   6   9   1  229.55   16.19
   6   9   1  246.95   16.37
   6   9  -3   95.51    9.35
  -6  -9  -3  126.42    8.66
  -6   9   3   98.27    7.92
   6  -9   3  117.76    9.62
   6  -9   3   88.59    9.73
  -6   9   3   70.65   10.48
   6  -9   3  105.89    9.78
  -6  -9   3   91.82   10.25
   6   9   3   99.81    9.73
  -6   9  -3  110.90    8.19
   6   9   3  113.17    9.50
   6  -9  -3  106.74    8.74
  -6  -9   3  102.57   10.03
  -6  -9   3  103.45    8.52
  -6  -9  -5   35.48    5.31
   6  -9   5   42.46    9.14
   6   9  -5   42.78    6.53
   6  -9   5    3.59    5.86
   6   9   5   20.84    6.01
  -6  -9   5   46.24    8.81
   6  -9  -5   34.05    5.63
  -6   9  -5   21.60    4.86
  -6   9   7   19.54    7.74
   6  -9   7   16.22    8.56
  -6  -9   7    8.55    8.49
  -6  -9   7   12.58    6.39
   6   9   7   -5.93    7.03
   6   9   7   -1.88    6.00
  -6   9   9    6.02    8.22
  -6   9   9    0.48    7.76
   6   9   9    3.98    6.61
  -6  -9   9   10.17    7.18
   6   9   9    3.36    7.45
  -6  -9   9    4.33    8.28
   7  -9   0   12.97    4.14
  -7   9   0   19.34    4.28
   7   9   0   12.77    5.12
  -7  -9   0   12.78    4.96
  -7  -9   0   11.56    4.30
   7  -9   0   10.37    5.15
   7   9   0   14.00    5.02
   7   9   0   20.23    4.43
   7  -9   0   12.26    5.01
  -7   9   2   63.98    7.52
   7   9  -2   76.82    8.65
   7  -9   2   65.44    7.22
  -7  -9  -2   68.83    8.41
  -7   9   2   73.30    8.62
   7  -9   2   67.08    8.43
   7  -9   2   50.58    8.10
  -7   9   2   72.82    9.69
   7  -9  -2   66.73    7.94
   7   9   2   63.69    8.61
  -7  -9   2   65.93    8.64
   7   9   2   67.56    8.61
  -7  -9   2   77.67    9.42
  -7  -9   2   71.58    8.18
  -7   9  -2   78.10    7.58
   7   9   2   64.67    7.61
  -7   9   4   11.01    4.32
   7  -9   4   10.33    7.33
   7  -9   4   10.36    5.68
  -7   9   4   19.61    7.57
   7   9  -4    7.82    6.01
  -7  -9  -4   11.39    5.27
   7  -9   4    8.37    8.47
   7   9   4   12.97    5.66
  -7   9  -4   16.58    4.82
   7   9   4    0.57    6.83
  -7  -9   4    8.23    7.85
  -7  -9   4    4.02    4.59
   7  -9  -4   12.20    5.30
  -7  -9   4   15.05    6.38
   7  -9   6    0.76    5.87
   7  -9   6    2.64    7.97
  -7   9   6    6.25    8.07
   7  -9   6   13.64    8.89
   7   9  -6    7.99    6.48
  -7  -9   6    6.66    8.85
   7   9   6    2.63    6.05
   7   9   6   -4.66    7.34
  -7  -9   6   10.90    6.84
   7  -9  -6    4.64    5.70
   7  -9   8   -2.70    6.01
   7  -9   8  -11.60    7.78
  -7   9   8    3.14    7.60
   7  -9   8    2.38    9.23
   7   9   8    4.48    6.23
   7   9   8   -2.67    7.41
  -7  -9   8    4.46    8.46
  -7  -9   8    9.15    7.11
   8  -9   1  220.02   15.81
   8   9  -1  231.93   13.03
  -8  -9  -1  219.68   13.53
   8  -9   1  221.91   15.64
   8  -9   1  204.59   13.00
  -8   9   1  223.51   15.46
  -8   9   1  236.14   13.17
  -8   9   1  231.41   15.64
  -8   9  -1  204.59   13.20
  -8  -9   1  231.40   15.33
   8   9   1  211.50   15.78
   8   9   1  223.48   15.80
   8  -9  -1  231.33   13.37
  -8  -9   1  231.63   13.39
  -8  -9   1  231.13   15.59
   8  -9   3   48.76    4.41
  -8   9   3   49.93    5.27
   8  -9   3   30.50    6.42
   8   9  -3   61.94    6.42
  -8  -9  -3   39.33    5.81
  -8   9   3   67.69   10.03
   8  -9  -3   54.00    5.76
   8   9   3   33.91    7.31
   8   9   3   46.53    6.41
  -8  -9   3   62.72    6.96
  -8  -9   3   64.53    8.00
  -8  -9   3   55.78    5.54
   8   9   3   44.37    4.63
  -8   9  -3   49.09    5.45
   8   9  -5   39.51    6.89
  -8   9   5   50.48    8.71
   8  -9   5   36.08    9.63
   8  -9   5   14.05    8.53
  -8  -9  -5   31.50    5.96
  -8  -9   5   40.41    8.98
   8   9   5   18.48    6.45
  -8  -9   5   34.19    7.25
  -8   9  -5   21.81    5.32
   8  -9  -5   35.04    6.31
   8  -9   7   11.68    8.97
  -8   9   7   18.36    7.91
   8  -9   7   -0.18    8.26
   8  -9  -7   -1.21    5.72
  -8  -9   7   25.14    6.83
  -8  -9   7   17.25    8.72
   8   9   7   -0.31    7.56
   8   9   7    1.40    6.09
  -8   9   9    4.28    8.70
   8  -9   9  -15.82    7.81
   8  -9   9   -8.58    6.50
  -8  -9   9    9.09    7.79
   8   9   9    5.82    7.49
  -8  -9   9    4.95    8.96
   8   9   9    7.77    6.59
   9  -9   0   83.55   10.13
   9  -9   0   68.39    8.66
  -9   9   0   76.49    8.80
   9   9   0   80.86    9.56
   9   9   0   74.03    9.94
  -9  -9   0   76.35    8.75
  -9   9   2   54.32    6.91
  -9  -9  -2   55.23    5.87
  -9   9   2   36.37    6.81
  -9   9   2   43.75    5.44
   9  -9   2   60.27    6.95
   9  -9   2   56.67    5.27
   9  -9   2   61.13    9.03
  -9  -9   2   49.39    7.33
  -9   9  -2   54.92    5.71
  -9  -9   2   49.00    6.63
  -9  -9   2   44.70    5.64
   9   9   2   58.02    7.31
   9  -9  -2   48.83    5.73
   9   9   2   55.43    8.71
   9   9   2   51.87    5.48
   9  -9   4   13.29    6.37
  -9  -9  -4    5.86    5.98
  -9   9   4    3.65    7.79
   9   9  -4   17.59    6.43
  -9   9   4    2.16    5.01
   9  -9   4   12.70    7.64
   9   9   4    6.15    7.70
   9  -9  -4    6.66    5.96
  -9  -9   4    9.41    6.94
   9   9   4   11.77    6.22
  -9  -9   4    4.03    8.04
  -9   9  -4    9.87    5.27
  -9  -9   4    7.99    5.59
   9  -9   6    0.80    8.10
   9  -9   6   -0.06    6.02
   9  -9   6   21.53    9.88
  -9   9   6   12.93    8.10
  -9  -9   6    9.33    6.92
   9   9   6   -4.76    7.63
  -9  -9   6    6.27    8.60
   9   9   6    8.77    6.23
   9  -9  -6    5.51    6.04
   9  -9   8   16.57    9.59
   9  -9   8    0.53    6.38
   9  -9   8   -2.19    8.40
  -9   9   8    7.61    8.56
  -9  -9   8    1.73    9.09
   9   9   8    6.10    7.53
   9   9   8    7.97    6.45
  -9  -9   8   12.15    7.73
  10  -9   1  118.22   11.50
 -10   9   1  123.13    9.82
 -10   9   1  118.20   10.66
 -10  -9  -1  126.88   10.36
  10  -9   1  115.78   10.05
  10   9   1  117.31   11.38
 -10  -9   1  127.06   10.24
 -10   9  -1  118.57   10.29
 -10  -9   1  121.80   11.13
  10   9   1  120.79   10.35
  10  -9  -1  120.59   10.47
  10   9   1  109.89   11.53
 -10  -9  -3   61.55    6.86
  10  -9   3   57.56    5.57
  10  -9   3   41.61    7.61
  10  -9   3   44.72    8.39
 -10   9   3   73.58    8.74
 -10   9   3   71.15    8.71
  10   9   3   50.58    8.61
  10  -9  -3   70.06    6.72
 -10  -9   3   70.68    8.16
 -10   9  -3   53.26    6.37
 -10  -9   3   75.97   10.86
  10   9   3   63.09    9.68
 -10  -9   3   61.05    6.78
  10   9   3   65.73    8.11
 -10  -9  -5   27.04    6.40
 -10   9   5   38.93    5.21
 -10   9   5   45.28    8.75
  10  -9   5   38.64   10.45
  10  -9   5    6.97    8.76
 -10   9  -5   18.89    5.67
  10  -9  -5   30.94    6.80
 -10  -9   5   31.09    5.63
 -10  -9   5   38.22    7.85
 -10  -9   5   45.82    9.38
  10   9   5   14.68    8.87
  10   9   5   26.27    6.96
  10  -9   7  -10.82    8.93
  10  -9   7   -9.76    6.50
  10  -9   7   33.18   10.42
 -10   9   7   19.24    8.21
 -10  -9   7   24.24    7.21
  10   9   7    1.85    6.33
  10   9   7    9.85    7.76
 -10  -9   7   19.15    8.97
  10  -9  -7   -3.54    6.16
  10  -9   9   -6.80    7.32
  10  -9   9    4.32   10.51
  10  -9   9  -17.85    8.28
 -10   9   9   14.11    9.90
  10   9   9    3.96    7.22
 -10  -9   9   17.39    7.65
  10   9   9    7.17    7.60
 -10  -9   9   -2.95    9.41
  11  -9   0    2.47    6.15
 -11  -9   0   -1.02    5.29
  11   9   0    4.89    5.85
  11   9   0    1.09    5.42
 -11   9   0    5.37    5.21
  11  -9   0    1.70    5.22
  11  -9   2   73.48    8.32
 -11   9   2   67.99    8.76
 -11   9   2   60.37    6.66
 -11   9   2   65.50   10.37
  11  -9   2   65.47    6.47
 -11  -9  -2   69.68    7.22
  11   9   2   78.16   10.51
  11  -9  -2   56.54    6.90
 -11  -9   2   64.86   10.28
 -11  -9   2   72.29    6.98
 -11  -9   2   65.91   10.41
  11   9   2   67.78    6.71
 -11   9  -2   71.53    6.75
  11   9   2   68.54   10.53
 -11  -9  -4    5.44    6.51
  11  -9   4    9.86    8.40
  11  -9   4    5.52    7.11
 -11   9   4    1.89    5.58
 -11   9   4    3.38    8.23
 -11  -9   4    3.19    6.31
 -11  -9   4    8.75    8.64
  11   9   4    2.68    8.31
 -11  -9   4    6.61    7.43
  11   9   4    6.05    6.76
 -11   9  -4    6.35    5.85
  11  -9  -4    0.97    6.49
  11  -9   6   -0.43    6.64
  11  -9   6   24.51   10.21
  11  -9   6    0.35    8.12
 -11   9   6   26.18    8.49
 -11  -9   6   16.47    8.80
  11  -9  -6   10.58    6.50
  11   9   6   11.17    6.49
 -11  -9   6   21.28    7.32
  11   9   6   12.49    8.56
  11  -9   8   -3.22    7.00
  11  -9   8    5.33    9.92
 -11   9   8    5.25    9.53
  11  -9   8  -12.77    8.68
 -11  -9   8   10.60    8.15
 -11  -9   8   -7.28    9.27
  11   9   8    8.18    8.34
  11   9   8    2.16    6.75
 -12   9   1   81.01    9.86
  12   9  -1   71.57    7.76
 -12  -9  -1   72.64    7.52
 -12   9   1   73.83    8.76
  12  -9   1   75.93    7.04
  12  -9   1   80.95   11.43
 -12   9  -1   80.31    7.33
  12   9   1   85.10    8.63
  12  -9  -1   80.27    7.30
 -12  -9   1   75.96    9.04
  12   9   1   83.56   11.19
  12   9   1   72.14    7.26
 -12  -9   1   75.52    7.48
  12  -9   3   43.65    5.78
 -12  -9  -3   43.60    7.36
  12  -9   3   33.07    8.02
 -12   9   3   58.32    9.31
 -12   9   3   45.82    6.41
  12  -9  -3   41.38    6.90
  12   9   3   32.61    8.74
  12   9   3   40.27    7.63
  12   9   3   44.55    6.24
 -12  -9   3   55.87    9.37
 -12   9  -3   40.83    6.69
 -12  -9   3   50.45    8.17
 -12  -9   3   37.63    7.02
  12  -9   5    8.09    7.18
 -12   9   5   32.92    9.23
  12  -9   5    1.10    8.56
 -12  -9  -5   23.60    6.66
 -12   9   5   25.35    5.61
 -12   9  -5   14.23    5.88
  12   9   5   18.35    6.99
 -12  -9   5   27.82    7.96
 -12  -9   5   26.47    9.22
  12   9   5    5.15    8.66
 -12  -9   5   21.56    6.15
  12  -9  -5   23.11    6.80
  12  -9   7  -13.90    6.86
  12  -9   7   14.01   10.68
 -12   9   7   13.46    9.72
 -12  -9   7    0.38    9.39
  12   9   7    2.66    7.09
  12  -9  -7   -7.60    6.56
 -12  -9   7   13.91    8.06
  12   9   7    5.22    8.60
  12   9   9    9.60    8.65
 -12  -9   9    2.84   10.48
  12   9   9    1.70    7.75
  13  -9   0   14.93    7.33
  13  -9   0   12.74    6.36
 -13  -9   0   22.55    6.60
 -13   9   0   18.44    6.18
  13   9   0   15.87    7.15
  13   9   0   11.54    6.24
  13  -9   2   27.23    7.92
 -13   9   2   22.08    7.84
 -13   9   2   28.41    8.02
  13   9  -2   25.13    7.54
 -13   9   2   23.14    6.29
  13  -9   2   28.55    6.43
 -13  -9  -2   27.04    7.12
 -13  -9   2   28.37    7.50
  13  -9  -2   23.51    6.81
  13   9   2   15.71    6.71
 -13  -9   2   24.79    8.49
 -13  -9   2   30.23    6.98
  13   9   2   24.31    7.33
 -13   9  -2   30.67    6.62
  13   9   2   26.88    8.19
 -13  -9  -4   15.49    7.13
  13  -9   4    5.60    7.96
 -13   9   4    9.92    9.37
 -13   9   4   12.70    6.07
  13   9   4   16.59    7.45
  13  -9  -4   14.49    6.95
 -13   9  -4    6.21    6.51
  13   9   4   11.60    8.82
 -13  -9   4   13.23    7.04
 -13  -9   4   13.72    8.06
 -13  -9   4   12.84    9.20
  13  -9   6   -2.87    7.14
  13  -9   6   15.27   10.61
 -13   9   6   19.35    9.24
  13  -9  -6    5.58    6.78
  13   9   6   16.05    7.46
 -13  -9   6   22.36    7.81
 -13  -9   6   13.28    9.05
  13   9   6   14.23    8.73
  13  -9   8   -3.30   10.42
  13  -9   8   -8.66    7.58
  13   9   8    8.19    8.60
 -13  -9   8   -2.61   10.12
  13   9   8    3.06    7.57
 -14  -9  -1   37.36    7.37
 -14   9   1   30.49    7.79
 -14   9   1   29.36    6.66
  14   9  -1   25.31    7.12
  14  -9   1   41.05    8.54
  14  -9   1   36.79    6.63
  14   9   1   37.86    7.89
 -14  -9   1   35.36    8.40
  14   9   1   40.88    8.43
  14  -9  -1   34.64    6.93
 -14   9  -1   42.02    6.96
 -14  -9   1   29.59    7.14
  14   9   1   29.54    7.05
  14  -9  -1   34.15    7.97
  14   9  -3   -6.17    7.87
 -14  -9  -3    2.84    7.26
  14  -9   3    6.33    5.75
 -14   9   3   11.91    6.34
  14  -9   3    6.90    7.77
  14  -9  -3    1.81    6.61
  14   9   3   -2.53    6.27
  14   9   3    2.25    7.48
 -14  -9   3    3.93    7.15
 -14   9  -3    3.39    6.57
  14   9   3    0.49    8.58
 -14  -9   3    8.14    8.95
 -14   9   5   22.83    5.88
  14  -9   5    2.40    7.71
  14   9  -5   24.09    8.66
 -14  -9  -5   20.14    6.74
 -14  -9   5   17.78    6.70
  14   9   5   14.88    8.58
 -14  -9   5   31.24    9.41
  14  -9  -5   28.63    6.94
 -14   9  -5   12.89    6.11
  14   9   5   17.82    7.26
  14  -9   7   -4.37    7.42
  14  -9   7   13.28   10.86
  14   9  -7   13.39    8.49
  14   9   7   15.80    8.62
 -14  -9   7   17.63    9.29
  14  -9  -7    8.33    7.16
  14   9   7    7.74    7.63
 -15  -9   0    9.94    7.31
  15  -9   0   -1.77    7.55
  15   9   0    4.34    7.71
  15   9   0   -3.90    6.84
  15  -9   0    6.31    6.93
 -15   9   0    5.37    6.66
 -15  -9  -2   14.26    7.52
  15  -9   2    2.68    8.24
 -15   9   2    9.33    6.50
  15  -9   2   13.24    6.74
 -15   9   2   -1.04    7.84
  15   9  -2   -0.68    7.53
  15   9   2   10.19    7.64
  15  -9  -2    0.81    6.90
  15   9   2    8.62    7.09
 -15  -9   2    8.38    8.68
  15   9   2   16.88    8.59
 -15   9  -2    7.03    6.88
 -15  -9   2   14.25    7.17
  15  -9   4   13.93    4.38
  15   9  -4   12.62    8.12
 -15  -9  -4   14.73    7.31
 -15   9   4   14.02    6.36
  15  -9   4    1.89    7.98
  15  -9  -4    9.71    7.07
  15   9   4   16.34    8.73
  15   9   4   13.67    7.46
 -15  -9   4   11.40    9.32
 -15  -9   4   11.82    7.12
 -15   9  -4   11.02    6.42
 -15   9   6    0.57    5.45
  15   9  -6    9.78    8.61
  15  -9   6    0.64    7.65
  15   9   6    4.69    8.50
 -15  -9   6   -5.50    9.91
  15  -9  -6   -5.51    6.99
 -15  -9   6  -17.45    6.01
  15   9   6    5.03    7.95
  15  -9   8   -9.01    8.32
  15  -9   8   -0.05   11.63
  15   9   8   -1.29    8.18
  15   9   8    4.11    8.75
 -15  -9   8  -12.45   10.57
  15  -9  -8   -8.67    7.49
  16  -9   1   14.93    6.84
 -16   9   1   18.92    6.84
 -16  -9  -1   12.50    7.84
  16  -9   1   18.16    8.72
  16   9  -1    1.93    7.11
 -16  -9   1   19.49    7.66
  16  -9  -1   14.35    6.97
  16   9   1   22.27    8.69
 -16   9  -1   21.30    7.27
  16   9   1   10.03    7.29
 -16  -9  -3   26.26    7.90
  16  -9   3   24.19    6.38
  16   9  -3   17.97    7.93
 -16   9   3   21.05    6.86
  16  -9   3   16.21    8.63
 -16   9  -3   24.97    7.07
 -16  -9   3   27.70    7.70
  16   9   3   24.86    8.15
  16   9   3   24.07    9.08
  16   9   3   30.67    7.05
  16  -9  -3   23.09    7.20
  16  -9   5    0.37    7.94
 -16  -9  -5    8.24    7.11
  16   9  -5    9.66    8.55
 -16   9   5   10.04    6.38
  16   9   5   15.81    8.79
  16  -9  -5   16.38    7.08
 -16  -9   5    1.49    7.11
 -16  -9   5    9.06    9.89
  16   9   5    7.18    8.17
 -16   9  -5   -1.49    6.38
  16  -9   7   -7.55    7.99
  16  -9   7    8.58   11.55
  16   9  -7   14.65    8.57
  16   9   7    6.27    8.28
 -16  -9   7    4.83   10.53
  16  -9  -7    3.69    7.34
  16   9   7    9.36    8.77
 -17   9   0    7.99    7.23
  17  -9   0    6.12    7.45
  17   9   0    8.19    7.32
 -17  -9   0   10.31    7.76
 -17   9   2   -9.58    6.48
 -17  -9  -2    5.67    8.06
  17  -9   2   -6.40    6.86
  17  -9   2   -7.58    8.43
  17   9  -2   -4.82    7.33
 -17   9  -2   -3.85    7.08
  17  -9  -2  -12.82    7.03
  17   9   2   -0.19    7.12
 -17  -9   2    8.84    7.41
  17   9   2    2.45    8.50
  17   9  -4   12.50    8.15
  17  -9   4    8.86    8.18
 -17   9   4    4.32    6.54
  17  -9   4   11.33    4.95
 -17  -9  -4    5.11    7.47
  17   9   4   17.71    8.94
 -17   9  -4   -0.58    6.67
  17  -9  -4   -4.34    7.03
  17   9   4    4.75    7.89
 -17  -9   4    8.92    7.34
  17   9   4    2.16    5.41
  17  -9   6   -3.02    8.35
 -17   9   6   -2.53    6.22
  17   9  -6    7.34    8.62
  17  -9  -6   -5.13    7.22
  17   9   6    2.77    8.37
 -17  -9   6  -15.26    6.59
  17   9   6   15.26    8.89
 -18  -9  -1   14.35    7.92
  18   9  -1    6.88    7.27
  18  -9   1   12.70    7.00
 -18   9   1   14.05    6.77
  18  -9  -1    6.99    6.98
 -18   9  -1    7.88    7.09
  18   9   1    8.42    7.37
 -18  -9   1   11.53    7.52
 -18   9   3    6.35    6.73
  18  -9   3    4.81    8.53
  18   9  -3    7.23    7.85
 -18  -9  -3    1.54    8.02
  18  -9   3    3.91    6.46
 -18  -9   3    9.13    7.62
 -18   9  -3    3.65    7.15
  18   9   3   12.79    8.96
  18  -9  -3    7.12    7.02
  18   9   3    2.10    7.05
  18  -9   5   -7.30    8.12
 -18  -9  -5   -4.17    7.77
 -18   9   5    0.95    6.70
  18   9  -5   -2.62    8.57
 -18   9  -5   -6.36    6.68
  18  -9  -5   -1.76    7.26
 -18  -9   5   -8.69    7.46
  18   9   5   11.26    9.02
  18  -9   7   16.03   12.20
  18  -9   7    1.83    8.69
  18   9  -7   15.26    9.49
  18  -9  -7   -8.34    7.85
  18   9   7   15.16    9.11
 -19   9   0   11.01    7.11
  19  -9   0    5.86    7.41
  19   9   0   12.11    7.36
 -19  -9   0   19.60    7.92
 -19   9   2    3.06    6.77
  19   9  -2   14.35    7.62
 -19  -9  -2   17.95    8.25
  19  -9   2   18.81    7.24
 -19   9  -2    9.63    7.20
 -19  -9   2   18.24    7.84
  19  -9  -2    7.68    7.22
  19   9   2   18.63    7.65
 -19  -9  -4   -2.03    8.11
 -19   9   4    4.36    6.96
  19   9  -4    0.30    8.44
  19  -9   4   -4.27    8.79
  19  -9   4    9.52    5.35
  19   9   4   -7.51    5.94
  19  -9  -4   -7.43    7.21
 -19  -9   4   -1.97    7.78
 -19   9  -4   -7.89    7.06
  19   9   4    5.78    9.11
 -19   9   6   -4.55    6.93
  19  -9   6   -5.54    8.73
  19   9  -6    7.14    9.42
  19  -9  -6  -11.64    7.76
 -19  -9   6  -16.64    7.25
  19   9   6    7.79    9.11
  20   9  -1   18.30    7.53
 -20  -9  -1   16.89    8.47
 -20   9   1   10.31    6.92
  20  -9   1    7.54    7.26
  20   9   1   12.96    7.52
 -20  -9   1    4.01    7.95
  20  -9  -1   18.05    7.26
 -20   9  -1    9.54    7.49
  20   9  -3    5.77    8.05
  20  -9   3    0.69    6.99
 -20   9   3    7.99    7.07
 -20  -9  -3  -13.03    8.41
  20  -9  -3    3.52    7.36
 -20   9  -3   -3.14    7.29
 -20  -9   3   -2.79    7.94
  20   9   3    1.18    7.40
 -20   9   5   -5.18    7.10
  20  -9   5   -0.87    8.91
  20   9  -5    4.91    8.97
 -20  -9  -5   -9.93    8.13
 -20   9  -5   -7.53    7.03
  20   9   5   13.44    9.48
  20  -9  -5   -0.63    7.56
 -20  -9   5  -24.96    7.92
  21   9   0   -3.25    7.51
 -21  -9   0    4.38    8.31
 -21   9   0   -1.16    7.33
  21  -9   0   -1.16    7.61
 -21  -9  -2    1.48    8.69
  21  -9   2   10.54    7.65
  21   9  -2   12.00    7.91
 -21   9   2   -2.36    7.04
  21  -9  -2    0.16    7.19
 -21  -9   2    7.15    8.24
  21   9   2   13.46    8.04
 -21   9  -2   -4.44    7.47
 -21  -9  -4   -5.69    8.47
  21   9  -4   -0.35    8.76
 -21   9   4  -11.45    7.21
  21  -9  -4  -12.20    7.62
 -21   9  -4  -14.32    7.19
 -21  -9   4   -8.81    8.19
 -21   9   6  -11.44    7.35
  21  -9   6   -0.92    9.65
  21   9  -6    9.02    9.95
  21   9   6   13.25    9.89
  21  -9  -6  -14.90    8.48
  22   9  -1    5.33    7.81
 -22  -9  -1    1.07    8.52
  22  -9   1    1.09    7.50
 -22   9   1    4.71    7.18
  22   9   1   -0.79    7.95
  22  -9  -1    8.60    7.55
 -22   9  -1    0.77    7.70
 -22  -9   1    3.05    8.47
 -22  -9  -3   -5.13    8.88
  22  -9   3   -4.76    7.31
  22   9  -3    3.79    8.20
 -22   9   3   -4.01    7.33
 -22  -9   3   -8.75    8.21
 -22   9  -3   -8.12    7.55
  22  -9  -3    0.18    7.39
  22   9   3   -3.04    7.92
 -22  -9  -5   -6.38    8.92
  22   9  -5    1.46    9.51
 -22   9   5   -7.18    7.82
  22  -9  -5   -8.19    8.19
 -22   9  -5  -11.50    7.39
 -22  -9   5  -23.42    8.84
 -23   9   0   -0.95    7.60
  23  -9   0    6.92    7.90
  23   9   0    4.16    7.82
 -23  -9   0   -5.02    8.71
 -23   9   2    0.25    7.32
  23  -9   2    3.65    7.97
 -23  -9  -2    2.80    9.07
  23   9  -2    6.56    8.07
 -23  -9   2   -3.33    8.54
 -23   9  -2   -0.27    7.97
  23   9   2   -0.80    8.44
  23  -9  -2    7.58    7.66
 -23   9   4  -15.28    7.79
  23   9  -4    5.28    9.13
 -23  -9  -4   -8.73    9.20
 -23  -9   4   -7.23    8.82
  23  -9  -4   -9.80    8.03
 -23   9  -4   -5.89    7.79
 -24   9   1   -5.33    7.36
 -24  -9  -1   -1.10    9.17
  24   9  -1   -5.16    7.96
  24  -9   1   -2.52    7.97
 -24  -9   1  -12.15    8.62
  24   9   1   -3.74    8.38
  24  -9  -1   -4.93    7.77
 -24   9  -1   -0.45    8.02
 -24   9   3  -10.09    7.75
 -24  -9  -3  -19.77    9.33
  24  -9   3  -13.81    7.81
  24   9  -3    3.63    8.93
 -24  -9   3  -13.37    8.77
  24  -9  -3   -4.57    7.82
 -24   9  -3  -10.20    8.16
  24   9   3  -16.13    8.41
  25  -9   0    5.26    8.28
 -25   9   0   -0.43    8.13
 -25  -9   0   -2.64    9.64
  25   9   0    7.87    8.59
 -25  -9  -2   -9.37    9.83
 -25   9   2   -5.63    7.80
  25   9  -2   -0.16    8.52
  25  -9   2  -11.69    8.60
  25  -9  -2   -0.64    8.11
 -25   9  -2  -11.31    8.54
  25   9   2   -8.22    8.89
 -25  -9   2  -12.61    9.17
 -26   9   1   -9.56    8.09
  26  -9   1   -5.42    8.86
 -26  -9  -1  -18.74    9.98
  26   9  -1    3.42    8.91
 -26   9  -1  -10.80    8.45
  26   9   1  -21.59    9.13
 -26  -9   1   -4.57    9.64
  26  -9  -1   -0.84    8.70
   0 -10   0  355.80   22.03
   0  10   0  347.66   21.82
   0 -10   0  321.42   17.91
   0  10   0  348.33   18.32
   0 -10   2  127.75   10.17
   0 -10  -2  125.64    8.48
   0  10   2   96.82   10.37
   0  10  -2  138.61    9.32
   0 -10   2   93.07   10.59
   0  10   2  116.93    9.94
   0  10   2  118.36    8.28
   0 -10   2  120.26    8.21
   0  10   4   26.84    6.09
   0  10   4   21.94    5.79
   0 -10   4   31.09    6.15
   0 -10   4   18.45    5.34
   0 -10  -4   29.35    4.33
   0  10  -4   18.79    4.55
   0  10   6   13.71    6.94
   0 -10  -6    0.36    4.76
   0  10   6   18.91    6.91
   0 -10   6   10.49    6.74
   0  10  -6   13.46    4.73
   0 -10   6    0.57    5.90
   0 -10   8    7.18    6.79
   0  10   8    8.27    6.70
   0 -10   8    4.45    5.80
   0  10   8   -0.14    6.66
   0 -10  10    6.59    7.19
   0 -10  10    0.35    7.45
  -1  10   1  220.29   12.65
   1 -10   1  219.49   14.80
   1 -10   1  207.60   12.64
  -1  10   1  213.58   15.14
   1  10  -1  226.95   13.15
   1 -10   1  188.23   15.24
   1 -10   1  216.76   12.54
  -1 -10  -1  200.81   12.50
  -1  10   1  225.40   14.89
  -1 -10   1  183.52   14.72
   1  10   1  190.21   12.79
  -1 -10   1  217.76   12.50
   1  10   1  227.06   15.16
  -1 -10   1  218.55   14.88
  -1  10  -1  235.89   13.03
   1 -10  -1  213.36   12.55
   1  10   1  197.68   14.74
  -1  10   3  246.61   11.92
  -1  10   3  192.94   15.74
   1 -10   3  233.94   15.41
   1 -10   3  257.55   13.66
  -1 -10  -3  241.07   12.39
   1  10  -3  212.48   12.86
  -1  10   3  215.92   15.24
  -1 -10   3  230.04   11.62
   1 -10  -3  239.48   12.42
   1  10   3  207.15   15.23
  -1  10  -3  221.07   12.80
  -1 -10   3  240.65   15.29
  -1 -10   3  203.07   15.87
  -1 -10  -5   95.15    7.67
   1 -10   5   64.11    8.81
  -1  10   5   62.03    7.90
   1 -10   5   68.41    9.94
   1  10  -5   60.39    6.09
  -1  10   5   59.32    8.10
   1  10   5   65.95    9.51
  -1 -10   5   62.08    8.80
   1 -10  -5   81.89    7.40
   1  10   5   73.40    8.04
  -1  10  -5   54.65    5.81
  -1 -10   5   65.94    8.10
   1 -10   7   12.02    6.47
   1 -10   7   -3.48    5.69
  -1  10   7   24.09    7.01
  -1  10   7   18.34    6.69
   1  10   7   15.42    6.54
  -1 -10   7    6.56    5.79
  -1 -10   7   14.05    6.88
   1  10   7   10.51    6.94
  -1  10   9    9.48    6.86
  -1  10   9   -4.05    6.93
   1 -10   9   -5.33    6.78
   1 -10   9    2.53    6.50
   1  10   9   -4.01    7.62
   1  10   9    3.54    6.79
  -1 -10   9   -0.94    7.36
  -1 -10   9    6.18    6.24
   2  10   0   77.53    8.79
   2 -10   0   85.73    7.92
   2  10   0   93.71    9.85
  -2  10   0   91.43    9.19
   2  10   0   83.56    9.18
  -2 -10   0   81.39    8.52
   2 -10   0   97.04   10.15
  -2  10   0   94.69    9.33
   2 -10   0   91.11    8.66
   2 -10   0   96.68    9.34
  -2 -10   0   92.38    9.66
  -2  10   2  123.28   11.00
   2 -10   2  137.87   11.39
   2  10  -2  125.25   10.10
  -2 -10  -2  149.19    9.19
   2 -10   2  142.35   10.90
   2 -10   2  149.39   10.37
   2 -10   2  142.13    8.81
  -2  10   2  117.68    9.07
  -2 -10   2  129.19    8.91
   2  10   2  152.09   10.91
   2  10   2  146.31   10.91
   2 -10  -2  125.86    9.31
  -2  10  -2  165.33    9.69
  -2 -10   2  116.04   10.96
   2  10   2  138.92    8.74
   2 -10   4   19.34    7.03
  -2 -10  -4    6.62    4.14
   2  10  -4    4.76    4.52
  -2  10   4    9.34    5.44
   2 -10   4   16.99    5.37
   2 -10   4    6.37    5.47
  -2  10   4    7.11    6.12
  -2 -10   4    7.13    5.13
   2 -10  -4   14.45    4.15
   2  10   4   12.28    5.68
   2  10   4   14.50    5.68
  -2 -10   4    5.50    6.18
  -2  10  -4   12.00    4.24
  -2  10   6   19.57    6.72
  -2 -10  -6    1.70    4.74
   2 -10   6    1.92    6.13
   2  10  -6   16.94    5.04
   2 -10   6   -2.77    6.15
  -2  10   6   17.92    6.96
  -2 -10   6   10.21    7.24
  -2  10  -6    1.09    4.54
   2  10   6    6.04    6.61
  -2 -10   6    9.91    6.07
   2 -10  -6    7.62    5.06
   2  10   6    3.88    7.24
   2 -10   8   -0.06    6.25
  -2  10   8   -2.17    6.70
  -2  10   8    7.61    6.93
   2 -10   8    3.72    6.36
  -2 -10   8   -6.14    5.93
  -2 -10   8   -1.12    7.41
   2  10   8    2.96    6.67
   2  10   8   -4.21    7.22
   2 -10  10    6.81    7.14
  -2 -10  10    8.26    6.60
  -2 -10  10   -0.38    7.99
   3 -10   1  491.59   28.05
   3 -10   1  456.09   22.59
   3 -10   1  451.20   22.35
   3 -10   1  464.62   27.64
  -3  10   1  401.71   27.85
   3  10  -1  464.02   22.93
  -3 -10  -1  460.19   22.52
  -3  10   1  456.00   27.87
  -3  10   1  441.62   22.59
   3  10   1  454.89   27.63
  -3 -10   1  413.25   27.81
   3 -10  -1  427.00   21.95
   3 -10  -1  417.74   22.35
  -3  10  -1  466.62   22.71
  -3 -10   1  431.29   22.53
   3  10   1  420.01   22.43
  -3 -10   1  452.00   28.02
   3  10   1  475.41   27.89
  -3  10   3  148.91   11.73
   3  10  -3  149.54   10.11
  -3 -10  -3  132.96    9.22
   3 -10   3  122.74   10.63
  -3  10   3  141.87   11.12
  -3  10   3  142.02    8.96
  -3 -10   3  143.24    8.82
  -3 -10   3  148.96   11.79
   3 -10  -3  140.43    9.28
  -3 -10   3  143.59   11.10
   3 -10   5   83.57    9.48
  -3  10   5   71.42    8.37
   3  10  -5   61.14    6.50
  -3  10   5   69.16    9.65
  -3 -10   5   73.43    8.88
  -3 -10   5   59.52    9.47
   3 -10  -5   81.95    8.18
  -3  10   7   19.85    6.71
   3 -10   7  -10.31    6.27
   3 -10   7    0.16    5.89
  -3 -10   7   21.40    6.16
  -3 -10   7   22.82    7.62
   3  10   7   -9.55    6.90
   3  10   7    5.42    6.27
   3 -10   9    1.30    6.67
  -3  10   9    4.30    7.70
  -3  10   9    2.63    7.36
   3 -10   9   -2.93    6.97
   3  10   9    4.19    6.92
   3  10   9   -5.73    7.61
  -3 -10   9    2.82    7.95
   4  10   0   14.89    5.69
  -4  10   0   15.11    4.72
   4  10   0   11.03    5.42
  -4 -10   0    8.65    4.55
   4  10   0    5.27    4.51
   4 -10   0   13.94    5.42
  -4 -10   0   16.39    5.50
   4 -10   0   11.42    5.40
   4 -10   0   12.40    5.53
  -4  10   0   19.00    5.58
   4 -10   0   14.22    4.33
  -4 -10  -2  103.85    7.83
  -4  10   2   92.12    7.78
   4 -10   2   81.92    9.57
   4 -10   2  101.79    9.00
   4 -10   2   95.56    8.51
   4 -10   2  100.68    7.19
   4  10  -2   86.22    8.58
  -4  10   2   80.15    8.66
   4 -10  -2   89.53    6.44
  -4 -10   2   82.80    8.73
   4  10   2   89.95    8.73
   4 -10  -2   86.92    7.68
  -4 -10   2   88.76    9.90
   4  10   2   96.39    8.90
  -4  10  -2  107.43    8.01
  -4 -10   2   79.80    7.46
  -4  10   4   26.64    6.18
   4  10  -4   21.25    5.31
   4 -10   4    4.74    5.40
   4 -10   4    2.59    6.21
  -4  10   4   33.79    6.74
   4 -10   4   19.23    7.33
  -4 -10  -4    9.65    4.54
   4  10   4   12.07    5.67
  -4 -10   4   27.61    7.08
   4 -10  -4   26.51    4.75
  -4 -10   4   21.02    5.67
  -4  10  -4    8.73    4.44
   4 -10   6   37.35    9.40
  -4 -10  -6   25.04    5.10
  -4  10   6   27.83    7.67
   4 -10   6    8.64    6.27
   4  10  -6   19.92    5.43
   4 -10   6   -6.34    6.88
   4  10   6    2.79    7.36
  -4 -10   6   13.53    8.55
   4  10   6   14.10    6.68
   4 -10  -6    8.83    5.31
  -4 -10   6   13.82    6.57
  -4  10   8    0.72    7.04
   4 -10   8    0.10    6.00
  -4  10   8    4.61    7.28
   4 -10   8   -4.77    6.83
  -4 -10   8    4.53    6.59
   4  10   8   -0.76    7.65
  -4 -10   8   -6.79    7.89
   4  10   8    2.07    6.47
   5 -10   1  191.97   12.27
  -5  10   1  203.54   15.08
  -5  10   1  218.08   12.27
   5 -10   1  232.54   14.80
  -5  10   1  206.86   14.62
   5  10  -1  210.65   12.65
   5 -10   1  214.16   12.41
  -5 -10  -1  221.33   12.69
   5 -10   1  228.14   15.32
  -5 -10   1  214.54   15.07
   5  10   1  214.37   14.69
   5  10   1  213.88   14.85
   5  10   1  196.46   11.91
  -5 -10   1  200.92   12.24
  -5 -10   1  200.05   14.67
   5 -10  -1  185.55   12.37
  -5  10  -1  220.06   12.52
  -5 -10  -3  209.46   11.25
   5 -10   3  177.42   12.26
   5 -10   3  157.54   13.61
  -5  10   3  172.36   14.42
  -5  10   3  195.98   13.64
   5  10  -3  206.00   12.26
  -5  10   3  191.34   11.04
  -5 -10   3  191.82   13.81
   5  10   3  192.27   13.62
  -5 -10   3  193.51   11.17
  -5  10  -3  192.70   11.25
   5 -10  -3  195.49   11.47
  -5 -10   3  170.69   14.31
   5 -10   5   31.27    6.62
   5 -10   5   19.73    7.82
  -5  10   5   50.04    8.22
   5 -10   5   70.08    9.23
   5  10  -5   47.15    6.42
  -5 -10   5   35.54    8.63
   5  10   5   14.07    7.80
  -5 -10   5   44.25    6.90
   5  10   5   39.96    6.79
   5 -10  -5   34.95    5.76
  -5  10   7   34.18    7.89
   5 -10   7   32.11    9.52
  -5 -10   7   13.79    8.26
  -5 -10   7   21.41    6.56
  -5  10   9   -0.48    7.51
  -5  10   9    8.87    7.79
  -5 -10   9    8.05    7.09
  -5 -10   9    0.66    8.21
   5  10   9    0.86    6.96
   5  10   9   -1.84    7.87
  -6  10   0   78.84    7.91
   6  10   0   69.79    8.03
   6  10   0   68.94    9.12
  -6 -10   0   66.66    5.88
  -6  10   0   76.92    8.84
  -6 -10   0   67.16    8.08
   6 -10   0   73.59    8.23
   6 -10   0   71.07    8.51
   6 -10   0   75.67    9.51
   6  10   0   70.34    8.18
   6 -10   2  106.02    9.81
   6  10  -2  148.50   10.37
  -6  10   2  152.78   11.85
  -6 -10  -2  121.36    9.86
   6 -10   2  117.90    8.97
  -6  10   2  142.30   10.89
  -6  10   2  129.38    9.10
  -6  10  -2  119.86    9.55
   6  10   2  113.50   10.79
   6  10   2  121.09   11.15
  -6 -10   2  134.97   10.88
   6 -10  -2  135.46    9.57
  -6 -10   2  124.47    9.58
  -6 -10   2  159.29   11.67
   6 -10   4   29.30    8.29
  -6  10   4   20.84    7.51
   6  10  -4   19.14    5.96
   6 -10   4   18.64    6.90
  -6 -10  -4   22.62    5.21
  -6  10   4   21.97    4.34
   6 -10   4   22.59    6.02
   6  10   4    4.90    6.83
  -6 -10   4   12.91    4.44
  -6  10  -4   31.41    4.83
   6 -10  -4   29.29    5.41
   6  10   4   23.68    5.91
  -6 -10   4   10.99    7.71
  -6 -10   4   14.14    6.22
   6 -10   6    6.07    6.23
  -6 -10  -6   18.90    5.49
   6 -10   6    0.45    7.85
  -6  10   6    8.78    8.07
   6 -10   6   19.26    8.70
   6  10  -6   11.61    6.39
   6 -10  -6    8.96    5.75
   6  10   6    1.57    6.47
  -6 -10   6    6.57    6.85
  -6 -10   6    8.16    8.73
   6  10   6   -2.98    7.52
   6 -10   8   -6.43    7.77
   6 -10   8   -3.31    6.27
  -6  10   8   -3.80    7.37
  -6  10   8   -0.21    7.70
   6 -10   8    5.35    9.13
  -6 -10   8    3.39    6.97
  -6 -10   8    3.25    8.37
   6  10   8    4.64    6.58
   6  10   8   -2.66    7.75
  -7  10   1  318.78   20.64
  -7  10   1  309.11   16.83
   7 -10   1  331.59   20.68
  -7 -10  -1  322.67   17.06
   7  10  -1  327.47   17.10
   7 -10   1  312.84   16.76
  -7  10   1  331.48   20.92
   7 -10   1  324.23   20.97
   7  10   1  321.29   20.68
  -7 -10   1  322.64   20.55
   7 -10  -1  306.01   16.86
  -7  10  -1  300.86   16.96
  -7 -10   1  310.09   20.57
   7  10   1  318.30   20.72
  -7 -10   1  308.95   16.86
   7 -10   3   97.71   10.66
   7  10  -3  122.24   10.85
  -7  10   3  128.50   10.45
  -7  10   3  107.24   12.24
  -7  10   3  109.61    8.84
  -7 -10  -3  111.29    9.28
   7 -10   3  110.55    7.69
   7 -10   3   83.82   10.82
   7 -10  -3  117.14    9.17
   7  10   3  105.14   10.49
  -7  10  -3  110.61    9.01
   7  10   3  102.88    8.06
  -7 -10   3  109.58   11.29
  -7 -10   3  103.91   10.86
  -7 -10   3  105.92    9.34
   7 -10   5   51.52    9.70
   7  10  -5   42.88    7.10
  -7  10   5   60.47    9.17
  -7 -10  -5   37.23    6.02
  -7 -10   5   54.09    9.37
   7 -10  -5   37.79    6.34
  -7 -10   5   44.84    7.51
  -7  10  -5   22.13    5.44
   7  10  -7   11.73    6.37
   7 -10   7   35.89    9.65
  -7  10   7   21.59    8.13
   7 -10  -7   -3.05    5.80
   7  10   7   -1.28    7.57
  -7 -10   7   18.33    7.20
  -7 -10   7   26.53    8.66
   7  10   7   -0.70    6.41
   7 -10   9  -21.40    8.57
  -7  10   9   -4.92    8.19
  -7  10   9   -1.93    8.51
   7 -10   9  -11.29    6.56
  -7 -10   9    5.50    8.79
   7  10   9    7.31    7.09
  -7 -10   9   11.07    7.78
  -8  10   0   69.68    6.00
  -8 -10   0   70.19    6.08
   8  10   0   59.58    9.03
   8 -10   0   64.51    5.85
   8 -10   0   74.24    9.74
   8  10   0   75.59    9.65
  -8 -10  -2   52.96    6.00
  -8  10   2   60.91    8.66
   8 -10   2   57.50    5.32
  -8  10   2   55.61    7.16
   8 -10   2   60.29    9.13
   8  10  -2   61.93    6.30
  -8  10   2   53.38    5.48
   8 -10   2   55.98    8.78
   8  10   2   53.45    5.42
   8  10   2   50.71    7.24
  -8  10  -2   54.23    5.68
  -8 -10   2   60.95    6.84
   8 -10  -2   53.45    5.75
  -8 -10   2   54.25    5.62
  -8 -10   2   63.28    7.63
   8  10   2   61.56    6.70
   8 -10   4   14.25    8.88
   8  10  -4    3.47    6.58
   8 -10   4    7.29    6.35
   8 -10   4   12.20    7.79
  -8 -10  -4    7.29    5.80
  -8  10   4    5.36    4.71
  -8  10   4    6.41    7.93
   8 -10  -4    2.90    5.86
  -8 -10   4    5.97    8.18
   8  10   4   -3.09    7.89
  -8  10  -4   18.68    5.32
  -8 -10   4    1.92    6.66
  -8 -10   4    1.80    5.32
   8  10   4   13.53    6.24
  -8 -10  -6   18.70    5.70
   8 -10   6    1.68    8.62
   8  10  -6    3.87    6.65
  -8  10   6   10.12    8.08
   8 -10   6   17.83    9.70
   8 -10   6    3.73    6.29
  -8 -10   6   12.02    8.67
   8  10   6    4.27    6.42
   8 -10  -6   -0.43    5.88
   8  10   6   -4.81    7.84
  -8 -10   6    9.75    6.94
  -8  10   8    6.08    7.91
   8 -10   8    8.12    9.55
   8 -10   8   -5.88    8.71
   8 -10   8   -4.39    6.60
  -8 -10   8    8.08    7.44
   8  10   8   -2.81    7.89
  -8 -10   8   -1.10    8.76
   8  10   8   -1.53    6.50
  -9  10   1  216.93   15.38
  -9 -10  -1  211.64   13.48
   9 -10   1  205.33   15.38
   9 -10   1  203.01   15.57
  -9  10   1  220.82   13.15
   9 -10   1  198.29   12.75
  -9 -10   1  224.55   13.26
   9  10   1  196.71   15.49
  -9  10  -1  187.52   13.03
  -9 -10   1  227.06   15.66
   9  10   1  215.53   15.55
   9 -10  -1  228.96   13.06
  -9  10   3   90.34   10.27
  -9  10   3   78.15    8.82
  -9 -10  -3   85.95    9.86
   9 -10   3   84.46   10.67
   9  10  -3   91.44   10.37
   9 -10   3   68.56   10.51
   9 -10   3   77.23    7.65
  -9  10   3   75.55    9.26
   9  10   3   73.01   10.51
   9  10   3   77.12    8.38
  -9 -10   3   84.13    9.77
   9 -10  -3   85.85    9.61
   9  10   3   76.84   10.15
  -9  10  -3   87.89    9.30
  -9 -10   3   75.37   10.49
  -9 -10   3   74.86   11.30
   9 -10   5    5.56    7.01
   9 -10   5   27.15    9.97
  -9 -10  -5   29.47    6.38
   9  10  -5   45.42    7.37
  -9  10   5   44.79    4.99
   9 -10   5    8.95    8.48
  -9  10   5   49.36    9.18
   9 -10  -5   32.90    6.48
  -9 -10   5   38.53    9.29
  -9 -10   5   47.52    7.98
   9  10   5   13.15    8.89
  -9 -10   5   27.70    5.19
   9  10   5   24.34    6.99
  -9  10  -5   25.66    5.76
   9 -10   7   -3.06    6.48
   9 -10   7   -5.64    8.65
  -9  10   7   30.30    8.43
   9 -10   7   35.38   10.13
  -9 -10   7   22.60    7.62
  -9 -10   7   17.06    9.04
   9  10   7    0.53    6.53
   9  10   7    5.34    8.09
   9 -10  -7   -2.40    6.11
   9 -10   9  -19.10    8.52
   9 -10   9  -14.86    7.08
  -9  10   9   10.77    9.30
  -9  10   9  -10.26    8.77
   9 -10   9    1.62   10.29
   9  10   9    4.87    7.27
   9  10   9    9.18    7.71
  -9 -10   9   -0.10    9.51
  -9 -10   9   15.11    7.49
 -10  10   0   44.95    5.68
  10 -10   0   49.45    5.52
  10 -10   0   49.38    7.08
  10  10   0   54.84    6.96
 -10 -10   0   40.69    5.77
 -10  10   2   92.42   11.11
  10 -10   2   72.11    8.96
  10 -10   2   71.45   10.46
  10 -10   2   78.99   10.31
 -10  10   2   83.11    9.44
 -10 -10  -2   93.04   10.35
 -10  10   2   78.32   10.38
 -10  10  -2   78.98    9.37
  10  10   2   77.00    9.38
  10 -10  -2   89.26    9.79
 -10 -10   2   80.00    7.07
 -10 -10   2   91.63   10.26
  10  10   2   77.55   10.72
  10  10   2   73.91   10.47
 -10 -10   2   83.34   11.04
  10 -10   4    3.18    6.88
 -10 -10  -4    7.19    6.46
 -10  10   4   -6.11    7.93
  10 -10   4   15.30    8.40
 -10  10   4   -0.02    5.37
 -10  10  -4    7.83    5.80
 -10 -10   4    1.21    6.09
 -10 -10   4   -2.97    8.45
  10 -10  -4   -0.65    6.19
 -10 -10   4    0.36    7.23
  10  10   4   10.28    6.70
  10  10   4   -3.65    8.34
  10 -10   6   -2.04    6.62
 -10 -10  -6   11.95    5.96
 -10  10   6    8.56    7.94
  10 -10   6    4.48    8.27
  10 -10   6   21.06    9.88
  10 -10  -6    2.37    6.13
  10  10   6    7.80    8.43
 -10 -10   6    5.49    8.68
 -10 -10   6    8.76    7.20
  10  10   6    2.37    6.52
  10 -10   8   -4.93    7.03
 -10  10   8    3.28    8.89
  10 -10   8   18.67    9.84
  10 -10   8  -11.05    9.00
  10  10   8    5.09    7.83
  10  10   8    0.43    7.03
 -10 -10   8   15.10    7.96
 -10 -10   8    6.88    9.59
  11 -10   1   87.74   10.99
 -11 -10  -1   76.06    7.17
  11 -10   1   81.24    9.32
 -11  10   1   68.72   10.34
 -11  10   1   77.62    9.51
  11  10   1   84.21   10.86
 -11 -10   1   63.25   10.24
  11 -10  -1   74.79    6.99
 -11 -10   1   73.15    7.03
  11  10   1   77.78   10.70
  11  10   1   75.64    7.01
 -11  10  -1   82.49    9.59
 -11  10   3   43.53    8.77
  11 -10   3   46.31    5.72
 -11  10   3   48.04    6.37
 -11 -10  -3   46.24    7.20
  11 -10   3   38.43    7.90
  11 -10   3   48.83    8.93
 -11 -10   3   59.11    9.12
  11  10   3   47.13    6.14
  11  10   3   47.93    7.71
 -11 -10   3   51.10    6.94
  11 -10  -3   50.32    6.99
  11  10   3   41.13    8.83
 -11 -10   3   49.77    7.96
 -11  10  -3   50.31    6.71
  11 -10   5   24.61   10.36
  11 -10   5   -5.42    8.45
 -11  10   5   40.94    8.92
 -11  10   5   30.35    5.31
  11 -10   5    2.95    7.15
 -11 -10  -5   32.37    6.72
  11  10   5   20.93    7.16
 -11 -10   5   21.98    6.07
  11 -10  -5   16.33    6.80
 -11  10  -5   13.07    5.95
 -11 -10   5   35.82    9.26
  11  10   5   14.96    9.02
 -11 -10   5   30.31    8.00
 -11  10   7   26.26    8.64
  11 -10   7  -11.60    9.11
  11 -10   7   29.10   10.65
  11 -10   7   -7.51    7.14
 -11 -10   7   15.92    9.78
  11  10   7    7.28    8.90
  11 -10  -7    0.05    6.41
 -11 -10   7   20.04    8.12
  11  10   7    7.35    7.03
  11 -10   9   -0.86    8.11
 -11 -10   9   19.48    8.03
  11  10   9   10.03    8.86
  11  10   9    1.85    7.81
 -11 -10   9    6.00   10.20
 -12 -10   0   22.24    6.41
  12  10   0   29.58    6.30
  12  10   0   28.96    7.03
 -12  10   0   23.55    5.97
  12 -10   0   27.78    7.45
  12 -10   0   18.09    6.00
  12 -10   2   25.43    6.12
  12 -10   2   27.96    7.84
 -12 -10  -2   25.54    6.89
 -12  10   2   25.88    6.25
 -12  10   2   28.83    7.84
 -12  10   2   27.47    8.15
 -12  10  -2   29.00    6.58
 -12 -10   2   25.05    6.60
 -12 -10   2   34.34    8.33
  12  10   2   31.65    7.32
  12  10   2   24.20    6.38
  12 -10  -2   24.41    6.41
 -12 -10   2   25.10    7.25
  12  10   2   24.93    8.13
 -12  10   4   -5.90    8.59
 -12 -10  -4   -1.70    6.91
  12 -10   4    1.10    7.42
  12 -10   4   -0.22    8.73
 -12  10   4   -3.56    5.83
  12  10   4   -2.30    8.87
 -12  10  -4   -5.86    6.19
  12 -10  -4   -3.07    6.67
  12  10   4   -0.06    7.22
 -12 -10   4   -4.77    6.73
 -12 -10   4    3.72    7.69
 -12 -10   4    0.37    9.02
  12 -10   6    3.39    8.57
  12 -10   6    1.84    7.15
 -12  10   6   11.86    8.80
 -12 -10  -6    9.40    6.30
  12 -10   6   20.13   10.37
  12  10   6   12.45    8.76
  12 -10  -6    7.14    6.56
 -12 -10   6   20.57    7.56
 -12 -10   6   19.64    9.02
  12  10   6    6.58    6.87
  12 -10   8   -4.77   10.25
  12  10   8    2.84    8.84
  12  10   8   -2.58    7.36
 -12 -10   8   -8.81    9.64
 -13  10   1   48.42    8.13
 -13  10   1   45.95    6.64
  13 -10   1   53.45    8.61
  13  10  -1   41.13    7.54
 -13 -10  -1   49.70    7.48
  13 -10   1   56.53    7.00
  13  10   1   46.73    7.03
 -13 -10   1   42.62    7.17
 -13 -10   1   48.12    8.54
  13 -10  -1   46.59    6.98
 -13  10  -1   58.07    7.10
  13  10   1   50.45    8.50
  13  10   1   51.15    7.95
 -13 -10  -3   41.30    7.48
  13 -10   3   33.04    5.97
 -13  10   3   36.75    6.55
 -13  10   3   47.24    9.45
  13 -10   3   29.08    8.28
 -13  10  -3   27.96    6.79
 -13 -10   3   48.47    9.48
  13  10   3   23.94    6.45
 -13 -10   3   39.18    7.25
  13  10   3   25.21    8.98
  13  10   3   31.81    7.83
 -13 -10   3   39.74    8.15
  13 -10  -3   34.71    7.21
 -13 -10  -5   45.84    7.61
 -13  10   5   53.35    6.53
 -13  10   5   80.88   10.51
 -13 -10   5   74.82   10.43
  13  10   5   50.50    9.76
  13 -10  -5   54.02    7.53
 -13 -10   5   53.79    7.18
  13  10   5   46.41    8.20
 -13 -10   5   65.62    9.19
  13 -10   7   -7.66    7.53
  13 -10   7   22.20   10.85
  13 -10  -7    6.62    6.91
  13  10   7   15.96    8.91
  13  10   7    6.68    7.59
 -13 -10   7   18.72   10.22
 -14 -10   0   -2.86    7.04
  14 -10   0    0.02    6.57
 -14  10   0    2.05    6.39
  14 -10   0   -0.83    7.75
  14  10   0   -9.33    6.52
  14  10   0    2.83    7.30
  14 -10   2   13.61    6.50
  14 -10   2   12.34    8.18
 -14  10   2    9.66    8.04
 -14  10   2   12.44    6.47
  14  10  -2    3.17    7.58
 -14 -10  -2    9.73    7.30
 -14  10  -2   14.07    6.80
  14  10   2   11.19    7.65
  14 -10  -2    5.02    6.82
  14  10   2   13.84    8.38
 -14 -10   2    5.49    7.11
  14  10   2    6.94    6.89
 -14 -10   2   11.93    8.72
  14 -10   4    5.11    7.87
 -14  10   4    6.36    6.15
 -14 -10  -4    9.97    7.21
  14  10   4   13.89    7.66
 -14  10  -4    5.23    6.47
 -14 -10   4    8.68    7.21
  14  10   4   10.18    4.82
 -14 -10   4    7.01    9.19
  14 -10  -4    6.28    6.97
  14  10   4    7.56    8.85
 -14 -10  -6   11.69    6.55
  14 -10   6   16.76   10.76
  14  10  -6   12.30    8.88
  14 -10   6   -2.04    7.65
  14  10   6    9.60    7.89
 -14 -10   6    9.71    9.93
  14 -10  -6    4.43    6.64
  14  10   6   10.60    8.94
  14 -10   8    8.29   11.64
  14 -10   8   -1.22    8.25
  14  10   8    2.11    7.97
 -14 -10   8    2.12   10.87
  14  10   8   14.69    8.94
 -15  10   1   36.75    6.80
  15 -10   1   30.77    7.05
  15 -10   1   35.29    8.92
  15  10  -1   27.72    7.51
 -15 -10  -1   38.01    7.93
  15  10   1   34.08    8.72
 -15  10  -1   47.39    7.49
  15 -10  -1   35.47    7.20
  15  10   1   29.27    7.44
  15  10   1   33.20    8.19
 -15 -10   1   38.73    7.60
 -15  10   3   35.66    6.88
  15 -10   3   37.56    6.41
  15  10  -3   28.86    8.37
  15 -10   3   29.13    8.66
 -15 -10  -3   26.27    7.97
  15  10   3   28.64    8.29
  15  10   3   34.66    7.16
 -15 -10   3   39.69    7.80
 -15  10  -3   29.87    7.19
  15 -10  -3   31.48    7.46
  15  10   3   27.21    9.39
 -15 -10   3   36.92    9.74
 -15  10   5   19.95    6.10
  15 -10   5   -0.25    7.86
 -15 -10  -5   21.20    7.18
  15  10  -5   17.29    8.85
 -15 -10   5   10.15    7.01
  15  10   5   20.05    8.83
 -15  10  -5    9.72    6.27
  15 -10  -5   20.46    7.22
  15  10   5   17.95    7.53
 -15 -10   5   25.59    9.49
  15  10  -7    7.73    8.85
  15 -10   7   23.07   11.10
  15 -10   7   -4.18    8.02
  15  10   7   17.73    8.73
 -15 -10   7   16.96   10.60
  15 -10  -7   -1.05    7.34
  15  10   7    5.14    8.09
 -16 -10   0    8.99    7.79
  16  10   0   -6.59    7.20
 -16  10   0    4.93    6.90
  16 -10   0   -1.97    7.15
 -16 -10  -2    8.06    7.79
  16  10  -2    2.57    7.59
  16 -10   2    3.96    7.11
 -16  10   2   -0.49    6.64
  16 -10   2    6.32    8.87
  16 -10  -2   -2.52    6.95
  16  10   2    7.36    7.46
  16  10   2    9.70    8.82
 -16  10  -2   12.92    7.15
 -16 -10   2   10.63    7.57
  16 -10   4    5.86    8.21
  16  10  -4   24.56    8.53
  16 -10   4   23.83    4.95
 -16 -10  -4    8.13    7.44
 -16  10   4   16.47    6.52
 -16 -10   4   24.84    9.43
  16  10   4   17.07    8.97
 -16 -10   4   20.77    7.50
 -16  10  -4    1.98    6.60
  16  10   4   16.36    7.84
  16  10   4   14.92    5.33
  16 -10  -4   13.57    7.17
  16 -10   6   -3.00    7.94
 -16  10   6   -3.25    5.80
  16  10  -6    3.25    8.86
 -16 -10   6   -3.26   10.32
  16  10   6   12.74    8.87
  16 -10  -6   -1.99    7.24
  16  10   6    6.53    8.43
  16  10   8    8.97    8.75
  16  10   8    7.74    9.11
  17 -10   1   15.00    8.99
 -17  10   1   18.72    6.85
  17 -10   1   21.12    7.12
  17  10  -1   15.20    7.48
 -17 -10  -1   17.99    8.22
 -17  10  -1   19.84    7.34
  17  10   1   24.99    8.87
  17  10   1   17.53    7.58
 -17 -10   1   17.08    7.80
  17 -10  -1   20.29    7.39
 -17  10   3   20.86    6.73
  17  10  -3   13.13    7.86
  17 -10   3   14.08    8.54
  17 -10   3   13.91    6.34
 -17 -10  -3    5.86    7.77
  17  10   3   13.98    8.84
  17  10   3   19.47    7.02
 -17  10  -3   11.72    7.05
  17 -10  -3   18.18    7.21
 -17 -10   3   19.14    7.67
  17  10  -5   19.33    8.87
 -17 -10  -5   10.52    7.60
  17 -10   5    8.48    8.26
 -17  10   5   11.03    6.62
  17  10   5   20.20    9.06
 -17 -10   5   -1.93    7.45
  17 -10  -5   17.74    7.33
  17  10   5   23.75    8.06
 -17  10  -5    4.48    6.54
  17 -10   7   12.76   11.82
  17 -10   7   -3.35    8.71
  17  10  -7   21.28    9.22
  17  10   7   19.99    9.15
  17 -10  -7   -1.27    7.89
  17  10   7    6.56    8.85
 -18 -10   0   18.20    7.92
  18 -10   0   11.72    7.34
  18  10   0   13.05    7.32
 -18  10   0    7.99    6.94
  18 -10   2    1.24    7.13
 -18  10   2   -1.67    6.58
  18  10  -2    2.86    7.41
  18 -10   2   -3.75    8.82
 -18 -10  -2   11.24    8.03
  18 -10  -2   -0.20    6.93
  18  10   2   13.25    8.88
 -18  10  -2   -2.24    7.20
  18  10   2    7.88    7.23
 -18 -10   2    1.29    7.52
  18 -10   4   -3.42    8.59
  18 -10   4   10.84    5.32
 -18 -10  -4   11.46    8.09
 -18  10   4    4.96    6.77
  18  10  -4    1.22    8.28
 -18 -10   4   -1.71    7.72
 -18  10  -4   -6.16    6.84
  18  10   4    7.57    9.10
  18 -10  -4  -10.12    7.28
  18  10   4    5.57    5.81
 -18  10   6   -6.95    6.52
  18 -10   6  -12.77    8.53
  18  10  -6    9.47    9.08
  18  10   6    7.06    9.03
  18 -10  -6   -4.01    7.50
  19  10  -1   14.79    7.40
  19 -10   1   11.68    7.07
 -19 -10  -1   13.77    8.12
 -19  10   1    4.99    6.74
 -19  10  -1   16.63    7.30
 -19 -10   1   13.23    7.74
  19  10   1    5.50    7.46
  19 -10  -1   12.65    7.17
 -19  10   3   10.24    6.92
  19  10  -3    6.84    8.08
  19 -10   3    0.89    6.78
  19 -10   3    3.86    8.97
 -19 -10  -3   -2.30    8.28
  19  10   3    1.73    7.42
 -19 -10   3    2.81    7.87
  19  10   3   16.91    9.38
 -19  10  -3    3.91    7.06
  19 -10  -3    4.56    7.20
 -19  10   5   -4.78    6.96
  19  10  -5    7.42    9.07
 -19 -10  -5   -2.65    8.13
  19 -10   5   -1.97    8.60
 -19 -10   5  -17.55    7.71
  19 -10  -5    4.68    7.56
 -19  10  -5   -5.87    6.56
  19  10   5   17.14    9.19
  19  10   7   12.82    9.47
 -20 -10   0   16.19    8.14
  20  10   0    5.70    7.45
  20 -10   0    0.67    7.49
 -20  10   0    3.93    7.22
  20  10  -2   14.58    8.04
 -20 -10  -2   10.66    8.56
  20 -10   2   12.98    7.53
 -20  10   2    4.47    6.83
 -20 -10   2   14.73    8.12
  20 -10  -2    5.53    7.29
  20  10   2   21.40    8.07
 -20  10  -2   -3.46    7.45
 -20  10   4   -1.36    7.06
 -20 -10  -4   -9.57    8.40
  20  10  -4   -3.74    8.61
  20 -10   4   -9.71    8.92
 -20  10  -4   -7.11    7.00
 -20 -10   4  -12.13    7.98
  20 -10  -4   -4.11    7.49
  20  10   4    5.84    9.45
  20 -10   6   -5.13    9.52
 -20  10   6  -12.29    7.36
  20  10  -6    5.06    9.83
  20  10   6    1.95    9.57
  20 -10  -6   -7.35    8.35
  21 -10   1    5.65    7.46
 -21  10   1    1.96    6.91
  21  10  -1    3.11    7.71
 -21 -10  -1   -4.63    8.75
  21  10   1    3.20    7.75
 -21  10  -1    6.26    7.52
 -21 -10   1    5.24    8.14
  21 -10  -1    3.66    7.41
 -21  10   3    5.92    7.24
  21  10  -3    2.66    8.40
  21 -10   3   -0.23    7.14
 -21 -10  -3   -1.10    8.74
  21  10   3   -7.05    7.67
  21 -10  -3    5.29    7.34
 -21 -10   3    0.81    8.22
 -21  10  -3   -3.29    7.48
 -21 -10  -5  -17.96    8.64
  21  10  -5    5.08    9.54
 -21  10   5  -10.67    7.40
  21 -10   5   -8.77    9.33
  21 -10  -5    0.27    8.03
 -21 -10   5  -19.80    8.45
  21  10   5    9.54    9.86
 -21  10  -5  -14.84    7.16
 -22  10   0    5.14    7.46
  22  10   0    8.30    7.93
  22 -10   0    1.80    7.76
 -22 -10   0   -4.91    8.54
 -22 -10  -2    1.21    9.11
  22 -10   2    0.90    7.87
  22  10  -2    4.76    8.12
 -22  10   2    5.78    7.14
 -22  10  -2    2.46    7.78
 -22 -10   2    2.12    8.56
  22 -10  -2   -3.47    7.47
  22  10   2    9.14    8.44
 -22  10   4   -8.10    7.51
  22  10  -4    5.49    8.97
 -22 -10  -4  -10.78    8.96
 -22  10  -4  -11.07    7.63
 -22 -10   4  -19.79    8.53
  22 -10  -4    0.53    7.74
  23 -10   1    0.75    7.85
 -23 -10  -1   -2.22    8.80
 -23  10   1    2.66    7.29
  23  10  -1    0.03    7.94
 -23  10  -1    0.49    7.70
  23  10   1    2.69    8.28
 -23 -10   1    4.54    8.75
  23 -10  -1    1.17    7.72
  23 -10   3   -4.27    7.60
 -23  10   3   -1.63    7.53
 -23 -10  -3  -16.36    9.23
  23  10  -3    7.09    8.73
  23  10   3   -9.67    8.19
 -23 -10   3  -13.96    8.60
  23 -10  -3    0.01    7.63
 -23  10  -3   -5.72    7.99
  24  10   0    8.54    8.20
 -24  10   0   -1.08    7.90
  24 -10   0    4.71    8.04
 -24 -10   0   -2.90    8.97
  24 -10   2   -0.48    8.51
 -24  10   2   -7.63    7.53
 -24 -10  -2   -0.58    9.59
  24  10  -2    0.06    8.41
  24 -10  -2    4.19    7.85
  24  10   2    4.66    8.84
 -24 -10   2   -1.43    9.02
 -24  10  -2   -8.57    8.24
  24  10  -4   -4.47    9.69
 -24 -10  -4  -10.60    9.64
 -24  10  -4  -14.33    8.11
  24 -10  -4  -11.83    8.15
  25  10  -1   -6.71    8.34
 -25  10   1   -3.21    7.73
  25 -10   1   -8.23    8.54
 -25 -10  -1  -15.62    9.50
 -25  10  -1   -4.95    8.22
  25 -10  -1  -14.07    8.05
  25  10   1   -6.38    8.84
 -25 -10   1  -11.51    9.28
  25 -10   3  -15.44    8.18
  25  10  -3    2.72    9.15
 -25 -10  -3  -19.10   10.01
 -25  10   3   -1.52    8.33
 -25 -10   3  -21.01    9.28
  25  10   3  -18.44    8.82
  25 -10  -3   -3.56    8.30
 -25  10  -3  -16.35    8.33
 -26  10   0    1.54    8.31
  26 -10   0    2.61    8.41
 -26 -10   0   -5.08   10.18
  26  10   0    6.24    9.16
   0  11  -1  109.41    9.94
   0 -11   1  102.27   10.79
   0  11   1  105.46    9.85
   0 -11   1  102.82   10.01
   0 -11  -1  105.53    8.61
   0 -11   1   97.28    8.91
   0  11   1  100.16   10.03
   0  11   1  103.71    9.20
   0  11  -3  214.28   13.67
   0 -11   3  274.33   16.49
   0 -11  -3  281.35   13.39
   0  11   3  213.10   16.22
   0  11   3  203.99   16.60
   0  11   3  276.98   12.61
   0 -11   3  204.99   16.75
   0 -11   3  259.92   12.41
   0  11  -5   70.66    6.41
   0 -11   5   76.58   10.86
   0 -11   5   78.05    9.69
   0  11   5   72.27   10.23
   0  11   5   72.60    9.90
   0  11   7   32.00    6.98
   0 -11   7   22.58    7.03
   0 -11   7    8.79    6.05
   0  11   7   15.72    7.20
   0 -11   9   -1.55    6.75
   0  11   9    0.81    6.72
   0 -11   9    5.40    7.30
   0  11   9    0.33    7.78
  -1 -11   0   12.32    5.60
  -1  11   0   10.06    5.36
  -1  11   0   10.72    4.96
   1  11   0   11.93    5.25
   1 -11   0   18.04    5.86
   1 -11   0   10.82    4.51
   1  11   0    9.20    5.01
  -1 -11   0    9.90    4.56
   1 -11   0   16.37    4.96
   1 -11   2   14.86    3.69
   1  11  -2   17.41    4.79
   1 -11   2   14.47    5.63
  -1 -11  -2   12.33    4.19
   1 -11   2   21.26    5.72
  -1  11   2   14.89    5.16
  -1  11   2   16.06    3.96
   1 -11   2   17.08    5.28
  -1  11   2   12.03    5.25
  -1 -11   2   21.93    5.30
   1  11   2   14.80    5.32
  -1 -11   2   14.53    3.67
   1  11   2   12.36    3.76
   1  11   2   12.14    5.26
   1 -11  -2   16.06    4.11
  -1 -11   2   14.00    5.77
  -1  11  -2   15.87    4.47
  -1  11   4    9.14    5.60
  -1 -11  -4    7.60    4.38
  -1  11   4   15.80    6.40
   1 -11   4   11.91    6.01
   1 -11   4   19.80    7.06
   1  11  -4   11.01    4.89
   1 -11   4    9.32    5.76
   1  11   4   12.91    6.14
   1  11   4   13.52    6.40
  -1  11  -4   10.57    4.67
  -1 -11   4   17.48    5.48
  -1 -11   4   19.89    6.55
   1 -11  -4   15.61    4.34
  -1  11   6   13.71    7.30
  -1 -11  -6   -3.06    5.07
   1 -11   6    1.52    6.38
   1 -11   6    3.97    6.99
  -1  11   6   17.54    7.34
   1  11  -6   15.31    4.96
   1 -11  -6    0.86    5.09
   1  11   6    2.70    7.07
  -1 -11   6   12.36    7.18
   1  11   6    2.32    7.21
  -1 -11   6    5.08    6.26
  -1  11  -6   -2.28    4.84
  -1  11   8    5.47    6.98
  -1  11   8   -0.55    7.05
   1 -11   8   -4.43    6.85
   1 -11   8   -0.51    6.53
   1  11   8    3.00    7.81
  -1 -11   8   -2.82    7.26
  -1 -11   8   -1.85    6.12
   1  11   8    8.73    6.69
  -2  11   1  400.23   20.93
  -2 -11  -1  424.85   20.75
   2 -11   1  453.02   25.53
   2 -11   1  427.35   20.85
   2  11  -1  396.85   21.13
  -2  11   1  393.44   25.51
   2 -11   1  417.80   20.66
  -2  11   1  384.96   25.73
  -2  11  -1  477.51   21.16
   2  11   1  443.28   25.44
   2 -11  -1  348.02   20.56
   2 -11  -1  354.60   20.08
  -2 -11   1  379.40   20.80
   2  11   1  461.40   25.65
   2  11   1  422.53   20.80
  -2 -11   1  371.60   25.54
  -2 -11   1  363.32   25.76
   2 -11   3  222.51   17.09
  -2 -11  -3  280.13   13.98
   2 -11   3  278.48   14.76
  -2  11   3  245.49   17.49
   2  11  -3  268.57   14.40
  -2  11   3  276.88   17.16
  -2  11   3  271.48   13.54
  -2  11  -3  214.46   14.09
   2 -11  -3  268.09   13.74
  -2 -11   3  258.74   16.98
  -2 -11   3  249.29   17.55
   2  11   3  226.46   17.18
  -2 -11   3  269.11   13.38
  -2  11   5  113.26   11.63
   2 -11   5  119.18   11.43
   2  11  -5   93.37    9.74
  -2  11   5  105.14   11.15
  -2 -11   5  106.91   12.21
   2 -11  -5  115.16    8.79
  -2 -11   5  104.28   10.82
  -2  11   7   19.32    7.07
   2 -11   7    5.13    6.64
  -2  11   7   19.54    7.11
   2  11   7   -3.46    7.61
   2  11   7   14.22    6.92
  -2 -11   7   13.35    6.24
  -2 -11   7   16.26    7.47
  -2  11   9   -1.78    7.44
  -2  11   9    3.25    7.66
   2 -11   9   -2.17    7.06
   2 -11   9    3.03    6.97
  -2 -11   9    2.11    6.58
   2  11   9   -0.63    7.17
  -2 -11   9   -0.12    7.85
   2  11   9   -2.49    7.67
  -3  11   0   24.31    5.54
  -3 -11   0   19.08    4.80
  -3 -11   0   24.66    5.87
   3 -11   0   23.95    5.70
   3  11   0   17.11    4.94
  -3  11   0   25.66    5.09
   3 -11   0   27.97    5.67
   3 -11   0   23.11    4.64
   3  11   0   22.34    5.63
   3 -11   0   26.97    5.33
  -3  11   2   46.62    6.02
   3 -11   2   49.18    6.21
   3 -11   2   36.39    6.01
  -3  11   2   46.91    7.29
  -3 -11  -2   32.12    4.63
   3 -11   2   38.58    4.17
   3  11  -2   44.13    5.25
  -3  11   2   41.60    4.57
  -3  11  -2   39.09    4.89
   3  11   2   38.84    4.30
  -3 -11   2   48.53    5.78
  -3 -11   2   46.47    6.32
   3 -11  -2   41.62    4.75
   3  11   2   35.99    5.89
  -3 -11   2   43.18    4.34
   3 -11  -2   47.79    4.57
   3  11   2   28.91    5.85
   3 -11   4    8.49    7.20
   3 -11   4    0.78    6.20
   3  11  -4    2.35    5.11
  -3 -11  -4   12.60    4.67
  -3  11   4   16.47    6.78
  -3  11   4   10.33    5.96
   3 -11   4    1.45    5.77
  -3 -11   4   13.05    6.87
   3 -11  -4   13.93    4.56
  -3 -11   4    7.77    5.58
   3  11   4    5.61    6.22
  -3  11  -4    5.61    4.68
   3  11   4    0.46    5.96
   3 -11   6   37.20    9.18
  -3  11   6   22.96    7.23
   3  11  -6   22.41    5.61
  -3  11   6   16.27    7.31
   3 -11   6    6.38    6.58
  -3 -11  -6    0.44    5.16
   3 -11   6   -7.11    6.95
   3 -11  -6    3.15    5.37
   3  11   6    8.20    7.21
  -3 -11   6   10.09    6.43
  -3  11  -6   -4.19    4.94
  -3 -11   6   17.14    7.95
   3  11   6    0.60    7.88
   3 -11   8   -2.99    7.06
   3 -11   8    3.60    6.78
  -3  11   8    1.95    7.10
  -3  11   8   -6.67    7.17
   3  11   8    1.98    7.85
   3  11   8    3.11    7.05
  -3 -11   8    7.43    6.51
  -3 -11   8   -2.39    7.80
   4 -11   1  212.69   15.45
   4 -11   1  212.55   12.71
   4  11  -1  219.70   13.13
  -4  11   1  224.27   15.18
  -4 -11  -1  221.06   12.89
  -4  11   1  229.78   15.25
   4 -11   1  198.83   12.74
   4 -11   1  205.21   14.89
  -4  11   1  233.77   12.84
   4  11   1  192.49   12.58
  -4 -11   1  219.88   12.50
  -4 -11   1  215.47   15.14
   4 -11  -1  204.40   12.61
   4 -11  -1  217.31   11.95
   4  11   1  207.81   15.10
  -4 -11   1  210.61   14.90
  -4  11  -1  212.66   12.86
   4  11   1  216.15   14.87
  -4 -11  -3  250.12   13.42
   4 -11   3  243.91   14.64
  -4  11   3  207.84   16.97
  -4  11   3  221.60   16.24
   4  11  -3  264.45   14.15
  -4  11   3  254.20   13.34
   4  11   3  256.89   16.58
  -4  11  -3  244.36   13.64
   4 -11  -3  238.07   13.36
  -4 -11   3  224.89   17.11
  -4 -11   3  250.77   16.56
  -4 -11   3  247.07   13.27
   4 -11   5   59.01    7.55
  -4  11   5   53.44    8.59
   4 -11   5   43.82    8.26
   4 -11   5   84.92    9.35
   4  11  -5   48.24    6.52
  -4  11   5   64.83   10.04
  -4  11  -5   54.67    5.79
   4  11   5   42.35    8.46
   4 -11  -5   78.77    8.41
  -4 -11   5   44.15    7.38
   4  11   5   48.38    7.58
  -4 -11   5   38.36    9.03
  -4  11   7   20.19    7.28
  -4  11   7   43.93    7.86
   4 -11   7   49.02    9.27
  -4 -11   7   25.04    8.26
  -4 -11   7   25.92    6.76
   4  11   7    1.74    7.01
   4 -11   9   -8.46    7.91
   4 -11   9   -1.92    7.06
  -4  11   9   -0.88    7.85
  -4  11   9    8.86    8.33
   4  11   9    4.26    8.44
   4  11   9    8.72    7.33
  -4 -11   9    4.02    8.46
  -4 -11   9   11.40    7.11
  -5 -11   0   16.46    4.62
  -5  11   0   21.48    4.65
   5 -11   0   18.38    4.42
   5  11   0   13.80    4.62
  -5 -11   0   24.55    5.32
   5 -11   0   19.59    5.38
   5 -11   0   22.27    5.52
   5 -11   0   20.35    5.38
   5  11   0   20.65    5.50
   5  11   0   20.45    5.16
  -5  11   0   24.71    5.13
   5  11  -2   35.93    5.45
   5 -11   2   55.73    6.55
  -5  11   2   35.72    4.78
  -5 -11  -2   48.10    5.15
  -5  11   2   32.51    6.47
   5 -11   2   50.22    7.45
  -5  11   2   41.35    6.11
   5 -11   2   44.03    4.67
   5 -11   2   46.35    6.29
   5 -11  -2   42.63    4.78
   5  11   2   52.60    6.09
  -5 -11   2   43.07    5.92
   5 -11  -2   52.61    4.66
  -5 -11   2   34.84    6.65
   5  11   2   49.19    6.64
  -5  11  -2   52.50    5.15
  -5 -11   2   36.30    4.62
  -5 -11  -4   12.20    5.09
  -5  11   4   11.87    6.30
   5 -11   4   10.66    7.88
   5 -11   4    7.38    6.74
   5  11  -4    1.66    5.44
   5 -11   4   11.22    6.05
  -5  11   4    8.74    4.05
  -5  11   4    4.15    7.02
   5  11   4    3.55    6.68
   5 -11  -4   13.81    5.19
  -5 -11   4    1.08    7.54
  -5 -11   4    4.06    4.10
   5  11   4   15.52    6.00
  -5 -11   4    7.70    6.05
  -5  11  -4   14.92    4.86
   5 -11   6   28.90    9.41
   5  11  -6   11.99    6.11
   5 -11   6   -7.28    8.06
  -5  11   6   14.68    7.27
   5 -11   6    8.11    6.57
  -5  11   6   17.86    8.10
  -5 -11  -6    8.63    5.38
   5  11   6    6.87    6.85
  -5  11  -6   -4.57    4.88
  -5 -11   6    5.69    8.72
   5  11   6   -4.15    8.09
   5 -11  -6    6.15    5.69
  -5 -11   6    5.83    6.67
  -5  11   8   -2.27    7.26
  -5  11   8    5.81    8.16
   5 -11   8   -4.81    6.40
   5 -11   8   -2.00    8.08
   5  11   8    8.89    6.77
  -5 -11   8   -5.37    8.48
  -5 -11   8    3.57    6.92
   5  11   8   -4.26    8.18
  -6  11   1  210.24   16.25
  -6 -11  -1  256.03   13.31
  -6  11   1  209.18   15.67
   6 -11   1  242.76   13.00
   6 -11   1  261.70   16.36
   6  11  -1  215.18   13.83
  -6  11   1  210.53   13.30
   6 -11   1  251.66   15.68
   6  11   1  219.02   12.74
   6  11   1  243.87   15.56
  -6 -11   1  210.63   13.20
  -6  11  -1  241.50   13.33
  -6 -11   1  222.49   16.13
   6  11   1  243.41   15.75
  -6 -11   1  206.64   15.66
   6 -11  -1  199.88   13.15
  -6  11   3  103.56    9.89
  -6 -11  -3  118.81    9.22
  -6  11   3   93.12    8.52
   6 -11   3  101.50    7.41
   6 -11   3   76.46   10.80
   6  11  -3  110.17   10.43
  -6  11   3   85.89   11.62
   6 -11   3  106.89   10.03
  -6 -11   3  108.70    8.88
   6 -11  -3  108.61    8.90
  -6 -11   3   95.32   10.92
  -6 -11   3  104.60   10.44
   6  11   3  102.47   10.49
   6  11   3  114.18    7.84
   6  11   3  113.76   10.44
  -6  11  -3  104.40    8.88
   6  11  -5   79.13    7.96
  -6 -11  -5   83.47    9.24
  -6  11   5   80.58   12.07
   6 -11   5   79.54   10.23
  -6  11   5   92.55   11.24
  -6 -11   5   81.28   10.59
   6 -11  -5   75.10    9.19
  -6 -11   5   85.16   10.73
  -6  11   7   30.90    8.11
  -6  11   7   39.33    8.43
   6 -11   7   34.32    9.88
  -6 -11   7   21.57    7.29
  -6 -11   7   35.38    9.23
  -6  11   9   -5.85    7.93
   6 -11   9  -20.41    8.24
   6 -11   9   -8.18    6.84
  -6  11   9    6.61    8.64
   6  11   9    5.69    7.25
  -6 -11   9   -1.61    8.72
  -6 -11   9    7.78    7.51
   6  11   9   -0.08    8.28
  -7  11   0   15.69    4.73
  -7 -11   0    9.43    5.30
   7 -11   0   11.23    5.54
   7  11   0   12.82    4.76
   7 -11   0   10.25    4.49
   7  11   0    9.72    5.35
   7 -11   0   11.28    5.47
  -7 -11   0    4.01    4.50
  -7  11   2   -2.00    5.96
  -7  11   2    7.91    5.55
   7 -11   2   24.18    6.22
   7 -11   2   14.93    4.42
  -7  11   2    6.99    4.52
  -7 -11  -2    4.91    4.96
   7  11  -2    2.74    5.29
   7 -11   2   23.33    5.95
   7  11   2   19.05    5.56
  -7  11  -2   19.83    4.74
   7  11   2   12.22    6.12
  -7 -11   2    6.75    4.52
  -7 -11   2    8.24    6.40
   7 -11  -2   10.24    4.77
  -7 -11   2    6.33    5.42
  -7  11   4    8.54    4.74
   7 -11   4   18.67    8.64
  -7  11   4   14.94    7.01
  -7  11   4   12.51    7.89
  -7 -11  -4   15.91    5.80
   7 -11   4   13.03    7.79
   7 -11   4    5.15    6.56
   7  11  -4   11.35    6.71
   7 -11  -4    9.15    5.70
  -7 -11   4    9.50    6.70
   7  11   4   15.93    6.51
  -7 -11   4    9.57    8.23
  -7  11  -4   15.76    5.24
  -7 -11   4    8.05    5.18
   7  11   4   -3.69    7.39
   7  11  -6   11.18    6.65
  -7  11   6    9.59    8.56
   7 -11   6    4.17    8.15
   7 -11   6    2.85    6.66
   7 -11   6   19.19    8.91
  -7 -11  -6   21.18    5.77
   7  11   6    0.65    6.84
  -7 -11   6    7.76    6.82
  -7  11  -6   -7.39    5.00
  -7 -11   6   10.42    9.13
   7 -11  -6    3.67    5.88
   7  11   6   -7.56    7.80
  -7  11   8   -0.64    7.88
   7 -11   8   -2.27    9.39
  -7  11   8    7.44    7.78
   7 -11   8   -5.28    8.55
   7 -11   8   -7.32    6.80
  -7 -11   8   -0.11    8.77
   7  11   8   -1.72    8.14
   7  11   8    1.82    6.71
  -7 -11   8   10.67    6.81
   8 -11   1  200.09   12.73
   8 -11   1  204.33   15.17
  -8 -11  -1  201.07   13.36
  -8  11   1  214.75   12.80
   8 -11   1  212.22   15.87
   8  11  -1  234.56   13.06
  -8  11   1  231.01   15.69
  -8  11   1  209.94   14.86
  -8 -11   1  213.57   13.05
   8  11   1  198.80   15.23
  -8 -11   1  218.92   15.16
   8  11   1  198.16   15.38
  -8 -11   1  214.01   15.07
   8 -11  -1  214.63   12.78
  -8  11  -1  200.70   12.98
   8 -11   3  106.94    8.21
  -8  11   3   96.48    9.32
   8 -11   3   81.72   10.75
   8  11  -3  106.16   10.98
   8 -11   3   93.00   10.73
  -8  11   3  109.09   10.81
  -8  11   3   92.73   12.67
  -8 -11  -3  111.94    9.92
   8 -11   3   75.60   10.95
  -8 -11   3  109.83   10.06
   8 -11  -3  111.88   10.02
   8  11   3  106.20    8.82
   8  11   3   95.64   10.87
   8  11   3   94.33   10.69
  -8 -11   3  101.84   11.70
  -8  11  -3  107.13    9.49
  -8 -11   3   99.22   10.93
  -8 -11  -5   37.83    6.71
   8  11  -5   56.30    7.52
  -8  11   5   70.01    9.65
   8 -11   5   50.07   10.03
  -8 -11   5   45.21    9.74
  -8 -11   5   53.43    8.11
   8 -11  -5   39.88    6.83
   8  11  -7   14.69    6.81
   8 -11   7   -6.60    9.21
   8 -11   7   36.37   10.08
  -8  11   7   37.60    8.35
  -8 -11   7   24.80    7.56
   8  11   7   -4.70    8.31
  -8 -11   7   24.38    9.25
   8  11   7    0.16    6.79
   8 -11  -7    6.12    6.07
   8 -11   9   -0.53   10.07
  -8  11   9   -4.49    8.53
   8 -11   9  -10.30    7.13
  -8  11   9   13.20    8.97
   8  11   9   -2.92    7.48
  -8 -11   9    6.21    9.25
   8  11   9    2.60    8.29
  -8 -11   9   17.16    8.19
   9  11   0   19.06    5.94
  -9 -11   0   14.66    5.19
  -9  11   0   19.40    5.06
   9 -11   0   20.02    5.95
   9 -11   0   15.52    4.89
   9 -11   2   67.06    7.50
  -9 -11  -2   51.75    6.34
   9  11  -2   49.41    6.40
   9 -11   2   54.80    5.61
  -9  11   2   42.32    6.78
  -9  11   2   28.11    7.25
  -9  11   2   39.53    5.63
   9 -11   2   59.39    8.96
   9 -11  -2   41.62    5.95
  -9 -11   2   39.71    5.91
   9  11   2   58.94    6.98
   9  11   2   53.78    5.83
  -9  11  -2   54.95    5.90
   9  11   2   47.02    7.65
  -9 -11   2   37.89    7.48
  -9 -11   2   46.81    6.86
  -9 -11  -4    7.09    6.33
  -9  11   4   -5.05    8.13
   9 -11   4    3.96    9.37
  -9  11   4    6.55    7.53
   9  11  -4    9.05    7.01
  -9  11   4   -2.75    5.11
   9 -11   4   15.94    8.20
   9 -11   4   14.76    6.99
   9 -11  -4    2.26    6.32
   9  11   4    0.16    8.23
  -9 -11   4    5.75    5.97
  -9 -11   4    1.88    7.04
  -9 -11   4   -4.01    8.52
   9  11   4   11.82    6.59
  -9  11  -4   10.04    5.78
   9  11  -6   -4.70    6.74
  -9  11   6   -0.04    8.35
   9 -11   6    1.90    8.89
   9 -11   6    2.60    6.66
  -9 -11  -6   10.66    5.95
   9 -11   6   13.18    9.76
   9  11   6    7.50    6.70
  -9 -11   6   -0.09    8.63
   9 -11  -6   -3.14    6.22
  -9 -11   6    8.64    7.07
   9  11   6   -5.10    8.18
   9 -11   8    8.01    9.54
  -9  11   8   -8.98    8.36
   9 -11   8   -3.21    8.78
  -9  11   8    3.91    8.73
   9 -11   8    0.73    7.08
  -9 -11   8    5.00    7.80
  -9 -11   8    3.12    9.22
   9  11   8    5.80    7.12
   9  11   8    4.50    8.19
  10 -11   1  122.98   10.59
  10 -11   1  133.89   12.63
 -10 -11  -1  129.01   11.13
 -10  11   1  125.22   10.80
 -10  11   1  123.61   11.40
 -10 -11   1  115.00   12.32
  10  11   1  118.27   12.28
  10 -11  -1  133.62   10.96
 -10 -11   1  134.80   10.84
  10  11   1  133.18   11.61
 -10  11  -1  122.31   10.36
  10 -11   3   97.52   11.42
 -10  11   3   70.13    9.98
 -10 -11  -3   98.05   10.98
  10  11  -3  107.66   11.28
 -10  11   3  100.57    9.87
  10 -11   3   93.64   11.67
  10 -11   3  100.47    8.83
 -10  11   3   99.53   11.51
  10  11   3  101.36    9.66
 -10 -11   3   94.74   11.74
  10  11   3   89.30   11.22
  10  11   3   89.50   11.32
  10 -11  -3   86.49   10.56
 -10  11  -3   95.73   10.06
 -10 -11   3   94.40   12.32
 -10 -11   3  103.94   10.97
  10 -11   5   47.41   10.55
 -10  11   5   55.51    5.77
 -10 -11  -5   44.80    7.18
  10  11  -5   53.49    7.94
 -10  11   5   62.11    9.84
 -10 -11   5   52.28    8.44
  10  11   5   28.57    9.34
 -10 -11   5   65.34   10.14
  10 -11  -5   50.12    7.32
  10  11   5   31.93    7.72
 -10 -11   5   49.24    6.21
  10 -11   7   35.35   10.55
  10 -11   7  -11.60    9.21
  10 -11   7  -11.52    7.03
 -10  11   7   29.52    8.46
 -10 -11   7   22.71    9.66
  10  11   7    0.37    8.16
  10 -11  -7    2.30    6.47
  10  11   7    4.63    6.90
 -10 -11   7   22.20    8.03
  10 -11   9   -3.32   10.74
 -10  11   9    8.60    9.95
 -10  11   9   -3.83    9.27
  10 -11   9  -12.25    7.72
 -10 -11   9   21.11    8.91
  10  11   9    8.70    7.23
  10  11   9    6.74    8.35
 -10 -11   9    3.22    9.98
  11  11   0   26.47    6.74
 -11  11   0   13.57    5.56
 -11 -11   0   19.04    5.96
  11 -11   0   25.82    7.14
  11 -11   0   22.15    5.43
 -11  11   2   16.22    7.25
 -11  11   2   10.63    7.32
  11 -11   2   22.79    5.77
  11 -11   2   25.44    7.38
 -11  11   2   18.93    5.84
 -11 -11  -2   18.45    6.64
  11 -11   2   21.70    7.87
 -11  11  -2   21.89    6.20
  11  11   2   24.63    6.11
  11 -11  -2   22.85    6.27
 -11 -11   2   25.79    7.97
  11  11   2   22.60    8.08
  11  11   2   32.47    6.90
 -11 -11   2   24.95    6.88
 -11 -11   2   16.33    6.31
  11 -11   4   14.40    8.63
 -11  11   4    2.90    5.72
 -11 -11  -4   -3.19    6.78
 -11  11   4   -4.78    8.10
  11 -11   4    6.01    7.65
  11 -11  -4   -8.35    6.68
 -11  11  -4    2.66    6.22
  11  11   4    1.72    8.76
 -11 -11   4   -6.46    6.61
 -11 -11   4    6.31    7.52
  11  11   4    6.55    7.12
 -11 -11   4    2.73    8.66
  11 -11   6    1.48    9.39
 -11 -11  -6   19.32    6.31
  11 -11   6   19.22   10.04
  11 -11   6    1.10    7.19
 -11  11   6    7.12    8.30
  11 -11  -6    7.20    6.56
 -11 -11   6   13.35    7.77
 -11 -11   6    5.87    9.14
  11  11   6    3.92    8.85
  11  11   6    6.03    6.72
 -11  11   8  -16.37    8.84
  11 -11   8   -4.06    7.62
  11 -11   8  -12.50    9.11
  11 -11   8    2.70   10.05
 -11  11   8    1.28    9.29
  11  11   8    4.56    9.05
  11  11   8    7.95    7.53
 -11 -11   8   14.30    7.43
 -11 -11   8    3.64    9.78
  12 -11   1  100.48   10.39
 -12  11   1   75.16   11.54
 -12  11   1   99.80   10.59
  12 -11   1   90.53   12.05
 -12 -11  -1   80.78    8.11
 -12 -11   1   91.82   11.39
 -12 -11   1   85.78   12.14
  12  11   1   90.04   11.30
  12 -11  -1   91.24   11.39
  12  11   1  102.30   11.86
  12  11   1   73.89   12.05
 -12  11  -1  101.15   10.90
 -12  11   3   86.41   13.09
  12 -11   3   81.48    9.08
 -12  11   3   75.37   11.78
 -12  11   3   96.81   10.44
  12 -11   3   62.32   10.07
 -12 -11  -3   70.97    8.27
  12 -11   3   58.35    9.39
  12  11   3   64.16   10.23
  12  11   3   72.29   11.53
  12  11   3   74.62    7.29
 -12 -11   3   91.90   11.26
  12 -11  -3   88.42   10.84
 -12 -11   3   90.64   11.94
 -12 -11   3   82.95   12.60
 -12  11  -3   86.91   10.20
  12 -11   5   49.02   10.58
 -12  11   5   42.93    5.93
 -12 -11  -5   31.87    7.15
 -12  11   5   46.56    9.31
 -12 -11   5   42.07    6.69
 -12  11  -5   17.37    6.31
 -12 -11   5   49.74    9.71
  12 -11  -5   42.58    7.22
 -12 -11   5   44.28    8.24
  12  11   5   32.70    7.66
  12  11   5   20.85    9.08
  12 -11   7   19.06   10.78
 -12  11   7   25.57    8.96
  12 -11   7  -13.21    9.69
  12 -11   7  -10.43    7.39
  12  11   7    8.08    7.61
  12  11   7   20.11    9.18
 -12 -11   7   16.41   10.11
 -12 -11   7   25.86    7.71
  12 -11  -7    9.74    6.98
 -13  11   0    9.60    6.27
  13  11   0   11.32    7.36
 -13 -11   0    0.69    6.89
  13 -11   0   12.54    6.08
  13 -11   0    5.94    7.92
  13  11   0    5.52    6.60
 -13  11   2   19.57    8.42
 -13  11   2    9.63    6.34
 -13  11   2   14.14    7.91
 -13 -11  -2   24.33    7.24
  13 -11   2   20.27    8.42
  13 -11   2   25.45    6.51
 -13 -11   2   17.82    6.98
  13  11   2   13.64    8.52
 -13  11  -2   26.83    6.85
 -13 -11   2   19.84    7.35
  13  11   2   22.19    6.79
 -13 -11   2   14.07    8.59
  13  11   2   22.03    7.54
  13 -11  -2   21.47    6.84
 -13 -11  -4    5.58    7.50
 -13  11   4    6.33    6.17
  13 -11   4    8.05    8.09
 -13  11   4    3.64    9.35
 -13 -11   4   13.07    7.15
 -13 -11   4    9.63    9.29
  13  11   4    8.61    7.56
  13 -11  -4    7.56    7.02
 -13  11  -4    1.95    6.67
 -13 -11   4   16.45    8.01
  13  11   4    8.50    9.04
  13 -11   6   -2.92    9.86
  13 -11   6   25.21   10.60
 -13 -11  -6   15.54    6.71
  13 -11   6   -1.94    7.61
 -13 -11   6    9.90    9.13
  13  11   6   10.28    9.00
  13 -11  -6   -2.44    7.06
  13  11   6   16.72    7.91
  13 -11   8    4.84   11.32
  13 -11   8   -7.81    8.10
 -13  11   8  -21.56    9.50
  13  11   8    4.40    8.04
 -13 -11   8   -6.73   10.43
  13  11   8   12.97    9.22
 -14  11   1   27.01    8.21
 -14 -11  -1   40.89    7.78
 -14  11   1   36.34    6.66
  14 -11   1   40.36    7.06
  14 -11   1   41.29    8.76
  14  11  -1   35.49    7.61
 -14 -11   1   36.43    8.82
 -14 -11   1   35.28    7.50
 -14  11  -1   44.58    7.13
  14  11   1   41.19    8.04
  14 -11  -1   39.11    7.13
  14  11   1   34.11    7.23
  14  11   1   46.14    8.65
 -14  11   3   25.85    6.66
 -14 -11  -3   30.23    7.66
  14 -11   3   27.68    8.87
  14 -11   3   23.62    6.25
 -14  11   3   37.71    8.93
  14  11   3   37.41    6.83
  14  11   3   30.03    8.13
 -14  11  -3   25.06    7.16
  14 -11  -3   34.75    7.37
  14  11   3   24.45    9.23
 -14 -11   3   27.20    7.61
 -14 -11   3   28.85    9.51
 -14 -11  -5   30.59    7.25
 -14  11   5   31.33    6.21
  14 -11   5    4.84    8.05
 -14  11  -5   12.82    6.39
 -14 -11   5   26.07    7.03
 -14 -11   5   42.97    9.58
  14  11   5   30.35    7.74
  14  11   5   34.15    9.21
  14 -11  -5   33.22    7.46
  14 -11   7   10.77   10.87
  14 -11   7   -7.34    7.98
  14  11  -7   25.94    9.11
  14 -11  -7    4.13    7.28
  14  11   7   23.24    9.15
  14  11   7    5.69    7.89
 -14 -11   7   14.95   10.51
 -15 -11   0    6.90    7.50
  15 -11   0    1.31    6.69
  15 -11   0   -5.85    8.28
  15  11   0    2.08    7.00
 -15  11   0   11.27    6.80
  15  11   0    9.52    7.77
  15 -11   2   15.35    6.86
  15  11  -2    8.50    7.77
 -15 -11  -2   18.07    7.80
  15 -11   2   13.77    8.83
 -15  11   2   11.65    6.73
  15  11   2   19.14    8.84
  15  11   2   16.89    8.00
  15  11   2   12.52    7.47
 -15  11  -2   17.70    7.22
  15 -11  -2    3.51    7.03
 -15 -11   2   11.81    7.43
 -15  11   4    5.18    6.24
 -15  11   4  -10.83    8.43
  15 -11   4    3.53    4.56
  15 -11   4    0.10    8.24
 -15 -11  -4    5.24    7.19
  15  11  -4   -0.48    8.52
 -15  11  -4   -0.79    6.50
 -15 -11   4   -4.73    9.00
 -15 -11   4   -0.36    7.37
  15 -11  -4   -1.64    7.19
  15  11   4    3.39    7.53
  15  11   4    6.88    8.66
  15  11   4    3.29    5.15
  15 -11   6    2.09    8.19
  15  11  -6    9.19    9.03
  15 -11   6    8.56   10.83
 -15  11   6    0.44    5.51
 -15 -11  -6    5.86    6.77
  15  11   6   -3.23    8.11
  15 -11  -6   -0.68    7.11
 -15 -11   6   -6.14   10.03
  15  11   6    4.36    8.78
  15 -11   8   -9.04    8.69
  15 -11   8   19.14   11.91
  15  11   8    4.91    8.69
  15 -11  -8   -7.25    7.64
  15  11   8    3.82    9.06
 -15 -11   8   -4.98   11.33
 -16 -11  -1   22.74    8.19
  16 -11   1   23.06    8.94
  16  11  -1   21.17    7.52
 -16  11   1   24.26    6.85
  16 -11   1   24.34    7.31
 -16  11  -1   27.83    7.28
  16  11   1   18.41    7.62
  16  11   1   37.96    9.04
  16 -11  -1   26.48    7.45
 -16 -11   1   32.61    7.79
  16 -11   3   26.02    6.37
 -16 -11  -3   26.97    7.87
  16  11  -3   15.39    8.10
  16 -11   3   16.35    8.61
 -16  11   3   24.82    6.68
  16  11   3   17.15    8.10
  16  11   3   22.16    9.22
  16 -11  -3   26.33    7.18
  16  11   3   25.04    7.16
 -16 -11   3   13.93    7.61
 -16  11  -3   25.04    7.05
  16 -11   5    1.31    8.36
 -16 -11  -5   16.39    7.51
  16  11  -5   27.19    9.08
 -16  11   5   16.91    6.33
 -16  11  -5    1.09    6.41
 -16 -11   5   16.25   10.16
  16 -11  -5   13.32    7.49
 -16 -11   5   14.31    7.44
  16  11   5   17.93    8.72
  16  11   5   23.62    9.09
  16 -11   7   -4.73    8.63
  16 -11   7    5.14   11.23
  16  11  -7   11.10    9.18
 -16 -11   7   12.61   11.12
  16  11   7   25.26    9.24
  16  11   7    6.02    8.65
  16 -11  -7   -3.02    7.55
 -17  11   0    6.72    6.91
  17 -11   0   -0.23    7.10
  17  11   0    1.08    7.40
 -17 -11   0    8.76    7.90
  17 -11   2   -1.49    7.10
  17 -11   2   -4.26    8.83
 -17 -11  -2    8.25    7.89
 -17  11   2    2.20    6.67
  17  11  -2   -2.96    7.34
  17  11   2   13.97    8.74
 -17  11  -2    0.87    7.28
  17 -11  -2   -7.02    6.87
  17  11   2    2.60    7.38
 -17 -11   2   -4.80    7.42
  17 -11   4    5.39    8.71
  17  11  -4   10.93    8.71
 -17  11   4    8.87    6.66
 -17 -11  -4   13.62    7.87
  17 -11   4   15.23    5.27
  17 -11  -4   -7.98    7.19
 -17 -11   4   10.23    7.68
 -17  11  -4   -2.62    6.98
  17  11   4    5.48    5.70
  17  11   4   15.29    9.11
  17  11  -6    2.48    9.08
  17 -11   6   -6.16    8.62
 -17  11   6   -7.95    6.12
  17  11   6   -1.03    8.59
  17 -11  -6   -3.84    7.50
  17  11   6    7.16    8.97
  18 -11   1    8.72    7.14
  18  11  -1    8.29    7.40
 -18  11   1    7.30    6.58
 -18 -11  -1   13.46    8.05
 -18  11  -1    8.00    7.14
  18 -11  -1   10.79    7.02
 -18 -11   1    4.36    7.72
  18  11   1    9.51    7.43
  18  11  -3   15.38    8.03
  18 -11   3   22.15    6.71
 -18  11   3   14.88    6.81
  18 -11   3    9.93    8.97
 -18 -11  -3   15.29    8.18
  18 -11  -3   14.74    7.13
 -18  11  -3    2.01    7.33
  18  11   3   18.36    9.20
  18  11   3   11.07    7.24
 -18 -11   3   11.10    7.94
 -18  11   5    2.75    6.80
 -18 -11  -5   -0.45    7.70
  18 -11   5   -2.91    8.74
  18  11  -5    2.21    8.86
 -18  11  -5   -9.10    6.80
  18 -11  -5    5.31    7.57
 -18 -11   5   -8.82    7.72
  18  11   5   11.09    9.23
  18 -11   7   25.68   12.22
  18 -11   7   -5.87    9.23
  18  11  -7   16.74    9.58
  18 -11  -7   -2.15    8.07
  18  11   7   22.84    9.70
  19  11   0   10.30    7.42
 -19 -11   0   10.62    8.07
  19 -11   0    6.73    7.22
 -19  11   0    6.61    6.98
 -19 -11  -2    8.02    8.33
  19  11  -2    0.64    7.87
  19 -11   2    5.01    7.57
 -19  11   2    3.12    6.78
  19 -11  -2    1.77    7.15
 -19  11  -2    0.90    7.38
  19  11   2    8.26    7.59
 -19 -11   2    6.14    7.76
 -19  11   4   -6.73    6.87
  19 -11   4   -1.73    9.07
  19 -11   4    1.05    5.49
  19  11  -4    6.95    8.54
 -19 -11  -4   -5.59    8.33
 -19  11  -4   -7.61    7.09
  19 -11  -4   -3.92    7.35
  19  11   4   -2.52    6.13
  19  11   4   11.27    9.29
 -19 -11   4   -6.32    7.98
  19 -11   6   -3.95    9.09
 -19  11   6   -2.83    7.01
  19  11  -6    1.96    9.50
  19 -11  -6  -11.18    7.92
  19  11   6   11.61    9.31
  20  11  -1    7.93    7.73
 -20 -11  -1   14.51    8.57
 -20  11   1   14.89    7.05
  20 -11   1   23.86    7.61
  20 -11  -1   18.25    7.51
  20  11   1    9.54    7.71
 -20 -11   1   12.91    8.05
 -20  11  -1    9.81    7.33
 -20 -11  -3    3.11    8.67
  20  11  -3   11.97    8.37
  20 -11   3    5.96    7.01
 -20  11   3    8.16    7.07
  20 -11  -3    7.30    7.30
  20  11   3    0.32    7.61
 -20 -11   3    4.56    8.17
 -20  11  -3   -5.16    7.40
 -20  11   5   -6.22    7.13
  20  11  -5    1.11    9.28
 -20 -11  -5   -2.87    8.36
  20 -11   5    1.80    9.20
 -20 -11   5  -23.24    8.19
 -20  11  -5   -9.52    6.90
  20 -11  -5    0.04    7.57
  20  11   5   14.70    9.45
  21 -11   0    8.69    7.42
  21  11   0    7.56    7.79
 -21  11   0    7.81    7.37
 -21 -11   0   10.06    8.37
  21  11  -2    5.63    8.05
 -21 -11  -2   10.65    8.81
  21 -11   2    8.26    7.95
 -21  11   2    5.75    7.17
  21  11   2   12.54    8.22
 -21 -11   2    4.19    8.40
  21 -11  -2    5.93    7.43
 -21  11  -2    3.59    7.74
 -21 -11  -4   -4.31    8.87
 -21  11   4   -5.49    7.27
  21  11  -4    2.61    9.03
 -21  11  -4   -9.73    7.38
  21 -11  -4  -11.74    7.49
 -21 -11   4  -11.76    8.46
  21 -11   6  -11.14   10.33
  21  11   6    6.27   10.24
 -22 -11  -1   -7.44    8.93
  22  11  -1    0.59    8.01
  22 -11   1   -3.59    7.87
 -22  11   1    2.78    7.02
  22 -11  -1   -0.64    7.62
 -22 -11   1   -4.03    8.60
  22  11   1    0.71    7.99
 -22  11  -1   -8.62    7.47
 -22  11   3   -5.91    7.27
  22  11  -3    1.65    8.48
  22 -11   3    0.18    7.43
 -22 -11  -3   -2.62    9.02
 -22  11  -3   -6.42    7.51
 -22 -11   3  -16.38    8.45
  22 -11  -3    5.03    7.60
  22  11   3   -8.73    7.91
 -22  11   5  -15.39    7.81
 -22 -11  -5  -20.22    9.03
  22  11  -5    0.06    9.90
 -22  11  -5  -14.85    7.39
  22 -11  -5   -3.17    8.24
 -22 -11   5  -23.18    8.88
  23  11   0   12.73    8.23
 -23  11   0    5.64    7.54
  23 -11   0    8.17    7.58
 -23 -11   0    3.85    8.95
  23 -11   2   -3.79    8.44
 -23 -11  -2   -3.22    9.31
 -23  11   2    0.76    7.47
  23  11  -2    2.17    8.27
  23  11   2    4.28    8.57
 -23 -11   2   -0.66    8.74
  23 -11  -2    1.36    7.66
 -23  11  -2   -1.81    7.90
 -23  11   4   -8.99    7.83
 -23 -11  -4  -12.15    9.68
  23  11  -4   -1.76    9.54
  23 -11  -4   -6.99    7.98
 -23 -11   4  -19.21    9.12
 -23  11  -4  -11.27    8.03
  24 -11   1  -12.83    8.22
  24  11  -1   -2.43    8.35
 -24  11   1   -3.81    7.46
 -24 -11  -1  -18.48    9.24
  24  11   1   -4.21    8.67
  24 -11  -1   -3.59    7.99
 -24 -11   1  -10.32    8.93
 -24  11  -1   -8.76    7.87
 -24  11   3   -9.74    7.83
  24 -11   3  -15.69    7.81
 -24 -11  -3  -11.70    9.80
  24  11  -3   -0.48    8.97
  24 -11  -3  -10.57    7.97
 -24  11  -3  -12.81    7.95
 -24 -11   3  -24.84    9.03
  24  11   3  -13.29    8.60
 -25  11   0    1.43    7.96
  25 -11   0    5.51    8.07
 -25 -11   0   -3.07    9.60
  25  11   0   12.17    8.74
 -25  11   2   -2.80    8.08
  25 -11   2   -8.23    8.99
  25  11  -2    3.32    8.94
 -25 -11  -2  -17.94    9.88
 -25 -11   2   -5.75    9.53
 -25  11  -2   -8.23    8.30
  25  11   2   -3.95    9.28
  25 -11  -2   -5.33    8.29
  26 -11   1  -18.82    8.88
 -26 -11  -1  -12.52   10.28
  26  11  -1    0.73    8.87
  26 -11  -1  -12.46    8.33
 -26 -11   1  -16.06    9.87
  26  11   1  -10.70    9.38
 -26  11  -1  -12.60    8.32
   0  12   0   25.44    5.48
   0 -12   0   29.67    4.85
   0  12   0   28.74    5.69
   0 -12   0   33.87    6.05
   0  12   2   14.24    5.49
   0  12  -2   11.55    4.77
   0  12   2   16.37    5.76
   0  12   2   10.66    4.03
   0 -12   2   15.45    5.58
   0 -12   2   13.07    5.72
   0 -12   2   12.41    3.76
   0 -12  -2   13.44    4.20
   0  12   4    0.04    6.54
   0  12   4    6.49    6.60
   0 -12  -4    5.32    4.64
   0 -12   4    3.74    6.28
   0 -12   4    5.12    6.61
   0  12  -4    5.23    5.00
   0 -12   6    7.38    7.72
   0 -12   6    1.26    6.70
   0  12  -6    7.35    5.25
   0 -12  -6   -0.01    5.33
   0  12   6   11.17    7.61
   0  12   6   11.12    7.74
   0  12   8    0.29    7.23
   0  12   8   -4.67    7.69
   0 -12   8    2.55    7.35
   0 -12   8    1.61    6.80
   1 -12   1  330.93   17.36
   1 -12   1  349.70   21.44
   1  12  -1  338.88   17.77
  -1  12   1  316.81   21.31
  -1 -12  -1  327.78   17.57
  -1  12   1  325.07   17.63
   1 -12   1  331.09   17.43
  -1  12   1  314.70   21.48
   1 -12   1  358.26   21.75
  -1  12  -1  362.77   17.96
   1  12   1  348.23   21.31
   1 -12  -1  315.02   17.32
  -1 -12   1  293.05   21.57
   1  12   1  361.47   21.53
  -1 -12   1  318.58   17.49
   1  12   1  320.97   17.51
  -1 -12   1  302.83   21.04
  -1  12   3  367.10   18.19
   1 -12   3  370.49   17.91
   1  12  -3  323.31   19.04
  -1  12   3  367.38   23.27
   1 -12   3  350.59   23.02
  -1 -12  -3  400.85   18.59
   1 -12   3  397.58   19.20
   1 -12   3  324.21   23.37
   1  12   3  374.44   18.07
  -1 -12   3  373.37   23.12
   1  12   3  341.43   23.05
   1  12   3  329.03   23.27
  -1  12  -3  404.54   19.08
  -1 -12   3  343.16   17.98
   1 -12  -3  368.69   18.54
   1  12  -5   63.48    6.54
  -1 -12  -5   82.84    8.38
   1 -12   5   58.83    8.76
  -1  12   5   66.10    8.55
   1 -12   5   60.74    9.62
  -1  12   5   58.90    8.56
  -1 -12   5   53.33    7.68
  -1 -12   5   66.40    8.74
  -1  12  -5   52.40    6.31
   1  12   5   63.55    8.60
   1  12   5   68.14    8.96
   1 -12  -5   85.75    8.33
  -1  12   7   18.50    7.40
   1 -12   7    8.56    7.22
   1 -12   7   -0.80    6.83
  -1  12   7   29.76    7.64
   1  12   7   -0.43    8.03
  -1 -12   7   27.24    7.61
  -1 -12   7   12.56    6.39
   1  12   7   21.18    7.31
  -1  12   9   -2.96    8.15
   1 -12   9    1.67    7.47
  -1  12   9    0.32    7.80
   1 -12   9    0.70    7.27
   1  12   9    8.71    7.74
   1  12   9   -4.65    8.20
  -1 -12   9   -2.32    7.92
  -1 -12   9    5.47    7.06
  -2  12   0  156.25   12.10
   2 -12   0  161.66   12.55
   2  12   0  144.96   11.23
   2  12   0  149.01   11.44
   2 -12   0  143.87   10.14
   2 -12   0  150.49   10.42
  -2  12   0  151.35   10.96
  -2 -12   0  147.09   12.21
  -2 -12   0  146.42   10.62
   2 -12   2   24.91    4.10
  -2  12   2   23.86    4.48
  -2  12   2   20.93    5.98
   2 -12   2   30.10    6.00
   2 -12   2   31.69    5.98
   2  12  -2   23.60    5.10
  -2 -12  -2   26.09    4.53
  -2  12   2   26.55    5.87
   2 -12   2   36.34    5.93
  -2 -12   2   32.88    5.79
  -2 -12   2   25.21    4.14
   2  12   2   30.45    6.06
   2  12   2   31.40    5.81
  -2  12  -2   32.16    5.04
   2  12   2   28.98    4.12
   2 -12  -2   27.96    4.46
  -2 -12   2   23.59    6.15
  -2 -12  -4    8.10    4.72
   2 -12   4   10.95    7.59
  -2  12   4   12.31    6.36
   2 -12   4    5.85    6.25
  -2  12   4   10.71    6.82
   2  12  -4    2.13    5.15
   2 -12   4    2.65    6.58
  -2 -12   4    9.44    7.15
  -2  12  -4    6.99    5.02
   2  12   4    5.20    6.73
  -2 -12   4    1.10    5.72
   2 -12  -4   11.67    4.74
   2  12   4    7.79    6.49
  -2  12   6   13.50    7.62
   2  12  -6   16.87    5.30
   2 -12   6    5.55    7.06
  -2  12   6   16.36    7.69
  -2 -12  -6   -3.36    5.35
   2 -12   6    2.27    7.01
   2  12   6    0.26    7.84
  -2 -12   6    8.67    6.59
   2 -12  -6    3.88    5.37
   2  12   6    5.67    7.29
  -2 -12   6   10.62    7.83
  -2  12  -6   -0.45    5.06
  -2  12   8   -2.28    7.49
   2 -12   8    4.74    7.22
  -2  12   8    6.57    7.17
   2 -12   8    1.03    7.09
   2  12   8    5.52    7.45
   2  12   8   -3.70    7.82
  -2 -12   8   -5.59    7.96
  -2 -12   8   -3.63    6.48
  -3  12   1  389.82   25.02
   3 -12   1  409.97   20.27
  -3 -12  -1  396.07   20.36
   3  12  -1  401.39   20.73
   3 -12   1  413.82   24.92
   3 -12   1  440.94   25.29
  -3  12   1  388.76   20.29
   3 -12   1  394.49   20.37
  -3  12   1  400.35   25.13
   3 -12  -1  370.34   20.31
  -3 -12   1  394.66   20.39
   3 -12  -1  367.99   19.72
  -3 -12   1  364.00   24.78
   3  12   1  408.31   24.90
   3  12   1  419.51   25.08
  -3 -12   1  375.54   25.24
   3  12   1  385.91   20.18
  -3  12  -1  428.12   20.63
   3 -12   3  174.52   11.74
   3 -12   3  160.77   13.20
   3  12  -3  168.56   11.37
  -3  12   3  189.47   12.96
  -3 -12  -3  181.98   10.87
  -3  12   3  165.88   13.70
   3 -12   3  170.92    9.74
  -3  12   3  180.86   10.40
  -3 -12   3  159.72   13.70
   3  12   3  138.44   13.03
  -3 -12   3  173.82   10.27
  -3 -12   3  186.83   13.00
   3 -12  -3  184.88   10.72
  -3  12  -3  159.33   11.07
   3 -12   5  106.77   12.52
  -3  12   5  108.81   11.59
  -3  12   5   97.57   11.79
   3  12  -5   87.85   10.07
  -3 -12  -5  103.30    9.60
   3 -12  -5  108.35    8.99
  -3 -12   5   90.54   11.89
  -3 -12   5  100.46   11.23
   3 -12   7  -13.42    7.18
   3 -12   7   -1.58    6.86
  -3  12   7   26.06    7.60
  -3 -12   7   22.59    8.19
  -3 -12   7   16.83    6.66
   3  12   7  -16.25    8.09
   3  12   7    4.85    6.96
  -3  12   9    1.29    8.56
  -3  12   9   -2.94    7.91
   3 -12   9   -3.05    7.72
   3 -12   9   -2.37    7.55
  -3 -12   9   -2.00    8.41
   3  12   9  -12.36    8.43
  -3 -12   9    8.32    7.10
   3  12   9    4.56    7.82
  -4  12   0    6.04    4.59
   4 -12   0    5.18    4.26
   4  12   0    5.12    5.22
   4 -12   0    1.42    5.01
   4 -12   0    1.65    5.06
  -4  12   0    0.37    4.85
  -4 -12   0    2.44    4.46
  -4 -12   0    1.93    5.05
   4  12   0    1.83    4.51
  -4  12   2   52.40    5.15
  -4  12   2   56.72    6.89
   4 -12   2   56.82    6.72
   4 -12   2   43.18    4.79
  -4  12   2   57.36    8.08
  -4 -12  -2   43.37    5.27
   4 -12   2   46.73    6.74
   4  12  -2   50.82    5.82
   4 -12  -2   54.83    5.10
  -4 -12   2   56.10    7.22
   4  12   2   51.20    5.01
   4  12   2   48.32    7.68
  -4  12  -2   43.21    5.48
   4 -12  -2   47.59    5.52
  -4 -12   2   52.31    5.06
  -4 -12   2   53.73    6.41
   4  12   2   46.95    6.58
   4  12  -4   17.19    5.77
   4 -12   4    4.06    7.06
   4 -12   4   14.77    6.48
  -4  12   4   23.83    6.84
  -4 -12  -4    9.89    5.16
   4 -12   4    8.42    7.85
  -4  12   4   12.74    3.91
  -4  12   4   16.36    7.28
  -4 -12   4   12.28    6.19
   4  12   4    1.75    7.10
  -4 -12   4    9.83    7.81
  -4 -12   4   11.69    3.86
   4  12   4   10.76    6.59
   4 -12  -4   17.51    5.09
  -4  12  -4   16.95    5.11
  -4 -12  -6   10.75    5.59
  -4  12   6   16.49    7.98
  -4  12   6   17.40    7.56
   4 -12   6    9.59    6.97
   4 -12   6    0.87    8.01
   4 -12   6   19.91    8.94
   4  12  -6    9.03    5.87
   4  12   6   14.42    7.32
   4  12   6    8.47    8.46
  -4 -12   6   10.38    6.70
  -4  12  -6    0.59    5.10
   4 -12  -6   -0.51    5.67
  -4 -12   6    1.72    8.71
  -4  12   8    2.41    7.67
   4 -12   8   -2.39    8.05
   4 -12   8    4.69    6.92
  -4  12   8    1.31    8.26
  -4 -12   8    2.73    6.92
   4  12   8    5.79    8.64
   4  12   8    4.47    7.24
  -4 -12   8    2.66    8.51
   5 -12   1  310.27   15.95
  -5 -12  -1  309.02   16.14
   5 -12   1  316.86   19.88
   5 -12   1  322.46   19.62
  -5  12   1  295.81   19.73
  -5  12   1  298.35   16.30
  -5  12   1  267.51   19.54
   5  12  -1  307.23   16.36
   5 -12   1  293.72   16.06
  -5  12  -1  300.84   16.29
   5 -12  -1  287.57   15.60
   5  12   1  282.40   15.96
  -5 -12   1  295.67   16.15
  -5 -12   1  294.99   19.64
  -5 -12   1  302.35   19.77
   5 -12  -1  287.93   15.97
   5  12   1  296.33   19.28
   5  12   1  306.46   19.64
  -5  12   3  311.24   20.36
  -5  12   3  313.89   16.46
   5 -12   3  306.38   15.93
  -5 -12  -3  325.35   16.76
   5 -12   3  309.95   17.68
  -5  12   3  303.39   21.08
   5  12  -3  337.33   17.29
  -5 -12   3  310.33   16.47
  -5  12  -3  298.80   16.74
   5 -12  -3  296.29   16.41
  -5 -12   3  328.17   21.16
  -5 -12   3  325.46   20.64
   5  12   3  289.09   20.42
  -5  12   5   69.94    9.25
   5 -12   5   75.78    9.71
   5  12  -5   55.11    6.80
  -5 -12  -5   82.37    8.76
   5 -12   5   33.86    8.06
  -5  12   5   72.72   10.29
   5 -12  -5   73.04    8.85
  -5  12  -5   42.73    6.13
  -5 -12   5   59.26    9.56
  -5 -12   5   56.36    7.86
  -5  12   7   22.18    7.69
   5 -12   7   36.99   10.07
  -5  12   7   38.15    8.51
  -5 -12   7   30.07    9.01
  -5 -12   7   23.62    7.19
  -5  12   9    0.69    8.25
   5 -12   9  -12.27    8.53
   5 -12   9   -6.46    7.22
  -5  12   9    6.05    8.90
  -5 -12   9    1.45    8.89
   5  12   9   -1.20    8.62
   5  12   9    6.95    7.64
  -5 -12   9   14.99    7.62
  -6  12   0    1.11    4.53
   6 -12   0    2.37    4.29
   6  12   0    0.78    5.26
   6 -12   0    2.29    5.29
  -6 -12   0    2.68    5.05
  -6  12   0   -4.18    5.37
  -6 -12   0   -3.01    4.50
   6 -12   0   -0.56    5.40
   6  12   0   -2.50    4.61
  -6  12   2   50.29    7.71
   6 -12   2   53.29    5.19
  -6  12   2   53.39    7.08
   6 -12   2   48.41    7.19
  -6 -12  -2   54.01    5.77
   6 -12   2   45.95    6.95
   6 -12   2   54.37    7.09
  -6  12   2   54.06    5.46
   6  12  -2   53.94    6.12
   6  12   2   51.45    7.34
   6  12   2   57.08    8.65
  -6  12  -2   49.05    5.65
  -6 -12   2   59.85    7.51
  -6 -12   2   47.85    5.23
   6 -12  -2   50.24    5.31
  -6 -12   2   56.67    6.66
   6 -12   4   25.51    8.47
  -6  12   4   34.66    8.38
   6  12  -4   24.05    6.53
   6 -12   4   13.29    6.86
  -6 -12  -4   21.44    5.76
  -6  12   4   28.68    4.80
   6 -12   4   15.29    7.55
  -6  12   4   27.93    6.93
  -6 -12   4   23.44    8.35
  -6 -12   4   21.82    4.99
  -6 -12   4   24.42    6.70
   6  12   4   16.23    6.71
   6 -12  -4   30.91    5.83
  -6  12  -4   21.61    5.44
   6  12   4    3.92    7.54
   6 -12   6   26.10    9.64
   6  12  -6    9.35    6.42
  -6  12   6   10.41    7.74
  -6 -12  -6   22.25    5.88
   6 -12   6    4.80    8.27
   6 -12   6    6.92    6.84
  -6  12   6    5.10    8.20
  -6  12  -6   -0.38    5.16
   6 -12  -6    3.80    5.94
   6  12   6    9.40    7.11
   6  12   6   -4.59    8.14
  -6 -12   6   -4.51    8.79
  -6 -12   6    5.47    6.80
   6 -12   8    2.12    9.11
   6 -12   8   -2.16    8.50
  -6  12   8   -6.28    8.65
  -6  12   8   -4.28    7.63
  -6 -12   8    6.59    7.23
   6  12   8   -1.00    8.42
   6  12   8    1.10    7.45
  -6 -12   8    2.87    8.89
  -7  12   1  416.79   26.91
  -7  12   1  451.31   27.29
   7 -12   1  417.12   21.71
   7 -12   1  439.73   26.94
   7 -12   1  447.15   27.34
  -7  12   1  418.80   21.98
   7  12  -1  439.37   22.13
  -7 -12  -1  451.23   22.06
   7 -12  -1  399.77   21.89
  -7 -12   1  447.24   27.12
   7  12   1  425.73   27.04
   7  12   1  426.95   26.70
  -7  12  -1  418.35   21.99
   7  12   1  389.10   21.50
  -7 -12   1  410.65   26.89
  -7 -12   1  439.23   21.98
   7 -12   3  148.26   14.22
  -7  12   3  176.18   14.68
   7  12  -3  198.44   13.36
  -7  12   3  175.38   11.44
   7 -12   3  159.71   13.03
   7 -12   3  154.91   10.51
  -7  12   3  180.54   13.63
  -7 -12  -3  181.74   12.19
  -7 -12   3  203.35   15.02
   7  12   3  147.12   13.76
  -7 -12   3  185.85   14.08
   7 -12  -3  171.62   11.76
   7  12   3  171.43   13.79
  -7 -12   3  169.87   11.64
   7  12   3  169.57   10.90
  -7  12  -3  176.90   11.75
  -7  12   5   61.41    8.93
   7  12  -5   66.02    8.01
  -7  12   5   72.11    9.87
  -7 -12  -5   55.18    6.92
   7 -12   5   68.24   10.14
  -7 -12   5   57.14    8.30
  -7 -12   5   61.35   10.26
   7 -12  -5   54.01    7.06
  -7  12   7   25.35    8.26
  -7  12   7   43.15    8.82
   7 -12   7   42.43   10.09
   7  12  -7   35.57    6.89
  -7 -12   7   33.66    9.59
  -7 -12   7   24.58    7.67
  -7  12   9    5.26    9.19
   7 -12   9  -17.59    9.21
   7 -12   9   -3.41    7.41
  -7  12   9   -1.77    8.48
  -7 -12   9   -3.39    9.28
   7  12   9    8.85    7.08
   7  12   9    5.88    8.68
  -7 -12   9   17.43    8.05
   8  12   0    8.70    5.80
  -8  12   0   11.99    4.94
   8 -12   0   10.43    5.93
  -8 -12   0    4.02    4.94
   8 -12   0    6.19    4.83
   8  12   0   15.83    5.06
   8 -12   2   18.37    4.84
   8 -12   2   18.57    6.44
   8  12  -2    0.89    5.67
  -8 -12  -2   11.04    5.50
  -8  12   2   15.48    6.24
  -8  12   2    7.73    6.43
  -8  12   2    4.31    4.89
   8 -12   2   12.56    6.63
  -8 -12   2    5.29    4.99
   8  12   2   18.50    6.15
  -8 -12   2   14.09    6.78
  -8 -12   2   10.85    5.94
   8  12   2   16.18    6.62
  -8  12  -2   17.69    5.25
   8 -12  -2    7.87    5.16
   8 -12   4    7.96    8.28
   8 -12   4    4.56    8.81
   8 -12   4    7.35    7.13
  -8  12   4    1.64    5.06
  -8 -12  -4    2.40    6.25
   8  12  -4    4.26    6.94
  -8  12   4    1.48    8.33
  -8  12   4   14.56    7.59
   8  12   4   -3.94    8.26
  -8 -12   4    6.71    6.85
   8  12   4    1.05    6.71
  -8  12  -4   10.07    5.63
  -8 -12   4    3.74    8.79
  -8 -12   4    6.98    5.66
   8 -12  -4    1.35    6.14
  -8  12   6    2.04    7.90
   8 -12   6   11.81    9.63
  -8  12   6    1.98    8.44
  -8 -12  -6   14.69    5.98
   8 -12   6    3.69    7.02
   8  12  -6    0.00    6.84
   8 -12   6   13.58    9.22
  -8 -12   6    2.47    8.86
   8  12   6    0.64    6.87
   8 -12  -6   -4.11    6.01
  -8  12  -6   -8.25    5.21
  -8 -12   6    9.48    7.31
   8  12   6   -2.00    8.36
   8 -12   8    0.66    7.32
   8 -12   8   -4.77    9.34
  -8  12   8   -5.71    8.21
  -8  12   8    1.62    8.85
   8 -12   8    5.39    9.80
  -8 -12   8    8.36    7.73
   8  12   8   12.66    9.23
  -8 -12   8   -0.51    9.30
   8  12   8    2.67    7.31
   9 -12   1  259.95   15.56
   9 -12   1  263.58   18.74
  -9  12   1  274.63   15.79
   9 -12   1  263.17   19.33
   9  12  -1  287.94   15.65
  -9  12   1  291.06   18.82
  -9 -12  -1  264.74   16.07
   9 -12  -1  278.40   15.37
  -9 -12   1  293.29   15.73
   9  12   1  261.28   18.96
   9  12   1  263.38   18.85
  -9 -12   1  299.18   19.09
  -9  12  -1  248.90   15.52
   9 -12   3  118.81    9.71
   9 -12   3  125.39   13.03
  -9  12   3  116.18   10.32
  -9  12   3  116.99   13.61
   9  12  -3  146.70   12.70
  -9 -12  -3  128.47   11.57
   9 -12   3  116.53   12.58
  -9  12   3  136.86   12.32
   9  12   3  118.27   12.40
  -9 -12   3  124.17   13.16
  -9  12  -3  128.09   10.59
   9  12   3  111.58   12.43
   9 -12  -3  130.47   11.07
  -9 -12   3  121.89   11.19
  -9 -12   3  123.51   12.77
   9  12   3  124.99   10.14
  -9  12   5   62.71    5.86
  -9  12   5   56.40    9.41
   9 -12   5   62.63   10.44
  -9 -12  -5   45.70    7.24
   9  12  -5   65.82    8.27
  -9  12   5   72.11    9.97
   9  12   5   32.52    8.00
  -9 -12   5   48.83    6.11
   9 -12  -5   52.57    7.25
  -9 -12   5   59.32    8.59
  -9 -12   5   72.95   10.18
   9 -12   7  -10.19    7.42
  -9  12   7   28.94    8.68
   9  12  -7   12.08    7.20
  -9  12   7   23.38    8.69
   9 -12   7  -11.27    9.63
   9 -12   7   43.34   10.34
  -9 -12   7   31.63    9.29
   9  12   7   -1.83    8.74
   9  12   7    1.88    7.12
   9 -12  -7   -4.31    6.31
  -9 -12   7   25.02    8.08
   9 -12   9   -9.49   10.72
   9 -12   9  -10.23    7.67
  -9  12   9    9.41    9.61
  -9  12   9   -9.61    8.85
   9  12   9   11.19    8.64
  -9 -12   9    2.61    9.87
  -9 -12   9   14.22    8.63
   9  12   9    4.88    8.04
  10  12   0    8.51    6.18
  10 -12   0    9.93    5.27
 -10 -12   0    1.83    5.60
 -10  12   0    6.76    5.38
  10 -12   0   13.56    6.47
  10 -12   2   29.98    5.61
 -10  12   2   28.18    7.18
  10  12  -2   33.33    6.63
 -10 -12  -2   32.23    6.49
  10 -12   2   37.57    7.62
  10 -12   2   41.70    7.61
 -10  12   2   14.14    7.13
 -10  12   2   24.39    5.72
 -10  12  -2   23.08    5.98
  10  12   2   24.35    6.90
  10 -12  -2   19.17    6.21
  10  12   2   28.50    7.84
 -10 -12   2   21.86    7.60
 -10 -12   2   18.35    6.09
 -10 -12   2   29.48    6.91
  10  12   2   28.33    5.99
  10  12  -4    9.32    7.27
 -10  12   4   -0.04    7.78
 -10  12   4    0.03    5.58
 -10 -12  -4    3.29    6.83
  10 -12   4   13.03    8.55
  10 -12   4   13.53    9.66
 -10  12   4   -1.22    8.59
  10 -12   4    7.15    7.58
 -10 -12   4    4.01    7.28
 -10 -12   4   -7.03    8.78
  10  12   4    1.27    8.59
  10  12   4    6.83    7.06
  10 -12  -4   -5.51    6.47
 -10  12  -4   12.77    6.10
 -10 -12   4   -0.78    6.41
  10 -12   6   -2.26    7.22
  10  12  -6  -12.04    7.13
 -10  12   6   -2.11    8.21
  10 -12   6   15.83    9.92
 -10 -12  -6    7.83    6.31
  10 -12   6   -3.58    9.41
 -10  12   6    3.42    8.52
  10  12   6    3.41    6.92
  10 -12  -6   -4.13    6.33
 -10 -12   6   -1.43    9.08
  10  12   6    4.57    8.84
 -10 -12   6    5.13    7.60
 -10  12  -6  -10.54    5.34
 -10  12   8   -2.85    8.92
  10 -12   8   -5.27    7.47
 -10  12   8    5.36    9.28
  10 -12   8    6.50    9.97
  10 -12   8   -3.37    9.56
  10  12   8    6.43    7.62
  10  12   8    4.47    8.37
 -10 -12   8   -1.80    9.44
 -10 -12   8    9.89    7.44
 -11  12   1  144.34   11.88
  11 -12   1  133.71   14.02
  11 -12   1  152.29   11.71
 -11  12   1  134.45   13.16
 -11 -12  -1  149.73   12.46
 -11  12  -1  132.29   11.61
  11  12   1  139.77   13.62
 -11 -12   1  128.99   13.62
 -11 -12   1  145.21   12.49
  11  12   1  144.66   13.42
  11 -12  -1  146.36   11.89
  11  12   1  142.51   12.23
  11 -12   3   84.99   11.97
  11 -12   3   80.33   12.34
 -11  12   3   85.71    9.97
 -11  12   3   82.66    9.80
  11 -12   3   86.52    9.16
 -11 -12  -3   80.38    8.26
 -11  12   3   89.26   11.69
 -11 -12   3   84.59    8.03
  11  12   3   81.09    9.97
 -11 -12   3   87.29   12.57
  11  12   3   75.02   11.13
  11 -12  -3   78.06    7.93
 -11  12  -3   69.95    7.66
  11  12   3   66.45   10.15
 -11 -12   3   83.26   11.73
 -11  12   5   33.11    8.81
 -11 -12  -5   28.19    7.02
 -11  12   5   42.37    9.10
 -11  12   5   33.70    5.70
  11 -12   5   28.99   10.22
  11 -12  -5   29.28    7.02
 -11 -12   5   35.22    9.45
 -11  12  -5   10.26    6.08
 -11 -12   5   31.85    6.36
  11  12   5   18.40    7.58
 -11 -12   5   42.69    8.19
  11  12   5   24.26    9.28
  11 -12   7   32.14   10.68
 -11  12   7   15.48    9.17
 -11  12   7   38.19    9.10
  11  12   7    4.48    7.78
 -11 -12   7   22.23    9.91
 -11 -12   7   28.49    8.48
  11  12   7   17.38    9.49
  11 -12  -7    5.45    6.68
  11  12   9    5.20    8.33
  12 -12   0   13.72    6.03
 -12 -12   0    4.81    6.50
  12 -12   0   12.10    7.53
  12  12   0   20.78    7.17
 -12  12   0   15.32    6.12
 -12  12   2    4.01    7.23
  12 -12   2   15.55    6.21
  12 -12   2   13.18    7.99
 -12  12   2    5.74    7.75
 -12 -12  -2   13.22    7.20
 -12  12   2    8.44    6.04
 -12 -12   2   16.06    8.30
  12 -12  -2    8.17    6.65
 -12  12  -2    9.68    6.54
  12  12   2   13.10    8.36
 -12 -12   2   13.32    7.02
  12  12   2    6.47    6.43
  12  12   2   17.93    7.47
 -12 -12   2    8.95    6.68
  12 -12   4    1.27    8.03
 -12  12   4   -2.57    8.51
 -12  12   4    2.50    5.89
 -12 -12  -4    0.14    7.22
 -12  12   4    0.97    8.56
  12 -12   4    8.29    8.95
 -12 -12   4   -1.78    7.74
 -12 -12   4    4.68    9.01
 -12  12  -4   -1.54    6.43
  12  12   4   -1.56    7.44
  12  12   4   -1.39    8.85
 -12 -12   4   -1.65    7.08
  12 -12  -4    0.54    6.86
 -12  12   6    0.79    8.63
  12 -12   6    2.83    7.53
  12 -12   6   17.23   10.17
  12 -12   6    1.56    9.84
 -12 -12  -6   13.95    6.59
 -12  12   6   -7.87    8.51
 -12 -12   6   -7.04    9.48
 -12  12  -6  -12.33    5.66
  12  12   6    4.94    9.23
  12 -12  -6   -2.15    6.78
  12  12   6    4.19    7.79
 -12 -12   6   15.49    7.66
  12 -12   8   -6.97   10.03
 -12  12   8  -10.54    9.27
  12 -12   8   -7.81    8.13
  12 -12   8   23.40   11.12
 -12 -12   8   -1.96   10.15
  12  12   8   11.23    9.36
  12  12   8    2.34    8.05
 -13 -12  -1   67.67    8.05
  13 -12   1   72.02    9.58
  13 -12   1   65.72    7.43
 -13  12   1   57.87    7.26
 -13  12   1   61.08    9.06
  13  12   1   63.78    8.81
 -13 -12   1   57.32    9.37
  13  12   1   63.08    7.63
 -13 -12   1   59.29    7.92
  13 -12  -1   55.71    7.46
  13  12   1   67.79    9.35
 -13  12  -1   72.88    7.52
  13 -12   3   31.72    8.87
  13 -12   3   37.52    6.37
 -13  12   3   50.10    6.96
 -13  12   3   57.91    9.61
 -13 -12  -3   47.23    8.17
 -13  12   3   52.62    9.20
  13  12   3   50.53    8.44
 -13 -12   3   64.80   10.07
 -13 -12   3   53.88    7.67
  13  12   3   48.62    9.72
 -13  12  -3   40.33    7.26
  13  12   3   42.28    7.01
  13 -12  -3   56.10    7.60
  13 -12   5   60.03   10.75
 -13  12   5   56.11    6.47
 -13  12   5   54.49    9.68
 -13 -12  -5   45.59    7.59
  13 -12  -5   45.49    7.27
 -13 -12   5   55.24    7.34
  13  12   5   42.59    9.82
  13  12   5   41.78    8.17
 -13 -12   5   63.65   10.29
  13 -12   7  -12.40   10.36
  13 -12   7   27.08   10.87
  13 -12   7   -9.98    7.83
 -13  12   7   17.97    9.20
 -13 -12   7   30.72    9.79
  13  12   7   15.58    9.35
  13 -12  -7    4.24    6.95
  13  12   7   13.01    8.09
 -14  12   0    1.78    6.57
  14  12   0   -1.16    6.90
 -14 -12   0    6.71    7.26
  14  12   0    3.79    7.67
  14 -12   0  -11.11    8.11
  14 -12   0   -1.84    6.31
  14 -12   2   22.00    8.67
 -14  12   2    6.39    6.48
 -14  12   2   -2.31    7.98
 -14 -12  -2   19.98    7.53
  14 -12   2   15.86    6.74
  14  12   2    6.45    7.03
  14 -12  -2    3.71    6.89
 -14 -12   2   12.61    7.24
  14  12   2    8.96    7.68
  14  12   2   14.48    8.74
 -14  12  -2   14.49    6.97
 -14 -12   2   -0.20    8.86
  14 -12   4    5.32    4.71
 -14 -12  -4   -2.75    7.39
 -14  12   4   -0.75    8.60
  14 -12   4   -0.07    8.18
 -14  12   4   10.10    6.18
  14  12   4    5.49    5.00
 -14 -12   4    2.81    7.24
  14  12   4    4.47    7.56
  14  12   4    4.00    8.90
 -14  12  -4    9.34    6.54
 -14 -12   4   -1.64    9.11
  14 -12  -4   -3.04    6.89
  14 -12   6   15.54   10.58
 -14  12   6   -4.79    9.02
 -14 -12  -6    7.05    7.03
  14 -12   6    0.95    8.19
  14 -12  -6    5.76    6.92
  14  12   6    6.40    9.11
  14  12   6    5.45    8.06
 -14 -12   6    2.48   10.00
 -14  12  -6   -5.83    6.01
  14 -12   8   -8.94    8.75
 -14  12   8  -15.68    9.76
  14 -12   8   -2.95   11.60
  14  12   8   -1.64    8.58
  14  12   8    4.95    9.41
 -14 -12   8   -6.57   10.96
 -15  12   1   40.78    7.05
  15  12  -1   43.17    7.88
  15 -12   1   37.84    9.32
 -15 -12  -1   33.73    8.11
  15 -12   1   38.84    7.29
  15  12   1   43.06    9.02
  15  12   1   39.55    7.72
 -15 -12   1   36.81    7.88
  15 -12  -1   39.06    7.38
 -15  12  -1   35.97    7.32
 -15  12   3   46.72    9.56
 -15  12   3   52.70    7.23
 -15 -12  -3   61.30    8.48
  15 -12   3   47.46    9.73
  15 -12   3   64.56    7.00
  15  12   3   52.82    7.45
  15  12   3   52.16    8.99
  15  12   3   50.68    9.92
 -15 -12   3   46.64    8.16
 -15  12  -3   53.94    7.67
  15 -12  -3   46.27    7.72
 -15 -12   3   50.35   10.27
 -15  12   5   37.16    9.62
 -15 -12  -5   33.27    7.53
 -15  12   5   35.99    6.61
 -15 -12   5   29.04    7.55
  15 -12  -5   31.79    7.31
  15  12   5   30.58    8.08
 -15 -12   5   44.74   10.12
 -15  12  -5    8.00    6.57
  15  12   5   36.28    9.52
  15 -12   7   -9.15    8.28
  15  12  -7   30.19    9.43
 -15  12   7   -0.43    9.84
  15 -12   7   15.38   11.12
 -15 -12   7   19.28   10.98
  15  12   7   27.27    9.39
  15  12   7   16.09    8.72
  15 -12  -7    3.84    7.29
 -16  12   0   10.62    6.82
  16 -12   0   -1.42    6.74
  16  12   0    0.63    7.20
 -16 -12   0    0.92    7.85
  16 -12   2   -3.09    8.70
  16  12  -2    7.80    7.79
 -16 -12  -2   12.35    8.04
  16 -12   2    6.11    7.02
 -16  12   2    0.05    6.72
  16  12   2   10.13    7.47
  16 -12  -2   -0.20    7.18
  16  12   2   10.82    8.79
 -16 -12   2   10.77    7.60
 -16  12  -2    8.45    7.16
 -16  12   4    8.39    6.45
  16  12  -4    9.85    8.71
 -16 -12  -4   11.15    7.73
  16 -12   4    8.89    8.75
  16 -12   4   11.57    5.01
  16 -12  -4   -1.82    6.94
  16  12   4    2.17    7.82
 -16 -12   4    2.51    7.52
  16  12   4    7.50    5.51
 -16  12  -4    7.66    6.82
  16  12   4   11.50    9.18
 -16  12   6    2.91    5.90
  16  12  -6    5.55    9.19
  16 -12   6   12.07   10.96
  16 -12   6    0.99    8.62
 -16 -12  -6    7.28    7.17
  16 -12  -6   -3.95    7.38
  16  12   6    0.84    8.90
 -16 -12   6   -8.01   10.45
  16  12   6    2.17    8.47
  17  12  -1   28.55    7.59
 -17  12   1   26.78    6.92
  17 -12   1   29.46    7.37
 -17 -12  -1   33.31    8.40
  17 -12  -1   24.86    7.35
 -17 -12   1   32.00    7.84
 -17  12  -1   27.09    7.23
  17  12   1   25.64    7.72
  17 -12   3   27.38    6.56
  17 -12   3   14.90    8.97
 -17 -12  -3   29.73    8.19
 -17  12   3   27.00    6.78
  17  12  -3   37.37    8.48
 -17 -12   3   24.60    7.85
  17 -12  -3   37.63    7.29
 -17  12  -3   16.09    7.16
  17  12   3   27.75    7.38
  17  12   3   32.84    9.38
  17 -12   5    8.44    8.79
 -17  12   5   13.76    6.55
  17  12  -5   26.12    9.28
 -17 -12  -5   16.22    7.81
 -17 -12   5    7.78    7.77
 -17  12  -5   -6.65    6.51
  17  12   5   27.76    9.53
  17 -12  -5   25.17    7.48
  17  12  -7   16.00    9.67
  17 -12   7   18.70   11.75
  17 -12   7   -5.17    9.12
  17  12   7   23.86    9.68
  17  12   7   13.86    9.30
  17 -12  -7   -2.06    7.81
  18 -12   0   14.24    6.98
 -18 -12   0   16.24    8.06
 -18  12   0   17.94    6.95
  18  12   0   18.39    7.47
  18  12  -2   -2.10    7.47
  18 -12   2    4.92    8.87
 -18 -12  -2   13.10    8.24
  18 -12   2    5.53    7.12
 -18  12   2   -0.47    6.65
  18  12   2    8.83    7.45
  18  12   2   22.10    9.21
  18 -12  -2   -3.14    7.06
 -18 -12   2    2.92    7.63
 -18  12  -2    5.26    7.04
  18 -12   4   12.37    5.61
 -18 -12  -4    6.90    8.15
  18 -12   4   -1.39    8.97
  18  12  -4   -2.30    8.63
 -18  12   4    7.70    6.89
  18 -12  -4   -4.29    7.23
 -18  12  -4   -0.87    6.83
 -18 -12   4   -6.67    7.91
  18  12   4   10.66    9.38
  18  12   4   10.62    6.20
  18 -12   6   10.29   11.42
  18 -12   6   -4.28    8.97
 -18  12   6   -8.30    6.59
  18  12  -6    7.68    9.49
 -18 -12   6  -20.52    7.32
  18 -12  -6  -11.03    7.74
  18  12   6    4.53    9.21
 -19  12   1    6.36    6.64
  19  12  -1    6.32    7.71
  19 -12   1    9.25    7.41
 -19 -12  -1   18.24    8.42
 -19 -12   1   11.39    8.00
  19 -12  -1   10.60    7.15
  19  12   1   13.06    7.65
 -19  12  -1    4.90    7.09
  19  12  -3   14.72    8.21
 -19 -12  -3    5.90    8.52
  19 -12   3   11.66    9.32
  19 -12   3    4.34    6.87
 -19  12   3    5.38    6.86
 -19  12  -3    6.16    7.18
  19 -12  -3   10.13    7.27
 -19 -12   3    6.47    8.19
  19  12   3   19.76    9.33
  19  12   3    6.05    7.53
 -19  12   5   -4.43    6.98
  19 -12   5    0.53    9.20
  19  12  -5   -1.65    9.08
 -19 -12  -5   -5.76    8.00
 -19 -12   5  -23.33    7.87
  19 -12  -5    4.64    7.62
 -19  12  -5   -7.96    7.01
 -20  12   0    7.59    7.07
  20  12   0   10.97    7.74
 -20 -12   0   13.03    8.50
  20 -12   0   10.31    7.15
 -20  12   2    6.78    7.08
  20  12  -2   16.41    8.16
  20 -12   2   16.97    7.82
 -20 -12  -2   13.14    8.74
  20 -12  -2   10.49    7.49
 -20 -12   2   12.97    8.25
  20  12   2   22.06    8.12
 -20  12  -2   11.52    7.57
  20  12  -4    2.23    8.81
  20 -12   4   -3.95    9.51
 -20  12   4    0.72    7.19
 -20 -12  -4   -2.84    8.68
 -20 -12   4   -4.19    8.38
 -20  12  -4   -2.86    7.14
  20 -12  -4  -10.59    7.36
  20  12   4    5.59    9.42
  20  12  -6    9.78   10.18
  20 -12   6   -0.99    9.58
 -20  12   6   -9.30    7.43
  20 -12  -6   -1.09    8.28
  20  12   6   11.54   10.08
  21 -12   1    1.78    7.80
  21  12  -1    7.29    7.84
 -21 -12  -1   -2.97    8.75
 -21  12   1    3.85    6.92
 -21  12  -1    2.22    7.37
  21 -12  -1    8.65    7.49
  21  12   1    2.44    7.95
 -21 -12   1    3.24    8.30
  21 -12   3   -3.03    7.21
  21  12  -3    5.79    8.71
 -21  12   3    9.97    7.23
 -21 -12  -3    5.85    8.99
  21  12   3    0.43    7.83
 -21  12  -3   -1.67    7.45
  21 -12  -3    0.06    7.43
 -21 -12   3   -2.41    8.40
 -21  12   5   -9.81    7.48
  21 -12   5    0.48    9.91
 -21 -12  -5  -10.10    8.73
  21  12  -5    4.81    9.81
  21 -12  -5   -7.18    8.10
 -21  12  -5  -10.36    7.15
  21  12   5   19.88   10.19
  22  12   0   12.58    8.18
 -22  12   0    6.32    7.46
  22 -12   0    5.72    7.43
 -22 -12   0   13.75    8.68
 -22 -12  -2    6.26    9.28
 -22  12   2    4.83    7.42
  22 -12   2    8.50    8.18
  22  12  -2    3.95    8.26
  22 -12  -2    2.53    7.57
  22  12   2   13.54    8.58
 -22 -12   2   -3.50    8.81
 -22  12  -2    0.77    7.79
  22  12  -4    3.48    9.30
 -22  12   4  -10.71    7.53
 -22 -12  -4   -9.60    9.31
 -22 -12   4  -18.54    8.81
 -22  12  -4   -7.76    7.31
  22 -12  -4  -12.32    7.71
  23  12  -1    2.82    8.18
 -23 -12  -1  -12.20    8.93
  23 -12   1   -8.43    8.05
 -23  12   1    0.39    7.25
 -23 -12   1   -2.81    8.87
  23  12   1  -11.77    8.24
  23 -12  -1   -1.87    7.67
 -23  12  -1  -15.63    7.43
 -23  12   3   -7.37    7.48
 -23 -12  -3  -15.35    9.52
  23  12  -3    0.57    8.76
  23 -12   3  -10.49    7.64
 -23  12  -3   -1.61    7.98
  23  12   3   -5.43    8.27
  23 -12  -3   -2.93    7.77
 -23 -12   3  -14.72    8.95
 -24 -12   0    2.60    9.34
  24  12   0    1.45    8.47
  24 -12   0   13.31    7.91
 -24  12   0    3.74    7.67
 -24  12   2    3.45    7.78
  24  12  -2    6.27    8.70
 -24 -12  -2   -2.09    9.75
  24 -12   2   -2.03    8.51
  24 -12  -2   -1.05    7.87
 -24 -12   2   -0.16    9.26
  24  12   2    6.75    9.07
 -24  12  -2   -1.15    8.16
  25  12  -1  -12.42    8.60
  25 -12   1  -13.26    8.56
 -25 -12  -1  -22.13    9.74
 -25  12   1   -7.99    7.78
  25 -12  -1    1.37    8.01
  25  12   1   -8.61    9.21
 -25  12  -1   -3.96    8.02
 -25 -12   1  -18.27    9.56
  26 -12   0    1.59    8.68
 -26 -12   0   -0.46   10.29
  26  12   0    6.83    9.35
   0  13  -1  113.67    9.84
   0  13   1  101.35   10.39
   0 -13   1  107.19   10.75
   0  13   1  103.39   10.00
   0 -13  -1  101.75    9.07
   0  13   1   94.98    9.26
   0 -13   1  103.81    8.96
   0 -13   1  109.39   10.07
   0 -13   3  384.42   18.30
   0 -13  -3  401.53   18.79
   0  13   3  386.51   18.33
   0 -13   3  388.67   23.45
   0 -13   3  302.81   23.68
   0  13  -3  356.87   19.25
   0  13   3  318.72   23.62
   0  13   3  377.18   23.32
   0 -13  -5  119.67    9.30
   0  13  -5   79.55    9.92
   0  13   5   81.00   11.57
   0 -13   5   88.91   12.52
   0 -13   5   93.47   11.19
   0  13   5   90.65   11.83
   0  13   7   33.65    7.64
   0  13   7   13.60    8.39
   0 -13   7    3.50    7.18
   0 -13   7   24.68    7.65
   0  13   9    2.17    7.77
   0 -13   9    1.92    7.86
   0  13   9   -7.69    8.51
   0 -13   9    2.67    7.58
  -1  13   0  139.34   10.86
  -1  13   0  137.61   10.82
   1 -13   0  129.44   10.06
   1  13   0  124.47   10.89
   1  13   0  137.13   11.28
  -1 -13   0  128.80   10.41
  -1 -13   0  143.34   11.69
   1 -13   0  142.36   12.12
  -1  13   2   17.57    4.46
  -1 -13  -2   22.30    4.47
   1  13  -2   14.87    5.27
   1 -13   2   23.96    4.25
  -1  13   2   15.73    5.99
   1 -13   2   23.33    5.91
   1 -13   2   22.86    6.20
   1 -13   2   27.69    5.93
  -1  13   2   12.87    5.64
  -1 -13   2   22.22    4.24
  -1 -13   2   17.01    6.31
  -1  13  -2   21.98    5.07
   1 -13  -2   20.23    4.59
   1  13   2   16.07    4.34
  -1 -13   2   19.31    5.76
   1  13   2   23.31    6.06
   1  13   2   27.75    6.11
  -1  13   4    5.41    6.93
   1 -13   4   -1.83    6.55
   1  13  -4    6.57    5.56
  -1 -13  -4    1.41    5.05
  -1  13   4    5.50    6.59
   1 -13   4    7.32    7.21
   1  13   4   -9.01    6.51
   1  13   4   -1.90    6.88
  -1 -13   4    3.58    7.10
   1 -13  -4    1.12    5.02
  -1  13  -4    3.87    5.32
  -1 -13   4    1.03    6.48
  -1  13   6   11.64    7.58
   1  13  -6   12.60    5.34
  -1  13   6   10.80    7.83
  -1 -13  -6   -4.83    5.52
   1 -13   6    4.98    7.28
   1 -13   6    4.62    7.62
  -1 -13   6    9.62    8.00
  -1  13  -6    1.91    5.41
  -1 -13   6   -3.56    6.94
   1  13   6    8.82    8.11
   1  13   6    6.59    7.58
   1 -13  -6   -5.77    5.68
   1 -13   8   -1.90    7.24
   1 -13   8    5.67    7.55
  -1  13   8   -3.61    8.22
  -1  13   8    0.75    7.45
   1  13   8    2.61    7.65
  -1 -13   8    0.85    7.92
   1  13   8   -3.93    8.36
  -1 -13   8    3.26    6.99
   2 -13   1  383.55   19.41
  -2 -13  -1  380.67   19.39
  -2  13   1  357.40   23.74
  -2  13   1  360.70   24.12
   2 -13   1  401.90   23.98
  -2  13   1  372.52   19.48
   2  13  -1  390.42   19.89
   2 -13   1  421.51   24.41
   2 -13   1  375.39   19.62
   2  13   1  386.37   23.89
  -2 -13   1  329.57   23.86
  -2 -13   1  379.51   24.07
   2 -13  -1  356.98   19.56
  -2 -13   1  365.42   19.56
  -2  13  -1  413.58   19.71
   2  13   1  423.45   24.18
   2  13   1  379.92   19.56
   2 -13  -1  331.59   18.79
  -2  13   3  276.79   14.08
  -2  13   3  214.10   18.21
   2 -13   3  247.07   17.87
  -2  13   3  282.80   18.01
   2 -13   3  271.07   13.75
   2  13  -3  258.71   15.02
  -2 -13  -3  278.82   14.54
   2 -13   3  288.76   15.48
   2 -13  -3  274.59   14.54
  -2 -13   3  234.20   18.33
   2  13   3  264.91   18.07
  -2 -13   3  292.84   18.03
  -2 -13   3  265.56   13.95
   2  13   3  249.59   13.72
  -2  13  -3  239.11   14.81
  -2  13   5  105.02   12.34
   2  13  -5  105.35   10.20
   2 -13   5  121.13   11.97
  -2  13   5  117.72   11.24
  -2 -13   5   94.67   12.10
  -2  13  -5   80.04    9.76
   2 -13  -5  130.56    9.35
  -2 -13   5  107.48   11.27
   2  13   5   92.80   11.92
   2  13   5   64.85   11.28
   2 -13   7   -7.36    7.25
   2 -13   7   -0.42    7.38
  -2  13   7   29.75    7.83
  -2  13   7   39.35    7.75
   2  13   7   13.02    7.43
  -2 -13   7   18.15    6.79
  -2 -13   7   26.40    8.21
  -2  13   9    0.42    8.16
   2 -13   9   -0.93    7.82
   2 -13   9    2.23    8.08
  -2  13   9    3.27    8.64
   2  13   9   -7.27    8.81
  -2 -13   9    7.66    7.42
   2  13   9    8.67    7.82
  -2 -13   9   -4.76    8.36
   3  13   0    6.21    4.65
   3 -13   0    7.39    4.86
   3 -13   0    3.03    4.43
   3 -13   0    4.32    5.62
  -3  13   0    9.10    5.26
  -3  13   0    6.11    4.72
   3  13   0    6.38    5.38
  -3 -13   0    7.28    5.38
  -3 -13   0    5.40    4.59
  -3  13   2   15.47    5.77
  -3  13   2   13.14    5.72
  -3 -13  -2    7.05    4.55
   3  13  -2    8.18    5.23
   3 -13   2    8.50    5.76
   3 -13   2    4.59    6.03
   3 -13   2    1.65    5.66
   3 -13   2    5.14    4.06
  -3  13   2   17.51    4.51
  -3  13  -2    5.54    5.06
   3  13   2    6.75    5.74
  -3 -13   2   15.82    5.87
   3  13   2    8.10    5.82
  -3 -13   2   16.20    6.33
   3 -13  -2    8.76    3.43
   3 -13  -2   16.95    4.59
   3  13   2    2.48    4.22
  -3 -13   2    8.11    4.14
   3  13  -4    0.27    5.61
  -3  13   4   -0.62    3.86
  -3  13   4   -4.46    7.26
  -3  13   4    2.82    6.79
   3 -13   4   -1.36    7.00
  -3 -13  -4    1.65    5.25
   3 -13   4    3.26    7.98
   3 -13   4    4.97    6.98
   3  13   4   -1.75    6.78
   3 -13  -4    3.53    5.14
  -3 -13   4   -0.06    6.05
  -3 -13   4    0.57    7.54
  -3  13  -4   -0.89    5.24
   3  13   4   -1.08    7.30
   3 -13   6   10.09    7.13
   3 -13   6   -4.02    7.82
  -3 -13  -6   -2.17    5.80
   3 -13   6   12.39    9.15
   3  13  -6    8.39    5.76
  -3  13   6    8.93    7.68
  -3  13   6   10.98    7.87
   3  13   6    3.60    7.74
   3  13   6   -0.14    8.36
   3 -13  -6    0.85    5.57
  -3 -13   6    4.76    6.78
  -3  13  -6    3.16    5.31
  -3 -13   6   -3.77    8.24
  -3  13   8   -5.83    7.79
   3 -13   8   -2.38    7.28
  -3  13   8   -2.37    7.98
   3 -13   8   -0.12    7.71
  -3 -13   8   -3.65    6.79
  -3 -13   8    1.59    8.28
   3  13   8   -2.17    8.48
   3  13   8   12.20    7.76
  -4  13   1  353.28   18.52
   4 -13   1  354.38   22.44
   4 -13   1  334.85   18.23
  -4  13   1  372.46   22.61
  -4 -13  -1  348.61   18.34
   4  13  -1  367.52   18.90
  -4  13   1  350.47   22.57
   4 -13   1  337.82   18.38
   4 -13   1  366.64   22.79
   4 -13  -1  342.85   17.84
  -4 -13   1  354.90   18.51
   4  13   1  345.99   22.41
   4 -13  -1  350.77   18.39
   4  13   1  330.52   22.24
   4  13   1  317.65   18.26
  -4 -13   1  358.38   22.57
  -4 -13   1  381.09   22.77
  -4  13  -1  342.40   18.53
   4 -13   3  181.84   15.04
  -4 -13  -3  238.65   12.61
   4 -13   3  232.51   11.68
  -4  13   3  213.66   12.39
   4  13  -3  218.88   13.46
  -4  13   3  168.14   15.42
  -4  13   3  220.84   15.21
   4 -13   3  228.60   13.44
  -4 -13   3  219.92   15.24
  -4 -13   3  186.01   16.07
   4  13   3  176.94   14.97
   4  13   3  201.84   15.19
   4 -13  -3  214.57   12.36
  -4  13  -3  231.47   12.93
  -4 -13   3  206.44   12.08
  -4  13   5   78.40   10.90
  -4  13   5   76.71    9.71
   4  13  -5   69.16    7.25
   4 -13   5   90.08   10.16
  -4 -13  -5   78.65    9.02
   4 -13   5   47.77    8.70
  -4 -13   5   67.96   10.73
  -4 -13   5   67.23   10.40
   4 -13  -5   87.24    8.58
  -4  13   7   51.15    8.26
  -4  13   7   46.91    8.89
  -4 -13   7   25.88    7.41
  -4 -13   7   31.77    8.95
   4  13   7    6.50    7.44
  -4  13   9    3.62    8.76
   4 -13   9   -5.54    8.96
  -4  13   9    2.28    8.33
   4 -13   9   -0.95    7.75
  -4 -13   9   14.41    7.58
   4  13   9   -6.03    9.25
   4  13   9    6.89    7.97
  -4 -13   9    0.86    8.95
  -5  13   0   83.45    8.97
   5 -13   0   83.10    8.22
   5  13   0   83.41    9.12
   5 -13   0   88.36   10.01
  -5 -13   0   81.53    8.71
  -5 -13   0   84.58    8.77
  -5  13   0   88.00    9.18
   5 -13   0   90.33    8.24
   5  13   0   79.98    8.98
   5 -13   2   27.76    6.59
  -5  13   2   25.19    6.01
   5  13  -2   15.50    5.46
  -5  13   2   20.08    4.66
   5 -13   2   26.50    6.41
   5 -13   2   26.48    4.67
   5 -13   2   35.76    6.30
  -5 -13  -2   27.09    5.17
  -5  13   2   11.63    6.10
  -5 -13   2   17.29    4.76
   5  13   2   28.29    6.57
   5  13   2   32.96    4.68
   5  13   2   32.63    6.09
  -5 -13   2   20.26    5.87
  -5  13  -2   32.63    5.26
   5 -13  -2   22.94    4.33
   5 -13  -2   26.55    4.82
  -5 -13   2   16.07    6.43
   5 -13   4   22.37    8.27
   5 -13   4   19.70    7.18
  -5  13   4   25.86    4.72
  -5  13   4   18.60    7.88
   5 -13   4   11.11    7.51
  -5  13   4   23.89    7.35
  -5 -13  -4   22.12    5.88
   5  13  -4   16.40    6.31
  -5 -13   4   20.23    6.84
   5 -13  -4   25.50    5.54
   5  13   4    5.50    7.51
  -5  13  -4   15.34    5.60
  -5 -13   4   14.63    4.67
  -5 -13   4   13.69    8.46
   5  13   4   18.57    7.14
   5  13  -6    8.28    6.54
  -5  13   6   -2.72    7.83
  -5  13   6    1.67    7.62
  -5 -13  -6   11.47    5.80
   5 -13   6   -0.58    8.63
   5 -13   6   13.71    9.68
   5 -13   6    7.32    6.96
   5  13   6    9.53    7.49
   5 -13  -6    0.75    5.86
  -5 -13   6    2.80    6.83
   5  13   6    3.90    8.61
  -5  13  -6   -2.11    5.27
  -5 -13   6   -7.78    8.45
  -5  13   8   -7.36    7.96
   5 -13   8   -6.28    8.59
  -5  13   8   -2.91    8.38
   5 -13   8   -1.46    6.97
   5  13   8   -1.33    8.82
  -5 -13   8   -5.78    8.86
   5  13   8    6.94    7.70
  -5 -13   8    2.72    7.20
   6 -13   1  243.70   15.71
  -6  13   1  203.65   15.55
  -6  13   1  221.23   16.21
   6 -13   1  253.35   16.30
  -6 -13  -1  246.14   13.73
   6 -13   1  229.42   13.11
  -6  13   1  210.39   13.02
   6  13  -1  209.30   13.76
   6 -13   1  215.63   13.26
  -6 -13   1  203.96   15.76
  -6  13  -1  238.14   13.55
   6 -13  -1  207.01   12.66
   6  13   1  223.78   16.06
  -6 -13   1  202.46   15.63
   6  13   1  229.31   15.70
   6 -13  -1  214.57   13.24
  -6 -13   1  209.29   13.42
   6  13   1  229.58   13.25
   6 -13   3  159.17   10.48
   6  13  -3  199.54   12.77
  -6  13   3  186.42   14.97
   6 -13   3  126.80   13.55
  -6  13   3  167.14   11.19
  -6  13   3  176.57   13.43
   6 -13   3  151.76   12.49
  -6 -13  -3  180.97   11.89
  -6 -13   3  197.20   14.67
  -6 -13   3  168.62   13.46
   6  13   3  163.00   13.63
  -6  13  -3  167.14   11.42
  -6 -13   3  174.76   11.22
   6 -13  -3  162.15    9.61
   6 -13  -3  179.42   11.40
   6  13   3  147.29   13.51
  -6  13   5   59.51    8.88
  -6 -13  -5   82.94    9.33
   6  13  -5   60.67    7.49
  -6  13   5   61.16    9.78
   6 -13   5   72.02    9.83
   6  13   5   36.69    8.21
  -6  13  -5   36.69    6.31
   6 -13  -5   53.91    6.88
  -6 -13   5   56.96    8.14
  -6 -13   5   50.07    9.83
   6 -13   7   51.23   10.43
  -6  13   7   41.97    8.78
   6  13  -7   47.38    7.08
  -6  13   7   27.77    8.24
  -6 -13   7   39.76    9.52
  -6 -13   7   30.46    7.82
   6 -13   9  -20.67    9.22
   6 -13   9   -5.91    7.75
  -6  13   9    8.83    9.38
  -6  13   9    0.44    8.72
  -6 -13   9    1.96    9.12
  -6 -13   9   14.11    8.12
   6  13   9    4.61    8.00
   6  13   9   -1.07    9.06
   7 -13   0   -0.17    5.59
  -7  13   0    3.89    4.89
  -7 -13   0   -2.11    4.92
   7  13   0    3.72    5.56
   7  13   0    2.16    4.95
   7 -13   0    8.22    4.68
   7 -13   2    6.92    6.37
   7 -13   2   11.32    6.54
  -7 -13  -2    7.11    5.31
  -7  13   2    4.53    6.04
  -7  13   2    2.73    6.37
  -7  13   2    6.82    4.84
   7 -13   2    3.80    6.81
   7  13  -2    0.54    5.77
   7 -13   2    2.18    4.59
   7  13   2    7.02    5.95
   7 -13  -2    7.51    4.83
  -7 -13   2    4.43    6.79
  -7 -13   2    1.20    4.81
  -7 -13   2    2.69    5.65
   7  13   2    7.16    6.58
  -7  13  -2   12.75    5.17
   7 -13   4   12.67    7.45
   7  13  -4   10.03    6.90
  -7  13   4   21.30    7.50
   7 -13   4   13.02    8.02
  -7  13   4   17.94    8.24
   7 -13   4   16.68    8.84
  -7  13   4    7.10    5.09
  -7 -13  -4   17.09    6.39
   7  13   4    1.51    8.37
  -7  13  -4   12.21    5.77
  -7 -13   4   11.43    5.46
   7 -13  -4   13.84    6.21
  -7 -13   4    7.18    6.86
  -7 -13   4   10.06    8.77
   7  13   4    6.44    7.18
   7 -13   6    3.98    8.52
   7 -13   6    9.51    7.16
  -7  13   6    4.33    8.31
  -7 -13  -6   20.62    6.12
  -7  13   6    1.79    7.76
   7 -13   6   26.76    9.60
   7  13  -6    9.41    6.82
   7  13   6    5.43    8.34
  -7 -13   6    3.22    9.00
   7  13   6    2.25    7.11
   7 -13  -6    0.31    6.13
  -7 -13   6    8.61    6.85
  -7  13  -6    0.31    5.31
   7 -13   8    2.38    7.23
  -7  13   8   -2.81    8.17
   7 -13   8    2.94    9.85
   7 -13   8  -10.09    9.00
  -7  13   8   -4.90    8.12
   7  13   8    8.76    8.70
  -7 -13   8    6.22    7.57
  -7 -13   8   -4.44    9.13
   7  13   8    4.25    7.72
   8 -13   1  238.93   17.20
  -8 -13  -1  242.12   14.66
  -8  13   1  248.46   14.47
   8 -13   1  244.63   17.91
   8 -13   1  250.77   14.21
   8  13  -1  248.93   15.10
  -8  13   1  239.03   17.17
  -8 -13   1  253.61   17.37
   8  13   1  244.28   17.17
  -8 -13   1  254.61   14.80
   8 -13  -1  238.48   14.47
   8  13   1  243.60   17.33
  -8  13  -1  216.79   14.56
   8  13  -3  128.00   12.62
   8 -13   3  123.41    9.50
   8 -13   3  113.90   11.75
   8 -13   3  106.17   12.40
  -8  13   3  114.49   10.12
  -8  13   3  124.87   12.60
   8 -13   3   96.25   13.13
  -8 -13  -3  131.85   11.26
  -8  13   3  117.34   13.57
  -8 -13   3  117.41   12.19
   8 -13  -3  120.85   10.69
  -8  13  -3  135.38   10.57
   8  13   3  120.78   12.43
   8  13   3  126.14   10.07
  -8 -13   3  126.94   10.90
   8  13   3  122.45   12.29
  -8 -13   3  126.13   13.14
   8 -13   5   52.67   10.29
  -8 -13  -5   57.74    7.29
   8  13  -5   69.72    8.22
  -8  13   5   61.41    7.62
  -8  13   5   76.89   10.52
  -8  13   5   65.66    9.19
   8 -13  -5   59.36    7.39
   8  13   5   29.07   10.10
  -8 -13   5   50.87    5.91
  -8 -13   5   60.35    8.63
  -8 -13   5   65.19   10.57
   8 -13   7  -19.13    9.78
   8 -13   7   41.05   10.15
   8  13  -7   27.36    7.42
  -8  13   7   28.30    8.76
   8 -13  -7    7.42    6.38
   8  13   7   -4.27    8.87
  -8 -13   7   26.74    9.68
  -8 -13   7   26.57    7.87
   8  13   7   -7.62    7.25
   8 -13   9  -23.15    9.94
  -8  13   9    9.79    9.65
  -8  13   9    2.50    9.20
   8 -13   9  -10.64    7.88
  -8 -13   9    5.06    9.79
  -8 -13   9   15.20    8.50
   8  13   9    4.33    9.13
   8  13   9    7.35    8.49
   9 -13   0   11.26    6.43
   9  13   0    4.25    6.14
  -9 -13   0    4.79    5.53
  -9  13   0    9.49    5.28
   9 -13   0    9.01    5.26
   9  13   0   17.61    5.60
   9 -13   2   39.28    7.73
  -9  13   2   21.61    5.64
  -9 -13  -2   23.18    6.33
   9 -13   2   27.98    5.50
  -9  13   2   18.52    7.09
  -9  13   2   21.40    7.07
   9  13  -2   20.84    6.80
   9 -13   2   35.46    7.44
   9  13   2   31.81    7.57
   9  13   2   32.50    7.09
  -9 -13   2   23.73    7.69
   9 -13  -2   22.96    5.76
  -9 -13   2   25.51    6.76
  -9 -13   2   14.39    5.80
  -9  13  -2   34.41    6.01
  -9  13   4   -5.41    8.52
   9 -13   4   15.73    7.82
  -9  13   4    6.06    5.40
   9 -13   4   13.88    8.37
   9  13  -4    8.37    7.32
   9 -13   4   10.83    9.31
  -9 -13  -4    3.84    6.67
  -9  13   4    7.86    7.82
  -9 -13   4    7.64    9.02
  -9 -13   4    4.67    7.17
   9 -13  -4    5.41    6.55
   9  13   4    3.20    8.54
  -9  13  -4   12.29    6.03
   9  13   4   14.92    7.43
  -9 -13   4    7.14    6.22
   9 -13   6   -2.39    9.55
   9  13  -6   -7.16    7.05
  -9  13   6    0.14    8.36
  -9 -13  -6   13.24    6.26
   9 -13   6   -0.52    7.36
  -9  13   6   -4.11    8.19
   9 -13   6   11.11    9.63
  -9 -13   6    7.42    7.66
  -9 -13   6   -1.93    8.72
  -9  13  -6  -12.57    5.44
   9  13   6   -3.58    9.15
   9  13   6    8.28    7.22
   9 -13  -6   -2.58    6.34
  -9  13   8    2.63    9.24
  -9  13   8   -9.55    8.34
   9 -13   8   10.15   10.10
   9 -13   8   -4.32    9.59
   9 -13   8   -2.00    7.73
  -9 -13   8   -2.97    9.40
  -9 -13   8    6.74    7.98
   9  13   8    7.54    7.72
   9  13   8   -2.26    8.90
  10 -13   1  144.56   13.36
 -10  13   1  131.83   12.55
  10 -13   1  149.84   11.69
 -10  13   1  157.10   11.87
 -10 -13  -1  148.70   12.52
  10 -13   1  150.79   14.11
  10  13  -1  166.14   12.24
 -10  13  -1  134.74   11.63
 -10 -13   1  140.62   12.24
 -10 -13   1  144.01   13.58
  10 -13  -1  141.87   11.26
  10  13   1  158.65   13.56
  10  13   1  141.34   13.66
  10  13  -3  105.93   12.24
 -10  13   3   87.00   13.27
  10 -13   3   91.32   12.44
  10 -13   3   93.77   12.95
 -10  13   3   96.93   11.78
 -10  13   3   82.62    9.85
 -10 -13  -3  107.67   11.36
  10 -13   3  100.03    9.14
 -10 -13   3   83.14   12.60
  10  13   3   95.13   12.01
 -10 -13   3   86.49   11.68
  10  13   3   93.62    9.98
 -10 -13   3   88.63   11.19
  10  13   3   88.98   12.12
  10 -13  -3   89.56   10.95
 -10  13  -3   93.60   10.36
 -10  13   5   60.98   10.07
 -10  13   5   45.87    5.94
  10  13  -5   48.41    8.19
 -10 -13  -5   42.60    7.39
  10 -13   5   47.68   10.27
 -10  13   5   51.11    9.16
 -10 -13   5   42.71    6.47
 -10 -13   5   54.46   10.19
  10  13   5   33.58    9.76
  10 -13  -5   39.42    7.27
 -10 -13   5   59.92    8.57
 -10  13   7   34.75    8.95
  10 -13   7  -10.60    7.70
  10 -13   7  -11.91    9.89
  10 -13   7   45.56   10.59
 -10  13   7   19.30    9.06
 -10 -13   7   35.61   10.17
  10  13   7   10.02    7.75
  10 -13  -7    4.12    6.70
  10  13   7    3.95    9.48
  10 -13   9   -2.79    8.27
 -10  13   9   12.78    9.04
  10  13   9    2.69    8.93
 -10 -13   9    4.30   10.58
 -10 -13   9   18.93    7.95
  10  13   9    7.24    8.60
 -11 -13   0   13.77    6.36
  11  13   0   20.35    7.16
  11 -13   0   12.21    7.26
 -11  13   0   20.12    6.08
  11 -13   0   12.55    5.85
 -11  13   2   -3.67    7.52
 -11  13   2    2.49    7.28
 -11  13   2    4.07    5.93
 -11 -13  -2    1.67    6.86
  11 -13   2    5.92    5.96
  11 -13   2    6.62    8.05
  11 -13   2   13.34    8.18
 -11  13  -2    7.38    6.31
  11  13   2    2.67    6.28
 -11 -13   2    8.43    7.13
 -11 -13   2    6.15    8.21
  11  13   2    0.90    7.97
  11  13   2    7.31    7.16
  11 -13  -2   -0.18    6.34
 -11 -13   2    5.58    6.53
 -11  13   4    2.60    8.15
 -11 -13  -4   -0.75    7.25
  11 -13   4    7.05    8.18
 -11  13   4   -2.38    5.92
  11 -13   4   21.51    9.92
  11 -13   4   10.53    8.94
  11  13  -4    8.95    7.73
 -11  13   4    2.97    8.63
 -11 -13   4   -5.59    9.08
  11  13   4    6.97    7.57
 -11 -13   4    0.01    7.54
  11  13   4    1.24    9.12
 -11  13  -4    9.37    6.34
  11 -13  -4   -5.49    6.86
 -11 -13   4   -0.67    6.73
  11 -13   6   16.31    9.98
  11 -13   6   12.32   10.12
 -11  13   6   -1.20    8.56
  11 -13   6    1.75    7.67
 -11  13   6   -1.85    8.38
  11  13   6    5.16    9.00
 -11  13  -6   -6.98    5.57
 -11 -13   6    8.31    8.04
  11  13   6   -1.03    7.24
  11 -13  -6   -4.74    6.61
 -11 -13   6   -1.21    9.48
 -11  13   8   -8.13    9.08
  11 -13   8  -11.96   10.15
  11 -13   8    5.76   11.08
  11 -13   8   -3.12    8.03
 -11 -13   8   -1.99   10.11
  11  13   8   11.00    8.13
  11  13   8    9.28    9.64
  12 -13   1  102.18   12.76
 -12  13   1   76.16   12.17
 -12  13   1   91.64   10.97
  12 -13   1  117.28   11.19
 -12 -13  -1  102.17   12.02
  12 -13  -1   93.85   11.17
 -12 -13   1   98.82   12.29
  12  13   1  106.26   12.60
 -12 -13   1   88.11   11.91
 -12  13  -1  102.25   11.25
  12  13   1   95.38   11.82
  12  13   1  104.49   12.88
 -12  13   3   93.67   10.40
 -12 -13  -3   93.59   11.43
  12 -13   3   64.27   10.25
 -12  13   3  102.08   13.61
  12 -13   3   81.14   12.90
  12 -13   3   79.22    9.84
 -12  13   3   86.12   11.90
  12 -13  -3   79.05    8.35
 -12 -13   3   89.21   12.58
  12  13   3   87.69   11.83
 -12 -13   3  101.06   12.21
 -12 -13   3  100.73   11.98
 -12  13  -3   82.45   10.47
  12  13   3   90.45   10.55
  12  13   3   83.54   12.80
 -12  13   5   53.71    6.26
 -12  13   5   67.02    9.83
 -12  13   5   47.76    9.54
 -12 -13  -5   40.05    7.55
  12 -13   5   47.06   10.44
  12 -13  -5   43.75    7.38
  12  13   5   33.92    8.22
 -12 -13   5   57.53    9.97
 -12 -13   5   40.23    6.97
  12  13   5   42.09    9.88
 -12 -13   5   52.51    8.62
 -12  13   7   15.66    9.19
  12 -13   7   33.42   10.80
  12 -13   7  -13.24    8.04
  12 -13   7  -13.94   10.15
  12 -13  -7    8.48    6.89
  12  13   7   10.93    8.19
 -12 -13   7   31.19   10.47
  12  13   7   15.79    9.59
  13 -13   0    0.23    6.50
 -13  13   0    8.56    6.44
 -13 -13   0    1.21    6.96
  13  13   0   11.70    7.65
  13 -13   0    3.83    7.96
  13  13   0   -7.63    7.08
  13 -13   2    9.29    6.49
 -13 -13  -2    8.64    7.52
 -13  13   2    1.19    7.56
 -13  13   2    2.74    6.30
  13 -13   2    4.23    8.50
  13  13   2    8.40    8.63
  13  13   2   10.09    7.69
  13 -13  -2   -1.86    6.88
 -13  13  -2   16.57    6.75
 -13 -13   2    7.03    8.81
 -13 -13   2    2.77    7.04
  13  13   2   11.35    6.86
 -13 -13  -4   10.90    7.59
 -13  13   4   -6.05    8.61
 -13  13   4    1.21    6.00
  13 -13   4    7.19    8.33
  13 -13   4   13.43    9.40
 -13 -13   4    9.09    7.32
  13 -13  -4    7.33    7.14
  13  13   4    8.96    9.20
  13  13   4   11.04    7.74
 -13  13  -4    4.93    6.57
 -13 -13   4    8.77    9.57
  13  13   4    7.05    5.12
 -13 -13  -6   19.39    7.01
  13 -13   6    7.64   10.60
 -13  13   6   -8.86    9.09
  13 -13   6   22.52   10.38
  13 -13   6    3.78    8.16
  13  13   6    9.32    8.27
 -13  13  -6   -6.19    5.83
  13 -13  -6   -0.38    7.04
  13  13   6   10.43    9.20
 -13 -13   6    2.64   10.14
 -13  13   8  -15.01    9.77
  13 -13   8   18.58   11.51
  13 -13   8   -3.40    8.75
  13 -13   8  -20.87   10.61
  13  13   8    3.39    8.62
  13  13   8    5.64    9.61
 -13 -13   8   -3.37   10.73
 -14 -13  -1   50.45    8.19
 -14  13   1   59.99    7.33
  14 -13   1   44.53    7.60
  14 -13   1   58.90    9.72
  14  13   1   59.78    9.47
  14  13   1   48.69    7.69
 -14 -13   1   53.94    8.01
  14  13   1   49.40    8.78
  14 -13  -1   55.93    7.44
 -14  13  -1   52.28    7.42
 -14  13   3   38.63    6.92
  14 -13   3   40.09    6.57
  14 -13   3   29.16    9.28
 -14  13   3   40.33    8.99
 -14 -13  -3   40.84    8.27
 -14 -13   3   42.26    7.83
  14 -13  -3   39.40    7.52
  14  13   3   44.46    8.70
 -14  13  -3   41.97    7.38
  14  13   3   34.08    9.74
 -14 -13   3   47.75   10.12
  14  13   3   37.94    7.29
  14 -13   5   46.09   10.61
 -14 -13  -5   46.27    7.79
 -14  13   5   33.11    9.49
 -14  13   5   39.40    6.46
  14  13   5   39.41    9.89
 -14  13  -5   11.72    6.43
  14  13   5   31.11    8.11
  14 -13  -5   34.54    7.61
 -14 -13   5   52.39    9.93
 -14 -13   5   34.68    7.37
 -14  13   7   -1.23    9.67
  14 -13   7   21.23   10.95
  14 -13   7   -7.78    8.39
  14 -13  -7    5.80    7.09
  14  13   7    8.59    8.46
  14  13   7   19.43    9.58
 -14 -13   7   19.02   10.76
 -15  13   0    5.09    6.76
  15 -13   0   -0.61    6.78
  15  13   0   -2.12    7.38
 -15 -13   0    1.24    7.62
  15 -13   2   16.08    9.20
  15 -13   2   23.50    7.12
 -15 -13  -2    9.27    7.99
 -15  13   2   12.12    6.69
  15  13   2   16.21    7.54
 -15 -13   2   19.53    7.70
  15  13   2   11.66    9.10
  15 -13  -2   -0.16    7.22
 -15  13  -2   14.95    7.17
 -15  13   4   -0.28    6.31
 -15  13   4  -12.17    8.75
  15 -13   4    7.56    4.92
  15 -13   4    3.55    8.39
 -15 -13  -4    2.53    7.44
 -15 -13   4    3.31    7.51
  15  13   4   14.02    9.14
  15  13   4    4.69    7.69
 -15  13  -4   -2.03    6.54
 -15 -13   4   -7.27    9.05
  15 -13  -4   -6.33    6.93
  15  13   4    9.22    5.54
 -15  13   6  -19.93    9.06
  15 -13   6   14.13   10.70
  15 -13   6   -1.82    8.47
 -15  13   6    3.23    5.62
 -15 -13  -6   11.83    7.23
 -15  13  -6  -12.39    6.07
  15  13   6    3.61    8.49
 -15 -13   6   -1.11   10.35
  15 -13  -6   -9.70    7.35
  15  13   6    3.28    9.15
  15  13   8    6.42    9.80
  15  13   8    2.02    9.15
 -15 -13   8  -12.42   11.37
  16 -13   1   30.17    9.54
 -16  13   1   30.15    7.20
  16 -13   1   38.82    7.45
  16  13  -1   25.65    7.90
 -16 -13  -1   30.43    8.44
 -16  13  -1   27.32    7.22
  16  13   1   29.68    7.82
  16  13   1   34.55    9.24
  16 -13  -1   31.37    7.32
 -16 -13   1   31.45    8.04
 -16  13   3   17.46    6.58
  16  13  -3   26.82    8.66
  16 -13   3   13.88    8.86
 -16 -13  -3   20.85    8.02
  16 -13   3   30.67    6.58
  16 -13  -3   23.02    7.21
  16  13   3   29.23    7.14
 -16  13  -3   21.91    7.10
 -16 -13   3   24.52    7.71
  16  13   3   27.51    9.25
  16 -13   5    0.32    8.54
 -16  13   5   15.50    6.60
  16  13  -5   22.90    9.61
 -16 -13  -5   19.96    7.60
  16  13   5   21.68    8.09
 -16  13  -5    1.77    6.41
  16 -13  -5   13.68    7.33
 -16 -13   5    6.85    7.58
  16  13   5   21.45    9.33
  16 -13   7   -1.95    8.97
  16  13  -7   26.03    9.70
  16 -13   7   10.71   11.43
  16  13   7   11.16    9.16
  16 -13  -7    5.84    7.72
  16  13   7   16.58    9.57
 -17 -13   0   10.47    7.93
  17 -13   0    7.03    6.86
 -17  13   0    2.01    6.88
  17  13   0    4.33    7.31
  17 -13   2   -2.44    8.93
  17 -13   2   10.90    7.09
 -17  13   2   -1.99    6.59
  17  13  -2   -6.37    7.86
 -17 -13  -2   11.04    8.09
  17 -13  -2   -1.23    7.01
 -17  13  -2    0.06    7.17
  17  13   2   15.94    9.01
  17  13   2    7.87    7.56
 -17 -13   2    6.95    7.65
  17 -13   4   19.52    5.32
 -17 -13  -4   12.84    8.05
  17  13  -4    7.07    8.86
 -17  13   4    4.86    6.75
  17 -13   4   11.41    8.98
  17 -13  -4   -0.62    7.30
 -17 -13   4   11.71    7.90
  17  13   4   10.24    9.31
 -17  13  -4    0.10    6.98
  17  13   4   16.59    6.00
  17 -13   6    9.15   11.07
  17 -13   6   -3.92    8.94
 -17  13   6   -6.05    6.20
 -17 -13  -6   -6.37    7.56
  17  13  -6   10.51    9.62
  17 -13  -6   -5.55    7.56
  17  13   6    1.63    9.29
  18  13  -1   18.83    7.41
  18 -13   1   19.44    7.20
 -18 -13  -1   15.54    8.37
 -18  13   1   10.89    6.80
 -18 -13   1   13.55    7.72
 -18  13  -1   14.45    6.99
  18  13   1   11.72    7.54
  18 -13  -1   11.59    7.00
 -18  13   3   18.80    6.88
  18 -13   3   12.94    6.72
  18 -13   3   11.46    9.17
 -18 -13  -3   14.46    8.42
  18  13  -3   21.80    8.62
 -18  13  -3   19.10    7.06
  18  13   3   28.70    9.56
  18 -13  -3   15.76    7.34
  18  13   3    9.51    7.53
 -18 -13   3   15.92    8.01
  18  13  -5   20.28    9.47
 -18 -13  -5   10.68    8.10
 -18  13   5    8.30    6.68
  18 -13   5    0.02    8.93
 -18  13  -5    0.70    6.71
  18  13   5   24.45    9.55
 -18 -13   5   -2.26    8.07
  18 -13  -5    6.96    7.56
  18 -13   7   -2.14    9.80
  18  13   7   22.99    9.91
  19 -13   0    4.37    7.02
 -19  13   0    3.56    6.90
  19  13   0    7.77    7.56
 -19 -13   0    7.80    8.09
 -19 -13  -2   18.07    8.73
  19  13  -2   11.84    7.87
  19 -13   2   16.51    7.60
 -19  13   2   11.97    7.00
 -19  13  -2    5.03    7.37
  19  13   2   13.84    7.95
  19 -13  -2    7.52    7.43
 -19 -13   2   17.53    8.14
  19 -13   4    4.28    5.81
 -19 -13  -4    2.82    8.33
  19  13  -4    7.30    8.79
  19 -13   4   -7.25    9.00
 -19  13   4   -4.78    6.79
  19  13   4   10.06    9.59
  19 -13  -4   -3.08    7.56
 -19 -13   4   -9.23    8.20
  19  13   4   -7.65    6.29
 -19  13  -4   -5.44    6.88
 -19  13   6   -8.48    7.06
  19 -13   6   -6.55    9.29
  19 -13   6   10.42   11.72
  19  13  -6    4.99    9.96
  19  13   6   11.56    9.90
  19 -13  -6   -8.85    7.66
 -20 -13  -1    9.98    8.92
 -20  13   1    8.80    6.93
  20  13  -1   15.84    7.94
  20 -13   1   14.28    7.54
  20  13   1   10.53    7.94
  20 -13  -1   11.71    7.40
 -20  13  -1   14.06    7.28
 -20 -13   1   15.10    8.30
  20 -13   3   -0.17    6.98
 -20 -13  -3    2.76    8.83
 -20  13   3    9.77    7.02
  20  13  -3   20.27    8.41
 -20  13  -3    1.24    7.26
  20 -13  -3    2.91    7.36
 -20 -13   3    7.04    8.47
  20  13   3    0.66    7.74
  20  13  -5    9.21    9.56
 -20  13   5   -1.01    7.25
  20 -13   5   -8.62    9.43
 -20 -13  -5  -10.86    8.61
  20  13   5   22.96    9.99
 -20  13  -5  -14.59    6.91
  20 -13  -5   -3.07    7.61
 -21  13   0    2.90    7.18
  21  13   0   12.66    7.96
 -21 -13   0   14.24    8.71
  21 -13   0    5.52    7.39
 -21  13   2    8.58    7.26
  21 -13   2   18.60    8.00
  21  13  -2   15.52    8.37
 -21 -13  -2   16.04    9.09
 -21 -13   2   11.61    8.44
  21 -13  -2    6.19    7.51
 -21  13  -2    0.38    7.67
  21  13   2   16.91    8.26
 -21  13   4   -4.43    7.38
 -21 -13  -4    1.88    9.03
  21  13  -4    3.41    9.16
 -21  13  -4   -9.19    7.26
  21 -13  -4  -16.81    7.71
 -21 -13   4  -15.56    8.66
  22 -13   1   -6.27    7.76
  22  13  -1    0.47    8.14
 -22 -13  -1   -3.21    8.99
 -22  13   1   -4.73    7.10
 -22  13  -1   -6.85    7.33
 -22 -13   1   -3.60    8.59
  22  13   1   -5.17    8.19
  22 -13  -1   -2.99    7.26
  22  13  -3    1.43    8.80
  22 -13   3   -8.56    7.34
 -22  13   3   -6.31    7.32
 -22 -13  -3   -2.98    9.27
  22  13   3   -2.43    8.09
 -22  13  -3   -6.83    7.53
  22 -13  -3   -1.24    7.54
 -22 -13   3  -14.24    8.68
 -22  13   5   -6.42    7.94
 -22 -13  -5  -10.15    9.35
  22  13  -5    4.45   10.28
  22 -13  -5   -1.43    8.38
 -22  13  -5  -17.90    7.49
 -23  13   0    2.41    7.55
  23  13   0   14.99    8.45
  23 -13   0   10.38    7.81
 -23 -13   0    7.43    9.24
 -23 -13  -2   -1.40    9.62
  23 -13   2    3.09    8.39
  23  13  -2    7.34    8.68
 -23  13   2    1.11    7.47
 -23 -13   2   -3.30    9.08
  23  13   2   10.14    8.88
  23 -13  -2    4.00    7.65
 -23  13  -2   -1.63    7.80
 -23  13   4   -4.35    8.02
 -23 -13  -4   -3.76    9.77
  23  13  -4    3.17    9.79
 -23 -13   4  -25.31    9.25
 -23  13  -4   -9.81    7.98
  23 -13  -4   -3.79    8.22
  24  13  -1   -0.53    8.60
  24 -13   1   -9.68    8.23
 -24  13   1   -1.70    7.71
 -24 -13  -1   -8.61    9.39
  24  13   1   -6.33    8.66
 -24 -13   1   -7.38    9.34
  24 -13  -1   -6.36    7.49
 -24  13  -1   -4.41    7.77
  24  13  -3    0.56    9.44
 -24 -13  -3  -17.42   10.01
  24 -13   3  -21.42    7.92
 -24  13   3   -9.80    7.82
 -24 -13   3  -28.15    9.40
  24  13   3  -13.26    8.65
 -24  13  -3   -6.43    7.94
  24 -13  -3   -5.45    8.20
 -25  13   0   -2.92    7.95
  25 -13   0    2.56    8.48
  25  13   0    6.15    8.97
 -25 -13   0   -9.68    9.87
  25 -13   2   -7.25    9.08
  25  13  -2    8.34    9.32
 -25 -13  -2    0.51   10.29
 -25  13   2   -6.25    8.11
 -25 -13   2   -7.79    9.87
  25 -13  -2   -9.01    8.16
  25  13   2    3.78    9.54
 -25  13  -2    3.31    8.43
   0 -14   0    1.77    5.54
   0  14   0   -0.61    5.16
   0 -14   0   -1.07    4.41
   0  14   0   -3.41    4.84
   0 -14   2   -2.14    6.45
   0  14   2    0.97    6.22
   0 -14   2   -5.09    4.19
   0 -14  -2   -0.50    4.63
   0  14  -2   -1.98    5.27
   0 -14   2    0.95    5.88
   0  14   2   -4.00    4.42
   0  14   2    0.51    5.87
   0  14   4    1.16    7.32
   0 -14   4   -2.20    6.83
   0 -14  -4   -0.41    5.26
   0  14  -4    3.71    5.67
   0 -14   4    5.27    7.48
   0  14   4   -2.84    7.40
   0  14  -6    4.82    5.76
   0 -14   6    8.77    8.11
   0 -14   6   -0.66    7.62
   0 -14  -6   -2.23    5.71
   0  14   6   10.20    8.02
   0  14   6    8.30    8.50
   0  14   8    8.32    8.19
   0 -14   8   -3.63    7.83
   0  14   8   -4.11    8.50
   0 -14   8    2.36    7.50
  -1  14   1  496.77   25.59
  -1  14   1  499.16   31.63
  -1 -14  -1  497.95   25.47
   1 -14   1  527.55   31.54
   1  14  -1  530.53   25.84
   1 -14   1  568.50   31.80
   1 -14   1  511.81   25.45
  -1  14   1  494.54   31.48
  -1 -14   1  471.01   31.42
  -1 -14   1  489.80   25.33
  -1 -14   1  477.75   31.30
   1  14   1  516.98   31.50
  -1  14  -1  552.61   25.73
   1  14   1  490.26   25.43
   1 -14  -1  488.25   25.49
   1  14   1  547.16   31.75
   1 -14   3  231.76   16.49
  -1  14   3  220.26   16.55
   1 -14   3  236.16   12.67
  -1 -14  -3  257.13   13.44
   1  14  -3  237.63   14.25
  -1  14   3  219.82   13.20
   1 -14   3  208.65   17.03
  -1 -14   3  223.43   12.84
   1 -14  -3  236.63   13.44
   1  14   3  241.71   16.54
   1  14   3  211.09   16.71
   1  14   3  235.40   12.77
  -1 -14   3  228.00   16.54
  -1  14  -3  252.69   14.15
   1 -14   5   55.94    8.89
  -1 -14  -5   74.63    8.69
  -1  14   5   58.95    9.26
   1 -14   5   44.88    8.45
   1  14  -5   48.03    6.67
  -1  14   5   47.53    8.83
  -1 -14   5   44.86    9.02
   1  14   5   53.70    8.87
  -1 -14   5   42.09    8.25
   1 -14  -5   78.76    8.81
   1  14   5   49.83    8.88
  -1  14  -5   51.24    6.61
  -1  14   7   25.21    8.65
  -1  14   7   37.05    8.11
   1 -14   7    0.09    7.62
   1 -14   7    6.76    8.20
  -1 -14   7   26.24    8.23
   1  14   7   -1.03    8.74
   1  14   7   18.98    7.99
  -1 -14   7   13.60    7.50
  -1  14   9    2.92    8.35
   1 -14   9    7.63    8.16
   1 -14   9    0.32    8.00
  -1  14   9   -3.35    8.92
  -1 -14   9   -0.87    8.58
   1  14   9   -4.08    9.11
   1  14   9    6.68    8.29
  -1 -14   9    8.06    7.95
  -2  14   0   46.05    6.16
   2 -14   0   37.46    4.98
   2 -14   0   40.80    5.46
  -2 -14   0   38.22    5.19
   2 -14   0   46.76    6.35
  -2 -14   0   42.31    6.16
  -2  14   0   41.25    5.46
   2  14   0   36.25    5.40
   2  14   0   44.13    6.25
  -2  14   2   18.39    6.15
  -2  14   2   19.37    6.17
   2  14  -2   10.77    5.42
   2 -14   2    2.93    6.43
  -2 -14  -2    4.37    4.89
  -2  14   2   15.86    4.59
   2 -14   2    3.77    6.12
   2 -14   2    6.44    4.38
   2 -14   2    9.67    6.01
   2  14   2    7.69    6.39
  -2 -14   2   16.31    6.32
  -2 -14   2   12.09    4.38
  -2 -14   2   15.38    6.05
   2  14   2    5.00    6.08
   2  14   2    1.58    4.33
   2 -14  -2   14.33    4.69
  -2  14  -2    5.70    5.19
   2 -14   4    7.09    7.18
  -2  14   4    2.23    3.93
   2  14  -4   -0.77    5.76
   2 -14   4   -1.38    8.17
  -2  14   4   -3.17    7.53
   2 -14   4    6.05    7.48
  -2  14   4    6.04    7.19
  -2 -14  -4    0.20    5.61
   2  14   4    1.57    7.20
  -2 -14   4   -0.45    6.78
  -2  14  -4    3.16    5.60
  -2 -14   4   -3.30    7.74
   2 -14  -4    6.09    5.39
   2  14   4    3.84    7.49
   2 -14   6    3.51    7.92
  -2 -14  -6   -3.17    5.83
   2 -14   6   -0.81    7.96
   2  14  -6    7.00    5.57
  -2  14   6    3.05    7.86
  -2  14   6    1.87    7.80
   2  14   6    1.60    7.81
   2  14   6    0.35    8.71
  -2  14  -6   -0.14    5.44
   2 -14  -6   -4.05    5.90
  -2 -14   6   -3.02    7.17
  -2 -14   6   -4.23    8.18
  -2  14   8    0.84    7.94
  -2  14   8   -6.27    8.48
   2 -14   8    2.54    7.96
   2 -14   8    2.90    8.03
   2  14   8    7.27    8.94
  -2 -14   8    6.30    7.33
  -2 -14   8    5.69    8.63
   2  14   8    9.43    8.25
   3  14  -1  459.91   22.29
   3 -14   1  426.68   21.94
  -3  14   1  430.22   22.17
  -3 -14  -1  428.40   22.01
   3 -14   1  413.75   22.09
   3 -14   1  431.07   27.01
  -3  14   1  435.75   27.10
   3 -14   1  442.71   27.40
  -3  14   1  446.47   27.25
  -3  14  -1  446.21   22.37
   3 -14  -1  402.33   21.42
   3  14   1  422.18   27.00
  -3 -14   1  449.63   27.26
   3  14   1  406.76   22.04
  -3 -14   1  438.01   27.16
   3 -14  -1  409.37   21.97
   3  14   1  442.44   27.24
  -3 -14   1  437.93   21.91
  -3 -14  -3  228.81   13.22
   3 -14   3  215.21   14.28
   3 -14   3  189.45   15.86
  -3  14   3  239.24   16.12
   3 -14   3  215.80   12.20
   3  14  -3  227.29   13.70
  -3  14   3  208.02   16.08
  -3  14   3  227.47   12.74
  -3 -14   3  214.19   12.48
   3  14   3  199.56   12.17
  -3 -14   3  239.88   16.10
   3 -14  -3  233.32   13.07
  -3 -14   3  228.96   16.61
   3  14   3  181.54   15.89
  -3  14  -3  224.23   13.65
   3 -14   5  103.53   12.81
  -3  14   5  108.63   11.95
  -3  14   5   88.96   12.30
  -3 -14  -5  111.58    9.99
   3  14  -5  109.56   10.70
  -3 -14   5   99.25   12.98
  -3 -14   5  101.10   11.61
   3 -14  -5  123.80    9.60
   3 -14   7    9.04    7.85
  -3  14   7   35.00    8.00
   3 -14   7   -9.86    7.97
  -3  14   7   30.10    8.11
   3  14   7  -13.46    8.84
  -3 -14   7   18.74    7.16
   3  14   7   12.49    7.69
  -3 -14   7   28.65    8.95
  -3  14   9    3.01    9.06
  -3  14   9    3.05    8.91
   3 -14   9   -0.41    8.24
   3 -14   9   -7.56    8.87
   3  14   9   -8.79    9.65
  -3 -14   9   -0.16    8.96
  -3 -14   9   11.16    7.83
   3  14   9    3.00    8.44
  -4  14   0   -5.35    5.42
  -4 -14   0    4.45    5.10
   4  14   0   -2.14    4.77
  -4 -14   0   -2.84    4.66
   4 -14   0    4.16    5.46
   4  14   0    1.30    5.52
   4 -14   0   -1.47    4.35
  -4  14   0    3.23    4.86
   4 -14   0   -4.05    5.12
   4 -14   2    4.77    4.47
   4 -14   2    7.26    6.08
   4 -14   2    4.59    6.11
  -4  14   2    3.52    5.89
  -4  14   2    2.15    4.60
  -4 -14  -2    0.94    4.86
   4  14  -2    0.46    5.51
   4 -14   2    2.48    6.27
  -4  14   2    4.02    5.88
  -4 -14   2    1.49    4.44
  -4  14  -2    6.99    5.06
  -4 -14   2    6.13    5.95
   4  14   2    0.49    6.15
   4 -14  -2    5.06    3.75
   4  14   2    1.71    5.89
  -4 -14   2    6.65    6.51
   4 -14  -2    4.41    4.78
   4  14   2   -1.47    4.47
  -4 -14  -4   14.28    5.78
   4 -14   4   12.94    7.91
  -4  14   4    6.74    7.62
   4 -14   4   11.13    8.11
   4  14  -4    0.24    6.29
  -4  14   4   14.74    7.36
   4 -14   4   12.23    7.46
  -4  14   4    6.20    4.44
  -4 -14   4    6.61    6.55
  -4 -14   4   -0.15    8.49
   4  14   4    6.87    8.01
   4  14   4   10.37    7.55
  -4 -14   4   12.51    4.55
  -4  14  -4   12.18    5.76
   4 -14  -4   17.84    5.75
  -4  14   6    3.46    8.16
  -4  14   6    0.54    7.70
   4 -14   6    7.33    7.44
  -4 -14  -6   13.80    6.19
   4 -14   6    4.69    8.54
   4 -14   6   21.82    9.85
   4  14  -6    1.63    5.96
  -4 -14   6    4.64    7.06
  -4  14  -6    7.99    5.48
   4 -14  -6   -2.33    5.80
   4  14   6   13.37    7.58
   4  14   6    5.42    8.87
  -4 -14   6   -0.67    9.02
   4 -14   8    1.28    7.79
  -4  14   8   -6.63    8.10
   4 -14   8   -1.35    8.81
  -4  14   8   -1.27    8.39
   4  14   8   -0.84    8.00
  -4 -14   8   -0.39    8.75
  -4 -14   8    6.10    7.25
   5  14  -1  361.41   18.52
  -5  14   1  365.90   22.50
  -5  14   1  334.43   18.29
  -5 -14  -1  337.23   18.24
   5 -14   1  346.78   22.15
   5 -14   1  314.96   18.14
   5 -14   1  329.03   18.11
   5 -14   1  353.67   22.61
  -5  14   1  360.95   22.29
  -5 -14   1  338.39   18.33
  -5 -14   1  348.56   22.02
   5 -14  -1  341.32   17.61
   5 -14  -1  336.70   18.04
   5  14   1  325.57   21.80
   5  14   1  327.49   22.27
   5  14   1  324.90   18.19
  -5  14  -1  325.01   18.23
  -5 -14   1  343.81   22.16
  -5  14   3  301.69   20.99
   5 -14   3  291.46   15.95
  -5 -14  -3  301.51   16.81
  -5  14   3  306.29   20.13
   5 -14   3  290.83   17.70
  -5  14   3  309.26   16.44
   5  14  -3  337.96   17.58
  -5  14  -3  307.14   16.88
  -5 -14   3  305.59   20.40
  -5 -14   3  312.18   20.81
   5  14   3  273.02   20.30
   5 -14  -3  301.30   16.49
  -5 -14   3  303.17   16.40
   5  14   3  282.60   20.38
   5  14  -5   69.83    7.49
  -5 -14  -5   84.30    9.64
  -5  14   5   76.30   10.04
  -5  14   5   73.62   11.13
   5 -14   5   87.73   10.12
  -5 -14   5   67.58   10.77
   5 -14  -5   81.22    9.11
  -5 -14   5   70.76   10.93
  -5  14   7   47.34    8.70
   5 -14   7   46.57   10.04
  -5  14   7   47.01    8.88
   5  14   7   -0.98    7.85
   5 -14  -7    7.55    5.89
  -5 -14   7   23.45    7.62
  -5 -14   7   39.90    9.21
   5  14   7   -3.56    9.36
  -5  14   9   -2.00    8.73
  -5  14   9   10.81    9.40
   5 -14   9   -1.62    8.34
   5 -14   9  -16.57    9.36
   5  14   9    4.36    8.47
   5  14   9  -10.91    9.14
  -5 -14   9    0.93    9.51
  -5 -14   9    8.75    7.94
   6  14   0   33.02    6.17
   6 -14   0   30.69    5.08
  -6 -14   0   33.60    6.33
   6 -14   0   31.39    6.31
   6  14   0   26.74    5.59
  -6  14   0   35.49    6.36
   6 -14   0   32.67    6.06
  -6  14   0   31.81    5.41
  -6 -14   0   26.59    5.36
  -6  14   2   18.05    6.38
   6 -14   2   35.46    7.00
   6 -14   2   39.13    6.79
  -6  14   2    1.86    6.64
  -6 -14  -2   23.48    5.52
   6 -14   2   22.33    5.00
  -6  14   2   15.36    4.95
   6 -14   2   35.01    6.88
   6  14  -2    8.99    5.87
   6 -14  -2   21.57    5.10
   6  14   2   34.39    6.59
  -6  14  -2   36.13    5.67
   6  14   2   27.45    6.93
   6  14   2   33.67    4.97
  -6 -14   2   18.69    6.13
  -6 -14   2   17.95    5.06
   6 -14  -2   27.99    4.84
  -6 -14   2    9.98    7.05
   6 -14   4   12.67    8.70
  -6  14   4   15.50    7.66
   6  14  -4   11.77    6.80
   6 -14   4    1.12    7.54
  -6  14   4    9.57    8.37
  -6  14   4    7.20    5.10
   6 -14   4    2.52    7.79
  -6 -14  -4    9.60    6.23
  -6 -14   4    4.49    8.64
   6  14   4    7.90    8.18
   6  14   4    2.70    7.42
   6 -14  -4   14.97    5.78
  -6 -14   4    2.01    5.33
  -6 -14   4    7.48    6.97
  -6  14  -4   11.67    5.92
   6  14  -6   10.36    6.62
  -6  14   6   -1.32    8.48
   6 -14   6    7.35    8.69
   6 -14   6   13.98    9.37
  -6  14   6    2.38    8.24
  -6 -14  -6   18.08    6.15
   6 -14   6   18.53    7.37
   6 -14  -6   -4.25    5.93
   6  14   6    5.05    7.43
  -6 -14   6    9.17    7.42
  -6  14  -6    2.15    5.45
   6  14   6    6.52    8.65
  -6 -14   6   -2.37    8.94
  -6  14   8   -3.59    8.89
   6 -14   8   -4.77    7.30
   6 -14   8  -10.60    9.16
  -6  14   8  -10.37    8.34
  -6 -14   8   -0.81    9.30
   6  14   8    5.10    9.20
  -6 -14   8    8.35    7.68
   6  14   8    4.53    7.85
  -7  14   1  390.53   20.71
   7 -14   1  415.50   20.65
  -7  14   1  382.82   25.14
   7  14  -1  396.05   21.15
  -7 -14  -1  413.24   20.84
   7 -14   1  408.82   25.68
   7 -14   1  395.70   24.99
   7 -14   1  385.38   20.67
   7  14   1  382.13   20.45
   7  14   1  413.16   25.20
  -7 -14   1  379.45   25.26
   7 -14  -1  395.54   20.78
  -7 -14   1  392.48   20.85
  -7 -14   1  388.75   25.26
  -7  14  -1  383.90   20.83
   7  14   1  390.54   25.14
   7 -14  -1  379.59   20.13
  -7  14   3  165.44   13.28
  -7  14   3  144.77   10.94
   7 -14   3  140.21   14.64
   7 -14   3  141.80   12.35
  -7 -14  -3  165.04   11.89
   7  14  -3  166.15   13.18
  -7  14   3  143.15   14.05
   7 -14   3  155.15   10.42
   7 -14   3  128.21   13.67
  -7 -14   3  151.69   11.35
  -7  14  -3  143.27   11.31
  -7 -14   3  166.68   13.25
  -7 -14   3  159.68   14.01
   7  14   3  119.43   12.82
   7 -14  -3  142.05   11.09
   7  14   3  157.08   11.08
   7  14   3  152.80   13.53
   7 -14  -3  149.70    9.44
   7 -14   5   79.14   10.45
  -7 -14  -5   69.87    7.69
   7  14  -5   85.29    8.43
  -7  14   5   87.21   10.53
  -7  14   5   79.97   11.46
  -7 -14   5   73.81   10.70
  -7 -14   5   64.02    8.83
   7 -14  -5   62.08    7.51
  -7  14  -5   46.22    6.90
  -7  14   7   32.21    9.10
   7  14  -7   40.95    7.31
  -7  14   7   51.88    9.27
   7 -14   7   39.59   10.47
  -7 -14   7   28.97    8.07
   7 -14  -7    6.22    6.38
  -7 -14   7   27.27    9.91
   7 -14   9  -12.30    7.83
  -7  14   9   -6.67    9.14
   7 -14   9  -24.83    9.98
  -7  14   9   -0.59    9.49
  -7 -14   9   16.09    8.49
   7  14   9    2.18    9.48
   7  14   9    7.36    8.58
  -7 -14   9    1.09    9.87
   8  14   0    3.66    5.50
   8 -14   0   -4.03    5.96
  -8  14   0    1.68    5.17
  -8 -14   0    1.80    5.28
   8  14   0    1.94    5.93
   8 -14   0    5.02    5.02
  -8  14   2    3.67    6.83
   8 -14   2    5.64    5.34
  -8  14   2    4.09    5.25
   8 -14   2    8.20    6.96
  -8 -14  -2    1.51    5.97
  -8  14   2   -1.33    6.67
   8  14  -2    2.91    6.36
   8 -14   2   11.83    7.09
   8 -14   2    8.28    7.49
   8 -14  -2    9.38    5.40
  -8  14  -2    9.72    5.66
  -8 -14   2    4.36    7.46
   8  14   2    6.77    7.15
   8  14   2    7.27    6.65
  -8 -14   2    8.09    6.24
  -8 -14   2   -3.74    5.36
  -8  14   4   -1.90    8.82
   8 -14   4   10.39    9.12
   8 -14   4   13.00    8.62
  -8 -14  -4    1.60    6.70
  -8  14   4    3.76    7.92
  -8  14   4    2.60    5.35
   8  14  -4    2.41    7.36
   8 -14   4   13.10    7.81
  -8 -14   4    1.36    5.90
   8  14   4    0.15    8.90
   8  14   4    8.71    7.47
  -8  14  -4   11.01    6.01
  -8 -14   4   -9.28    8.97
   8 -14  -4    1.83    6.42
  -8 -14   4   -0.61    7.20
   8 -14   6   25.80    9.67
  -8  14   6   -0.87    8.08
   8 -14   6   12.25    9.79
   8 -14   6    7.59    7.55
  -8 -14  -6   23.65    6.34
  -8  14   6   -1.50    8.68
   8  14  -6    0.59    7.07
   8 -14  -6    0.47    6.43
  -8  14  -6   -2.29    5.45
   8  14   6    7.58    7.35
  -8 -14   6   -3.45    9.02
  -8 -14   6    4.15    7.47
   8  14   6    4.94    8.86
   8 -14   8   -3.35   10.07
  -8  14   8    2.07    9.17
   8 -14   8   -4.43    7.45
  -8  14   8  -13.12    8.64
   8 -14   8    6.33   10.81
   8  14   8   10.63    9.89
  -8 -14   8    5.82    8.12
   8  14   8    6.86    8.11
  -8 -14   8   -0.53    9.44
   9 -14   1  210.19   15.84
   9 -14   1  202.14   16.81
   9  14  -1  228.14   14.55
  -9 -14  -1  210.13   14.30
  -9  14   1  203.26   13.63
   9 -14   1  210.86   13.41
  -9  14   1  202.89   15.82
   9 -14  -1  199.50   13.33
   9  14   1  200.99   16.19
  -9 -14   1  209.96   16.19
  -9 -14   1  214.86   13.99
   9  14   1  210.63   15.92
  -9  14  -1  200.71   13.53
  -9  14   3  146.05   14.69
   9  14  -3  136.46   13.17
   9 -14   3  110.10   12.93
  -9  14   3  129.86   12.89
  -9 -14  -3  127.31   12.06
   9 -14   3  102.82   13.93
   9 -14   3  118.02   12.35
  -9  14   3  131.11   10.90
   9 -14   3  125.74   10.25
   9  14   3  113.47   13.05
  -9  14  -3  126.06   11.17
   9  14   3  115.85   12.96
  -9 -14   3  125.69   13.69
   9  14   3  119.86   10.63
   9 -14  -3  123.76   11.45
  -9 -14   3  128.90   13.01
  -9 -14   3  129.91   11.67
  -9 -14  -5   51.33    7.63
  -9  14   5   81.40   10.59
   9 -14   5   65.53   10.52
  -9  14   5   63.00    6.21
  -9  14   5   70.80   10.71
   9  14  -5   68.49    8.37
  -9 -14   5   57.20    6.67
  -9 -14   5   64.81    8.85
   9 -14  -5   44.53    7.61
   9  14   5   31.71   10.24
  -9 -14   5   75.40   10.68
  -9  14   7   25.33    8.91
   9 -14   7   39.23   10.60
   9  14  -7   21.94    7.74
   9 -14   7  -11.86   10.32
  -9  14   7   43.54    9.06
  -9 -14   7   33.61    8.29
  -9 -14   7   37.00    9.71
   9 -14  -7   12.98    6.79
   9  14   7   -1.28    9.43
   9  14   7    3.46    7.99
  -9  14   9   13.29    9.89
   9 -14   9  -10.55    8.31
  -9  14   9   -0.58    9.67
   9  14   9    9.13    9.50
  -9 -14   9   20.12    7.89
  -9 -14   9   10.44   10.52
   9  14   9    5.96    8.95
  10 -14   0    2.29    5.85
 -10 -14   0    1.98    6.13
  10  14   0    4.74    6.76
 -10  14   0    1.34    5.76
  10 -14   0    5.31    7.00
  10 -14   2    5.40    5.80
  10 -14   2    1.95    7.73
 -10 -14  -2    6.02    6.78
 -10  14   2   -1.62    7.29
  10 -14   2   11.07    7.79
 -10  14   2    0.40    7.49
  10  14  -2    7.65    6.93
 -10  14   2    3.91    5.78
  10  14   2   -2.71    7.26
  10  14   2   -3.36    6.37
 -10  14  -2    2.28    6.25
  10  14   2    6.19    7.86
 -10 -14   2    0.11    8.04
 -10 -14   2   -3.30    6.18
 -10 -14   2    5.91    6.79
  10 -14  -2    4.19    5.86
  10 -14   4   17.92    8.94
 -10  14   4   -4.38    8.81
 -10  14   4   -2.71    7.88
  10  14  -4   -1.57    7.78
 -10 -14  -4    2.30    7.16
 -10  14   4    5.31    5.79
  10 -14   4    8.66    8.33
  10 -14   4   11.71    9.54
 -10 -14   4   -3.11    9.13
 -10  14  -4   16.01    6.42
  10 -14  -4   -4.42    6.84
  10  14   4    4.84    9.01
 -10 -14   4   -0.57    7.53
 -10 -14   4   -4.03    6.66
  10  14   4    8.41    7.70
  10  14  -6   -6.52    7.33
  10 -14   6   13.44    9.91
  10 -14   6    6.33    9.72
 -10  14   6  -10.82    8.29
 -10  14   6   -4.46    8.72
  10 -14   6    5.17    7.78
 -10 -14  -6   15.04    6.67
  10 -14  -6   -4.92    6.59
  10  14   6   -4.56    9.27
  10  14   6   -0.55    7.30
 -10 -14   6    9.66    7.89
 -10  14  -6  -10.96    5.67
 -10 -14   6   -9.07    9.56
 -10  14   8   -1.06    9.36
 -10  14   8  -13.22    8.93
  10 -14   8    2.35    8.18
  10 -14   8  -12.41   10.10
  10 -14   8   13.96   10.86
 -10 -14   8    6.23    8.32
 -10 -14   8   -4.37    9.79
  10  14   8    7.49    8.21
  10  14   8   -0.36    9.21
  11 -14   1  148.04   15.02
 -11 -14  -1  139.82   13.06
 -11  14   1  142.06   13.90
  11 -14   1  143.84   12.43
 -11  14   1  152.01   12.21
  11 -14   1  137.08   14.09
  11 -14  -1  156.91   12.55
 -11 -14   1  163.84   14.34
 -11  14  -1  146.05   12.58
 -11 -14   1  167.86   12.86
  11  14   1  140.37   14.37
  11  14   1  141.45   14.21
 -11 -14  -3  130.37   12.72
  11 -14   3  108.42   14.43
  11 -14   3  114.75   10.62
 -11  14   3  132.86   14.71
  11  14  -3  149.04   13.37
 -11  14   3  123.08   13.30
 -11  14   3  116.50   11.25
  11 -14   3  113.35   13.69
  11  14   3  123.68   11.41
  11  14   3  123.03   13.85
 -11 -14   3  129.22   13.48
  11  14   3  129.17   13.22
 -11 -14   3  134.60   14.12
 -11 -14   3  137.31   12.43
  11 -14  -3  133.77   11.80
 -11  14  -3  123.71   11.21
 -11  14   5   47.37    5.98
  11 -14   5   25.67    9.89
 -11 -14  -5   36.04    7.47
 -11  14   5   44.97    8.92
 -11  14   5   49.95    9.74
  11  14  -5   40.87    8.11
 -11 -14   5   33.88    6.77
 -11 -14   5   40.94    9.84
 -11 -14   5   49.82    8.25
  11  14   5   25.37    9.51
  11  14   5   23.82    7.94
  11 -14  -5   36.25    7.26
  11 -14   7   33.65   10.64
  11 -14   7  -15.10    7.98
 -11  14   7   25.99    9.29
 -11 -14   7   37.11    7.98
 -11 -14   7   29.91   10.35
  11 -14  -7   11.31    7.04
  11  14   7   10.14    8.20
  11  14   7   11.99    9.61
  12 -14   0   -1.67    7.44
  12  14   0   11.97    7.58
 -12  14   0    6.97    6.47
  12 -14   0    6.08    6.20
 -12 -14   0   -0.02    6.67
 -12  14   2   -3.92    7.43
  12 -14   2    0.18    8.49
  12 -14   2    5.68    6.28
 -12  14   2   -3.44    6.14
  12 -14   2    1.62    8.57
 -12  14   2   -1.63    7.74
 -12 -14  -2    0.58    7.34
 -12 -14   2    0.14    6.93
  12  14   2    2.28    8.74
 -12 -14   2    2.37    7.10
  12  14   2    2.23    7.68
 -12  14  -2    6.10    6.58
  12 -14  -2   -3.40    6.62
 -12 -14   2    5.46    8.36
  12  14   2   -0.51    6.59
  12 -14   4   15.47    9.22
  12 -14   4   21.37   10.01
  12 -14   4   19.98    8.81
 -12  14   4   -3.95    8.38
  12 -14   4    9.81    4.66
 -12  14   4   -4.87    8.73
 -12  14   4    2.53    6.13
 -12 -14  -4    4.95    7.49
  12  14   4    1.97    9.01
 -12 -14   4   -3.02    9.44
  12 -14  -4   -3.79    7.06
 -12 -14   4    7.23    7.67
 -12  14  -4   15.30    6.55
 -12 -14   4    5.14    7.11
  12  14   4    8.99    5.15
  12  14   4    9.90    7.93
  12 -14   6    6.65   10.03
  12 -14   6    6.22   10.30
 -12 -14  -6   17.90    7.03
 -12  14   6  -15.26    8.67
  12 -14   6    5.40    8.33
  12  14   6    3.92    9.57
 -12 -14   6  -19.35    9.64
  12  14   6    7.90    8.30
 -12  14  -6  -10.30    5.84
  12 -14  -6   -1.35    6.83
  12 -14   8  -13.90   10.36
  12 -14   8   14.32   11.42
 -12  14   8  -15.33    9.39
  12 -14   8   -4.23    8.44
  12  14   8    0.04    8.56
 -12 -14   8   -7.05   10.80
  12  14   8    7.79    9.87
  13 -14   1   96.79   14.17
  13 -14   1  115.29   12.15
 -13  14   1  122.57   12.02
 -13  14   1   87.72   13.04
 -13 -14  -1  115.17   13.11
 -13 -14   1   96.36   13.57
  13  14   1  107.39   12.87
  13  14   1  108.78   13.09
  13  14   1  103.13   12.49
  13 -14  -1  115.70   11.73
 -13  14  -1  110.49   11.93
 -13 -14   1  130.73   13.14
 -13  14   3   54.02    9.23
  13 -14   3   39.92    9.50
 -13 -14  -3   46.71    8.29
 -13  14   3   52.23    7.08
  13 -14   3   32.73    9.97
  13 -14   3   43.75    6.77
  13 -14  -3   54.17    7.75
  13  14   3   42.71   10.03
 -13 -14   3   54.67    8.00
  13  14   3   48.68    8.92
 -13 -14   3   54.38   10.19
  13  14   3   48.80    7.35
 -13  14  -3   45.06    7.37
 -13  14   5   47.80    9.38
 -13  14   5   52.31    6.41
 -13 -14  -5   45.10    7.79
  13 -14   5   48.46   10.47
 -13 -14   5   51.60   10.03
  13 -14  -5   42.35    7.63
 -13 -14   5   34.92    7.35
  13  14   5   34.72    8.38
  13  14   5   35.95    9.68
  13 -14   7   22.38   10.84
  13 -14   7  -22.88   10.66
 -13  14   7    2.26    9.16
  13 -14   7   -8.12    8.60
  13  14   7   18.49    9.47
  13 -14  -7   -0.72    7.15
  13  14   7   18.44    8.60
 -13 -14   7   17.65   10.73
  14 -14   0   -1.14    6.72
 -14  14   0    3.22    6.74
  14  14   0    9.11    7.41
 -14 -14   0    5.98    7.51
  14 -14   0   -0.06    8.24
  14  14   0    7.86    7.80
 -14  14   2   15.35    6.65
 -14 -14  -2    7.79    7.81
 -14  14   2   -1.01    8.45
  14 -14   2    9.65    9.14
  14 -14   2   10.21    7.00
  14  14   2    1.61    7.27
  14  14   2    9.58    9.01
  14 -14  -2   11.95    7.06
 -14  14  -2   10.66    6.99
  14  14   2   14.78    8.15
 -14 -14   2    9.15    9.03
 -14 -14   2   14.18    7.57
  14 -14   4    1.02    8.45
 -14  14   4  -10.23    8.40
 -14  14   4    5.05    6.11
  14 -14   4    4.99    4.93
 -14 -14  -4    0.23    7.64
  14  14   4    3.63    9.01
 -14 -14   4    1.90    9.26
  14  14   4    9.84    5.47
 -14 -14   4   -0.73    7.29
  14  14   4   10.39    7.86
  14 -14  -4    0.93    7.00
 -14  14  -4   -0.33    6.49
 -14 -14  -6    7.82    7.30
  14 -14   6    3.38    8.60
 -14  14   6  -15.69    8.97
  14 -14   6   -4.75   11.01
  14 -14   6   21.06   10.38
 -14 -14   6    2.98   10.37
  14  14   6    3.61    9.43
  14 -14  -6   -1.43    7.06
  14  14   6    5.12    8.68
 -14  14  -6    1.79    6.07
  14 -14   8  -12.94    9.14
 -14  14   8  -19.78    9.98
  14 -14   8    9.20   11.84
  14  14   8    4.47    9.86
  14  14   8   -2.30    8.95
 -14 -14   8    0.06   11.48
 -15  14   1   50.80    7.51
  15  14  -1   53.23    8.53
  15 -14   1   53.48    7.95
 -15 -14  -1   49.76    8.58
  15 -14   1   52.39   10.12
 -15 -14   1   49.70    8.41
  15  14   1   53.90    9.68
  15 -14  -1   50.90    7.32
 -15  14  -1   50.47    7.71
  15  14   1   36.23    7.88
 -15 -14  -3   43.64    8.23
 -15  14   3   38.27    6.88
  15 -14   3   45.66    6.76
  15 -14   3   36.57    9.68
 -15  14  -3   52.72    7.37
  15 -14  -3   39.91    7.53
  15  14   3   44.05    8.85
  15  14   3   50.41    9.89
 -15 -14   3   43.33    7.91
  15  14   3   38.99    7.50
 -15  14   5   23.46    6.53
 -15 -14  -5   26.57    7.89
  15 -14   5   30.94   10.53
 -15  14   5   14.56    9.32
  15 -14   5    2.20    8.84
 -15 -14   5   35.17   10.06
  15 -14  -5   21.36    7.31
 -15  14  -5    1.20    6.34
 -15 -14   5   19.51    7.50
  15  14   5   28.60    9.73
  15  14   5   26.77    8.28
 -15  14   7    2.17    9.85
  15 -14   7   18.72   11.07
  15 -14   7   -9.11    8.84
  15  14   7   23.61    9.87
  15 -14  -7    0.13    7.46
  15  14   7   11.17    9.00
 -15 -14   7   19.63   11.32
 -16 -14   0    8.21    7.95
 -16  14   0    0.65    6.91
  16  14   0    1.76    7.45
  16 -14   0    5.82    7.28
  16 -14   2   -3.30    9.10
 -16 -14  -2    6.01    7.95
  16 -14   2   -2.17    7.07
  16  14  -2    7.28    8.22
 -16  14   2   -1.69    6.51
  16  14   2    6.60    7.45
  16  14   2   11.21    9.09
 -16 -14   2    5.45    7.56
 -16  14  -2    0.43    7.06
  16 -14  -2   -3.96    6.93
  16 -14   4   13.33    5.32
  16 -14   4    1.51    8.95
 -16  14   4    0.35    6.47
 -16 -14  -4    2.01    7.65
  16  14   4    4.43    5.91
  16 -14  -4   -3.64    7.36
 -16  14  -4    3.65    6.64
  16  14   4    6.91    9.20
 -16 -14   4   -1.15    7.80
 -16  14   6   -1.04    6.04
  16 -14   6   -3.15    8.88
  16 -14   6    8.20   10.76
 -16 -14  -6    8.71    7.40
  16  14  -6   22.70    9.75
 -16 -14   6  -20.28    7.07
  16  14   6    9.80    9.03
 -16  14  -6  -12.56    6.22
  16 -14  -6   -5.03    7.51
  16  14   6    6.77    9.48
  17 -14   1   34.03    7.68
 -17  14   1   38.88    7.21
  17  14  -1   30.77    8.02
 -17 -14  -1   40.98    8.30
  17 -14  -1   43.58    7.12
 -17 -14   1   41.54    8.27
  17  14   1   26.12    7.82
 -17  14  -1   37.19    7.47
 -17 -14  -3   31.85    8.41
  17  14  -3   30.63    8.71
 -17  14   3   18.94    6.82
  17 -14   3   24.78    6.86
  17 -14   3   22.87    9.48
 -17 -14   3   25.84    8.00
  17  14   3   28.96    7.40
  17 -14  -3   31.50    7.43
  17  14   3   39.88    9.69
 -17  14  -3   12.97    7.03
  17  14  -5   17.09    9.68
 -17  14   5    6.46    6.75
 -17 -14  -5   13.29    7.95
  17 -14   5   -2.04    8.97
  17  14   5   18.34    9.38
 -17  14  -5   -9.35    6.54
  17 -14  -5    8.67    7.56
 -17 -14   5    1.36    7.81
  17 -14   7   -2.62    9.65
  17  14  -7   25.86   10.14
  17 -14   7   10.68   11.74
  17  14   7   17.47    9.79
  17 -14  -7    0.18    8.12
 -18 -14   0   18.68    8.05
  18 -14   0   10.47    7.05
 -18  14   0    7.44    6.84
  18  14   0    5.00    7.45
  18  14  -2    8.19    8.00
 -18 -14  -2   16.28    8.22
 -18  14   2   10.22    6.82
  18 -14   2   10.47    7.30
  18  14   2   10.83    7.79
  18 -14  -2    1.05    7.08
 -18  14  -2    6.85    7.22
 -18 -14   2    7.42    7.83
 -18  14   4   -3.47    6.75
 -18 -14  -4    8.91    8.24
  18 -14   4   -6.93    9.11
  18 -14   4   11.24    5.52
  18  14  -4    7.93    9.06
 -18 -14   4    0.11    8.24
 -18  14  -4   -1.90    6.75
  18  14   4    9.73    9.46
  18 -14  -4   -3.07    7.46
  18  14   4   -3.03    6.27
 -18  14   6   -3.90    6.70
  18 -14   6    0.36    9.50
 -18 -14  -6    5.44    8.04
  18  14  -6   13.66   10.09
  18 -14   6   15.50   11.44
  18 -14  -6   -5.60    7.54
  18  14   6   15.83    9.76
  19  14  -1   13.50    7.61
 -19  14   1    6.37    6.97
 -19 -14  -1    7.27    8.63
  19 -14   1    7.34    7.45
 -19 -14   1   10.60    8.22
 -19  14  -1   12.08    7.13
  19 -14  -1   11.11    6.81
  19  14   1    8.94    7.75
  19  14  -3   17.50    8.53
  19 -14   3   12.91    6.92
 -19 -14  -3   17.36    8.58
 -19  14   3   10.51    6.91
 -19 -14   3   11.93    8.28
  19 -14  -3    9.49    7.44
 -19  14  -3   11.94    7.21
  19  14   3   14.48    7.84
  19  14  -5   17.14    9.76
 -19  14   5    7.27    6.89
  19 -14   5   -4.98    9.40
 -19 -14  -5    3.57    8.37
  19  14   5   19.98    9.65
  19 -14  -5    2.94    7.81
 -19 -14   5   -7.54    8.31
 -19  14  -5   -8.98    6.66
 -20 -14   0   13.87    8.61
 -20  14   0    0.97    7.10
  20  14   0   14.87    7.93
  20 -14   0    2.44    7.39
  20  14  -2   11.26    8.19
 -20 -14  -2   22.96    9.02
 -20  14   2   10.24    7.01
  20 -14   2   19.71    7.96
 -20  14  -2    3.93    7.38
  20  14   2   23.32    8.35
  20 -14  -2    6.55    7.39
 -20 -14   2    7.62    8.32
 -20  14   4   -5.25    7.02
 -20 -14  -4    7.69    8.85
  20  14  -4   -3.25    8.93
 -20 -14   4   -7.87    8.56
  20 -14  -4   -2.46    7.50
 -20  14  -4   -6.23    7.14
 -20  14   6   -4.55    7.47
  20 -14   6   -1.89   10.77
  20 -14  -6   -3.83    8.21
  20  14   6    8.59   10.37
 -21 -14  -1    3.25    8.97
  21  14  -1   14.11    8.12
  21 -14   1   12.32    7.86
 -21  14   1    2.97    7.11
 -21 -14   1   10.40    8.48
  21  14   1    6.10    8.16
 -21  14  -1    1.86    7.31
  21 -14  -1   11.39    7.31
 -21  14   3   -2.97    7.07
  21 -14   3    0.32    7.20
  21  14  -3    0.67    8.65
 -21 -14  -3   -5.64    9.08
 -21  14  -3   -5.80    7.25
  21  14   3   -5.46    7.96
  21 -14  -3    0.82    7.60
 -21 -14   3   -2.03    8.67
 -21  14   5   -3.45    7.46
 -21 -14  -5  -11.83    9.11
  21  14  -5   12.76   10.23
  21 -14  -5   -0.78    8.10
 -21  14  -5  -10.30    7.02
 -21 -14   5  -19.79    8.77
  22 -14   0    5.54    7.76
 -22  14   0    6.63    7.38
 -22 -14   0    8.00    9.25
  22  14   0   14.94    8.36
 -22 -14  -2   12.59    9.33
 -22  14   2    4.25    7.32
  22  14  -2   18.44    8.55
  22 -14   2    5.30    8.22
  22 -14  -2    5.71    7.47
 -22  14  -2    7.41    7.85
  22  14   2   14.32    8.53
 -22 -14   2   12.61    8.81
  22  14  -4    6.13    9.71
 -22  14   4   -8.16    7.52
 -22 -14  -4   -2.92    9.51
 -22  14  -4   -1.86    7.69
 -22 -14   4  -15.80    9.11
  22 -14  -4   -6.83    7.96
  23  14  -1   -0.29    8.40
 -23 -14  -1   -6.02    9.29
 -23  14   1   -4.14    7.38
  23 -14   1   -8.54    8.11
 -23 -14   1  -15.43    8.72
  23 -14  -1   -3.47    7.27
  23  14   1   -4.03    8.51
 -23  14  -1  -12.37    7.47
  23  14  -3   -4.88    9.32
  23 -14   3  -11.41    7.73
 -23 -14  -3   -9.35    9.71
 -23  14   3   -6.48    7.50
 -23  14  -3  -11.47    7.88
  23 -14  -3   -5.24    7.93
 -23 -14   3  -20.55    9.14
  23  14   3  -12.50    8.49
 -24  14   0    6.76    7.85
 -24 -14   0    9.21    9.40
  24 -14   0    2.88    8.24
  24  14   0   19.47    8.84
  24 -14   2   10.24    8.90
 -24  14   2    0.98    7.73
 -24 -14  -2   14.06   10.35
  24  14  -2   11.91    9.21
 -24 -14   2    1.79    9.66
  24  14   2   15.37    9.27
  24 -14  -2   10.71    7.91
 -24  14  -2   -5.45    8.01
  25 -14   1   -8.32    9.17
 -25 -14  -1  -16.45   10.11
  25  14  -1   -2.21    9.09
 -25  14   1  -13.00    7.93
 -25 -14   1  -12.68    9.66
  25 -14  -1   -7.52    7.88
  25  14   1   -9.18    9.25
 -25  14  -1   -9.56    8.09
   0 -15   1  550.19   33.97
   0 -15   1  541.92   33.94
   0 -15   1  538.15   27.31
   0  15  -1  593.43   27.84
   0  15   1  571.10   34.02
   0  15   1  535.55   33.83
   0 -15  -1  533.61   27.32
   0  15   1  544.07   27.46
   0  15   3  331.72   17.16
   0  15  -3  342.75   18.19
   0  15   3  360.30   21.78
   0 -15   3  329.58   16.94
   0 -15   3  279.66   22.25
   0 -15   3  342.60   21.75
   0  15   3  264.38   21.68
   0 -15  -3  345.29   17.44
   0  15   5   76.32   11.55
   0  15  -5   55.26    7.14
   0  15   5   60.64    9.76
   0 -15   5   65.85    9.81
   0 -15   5   51.59    9.01
   0 -15  -5   91.43    9.17
   0 -15   7   21.17    8.48
   0  15   7    1.84    9.02
   0 -15   7   13.11    7.92
   0  15   7   26.50    7.96
   0  15   9   -2.40    9.03
   0 -15   9    0.44    8.60
   0  15   9    2.23    8.44
   0 -15   9    4.82    8.37
   1  15   0  178.07   13.66
   1  15   0  183.27   12.11
   1 -15   0  181.94   11.62
   1 -15   0  185.03   14.12
  -1 -15   0  186.87   11.97
  -1 -15   0  185.81   13.81
  -1  15   0  188.56   12.16
  -1  15   0  184.83   13.72
  -1  15   2    2.70    6.16
  -1  15   2    1.97    6.21
   1 -15   2   12.47    6.11
   1 -15   2    9.50    6.72
  -1  15   2    3.06    4.70
   1  15  -2    4.00    5.57
   1 -15   2    6.20    4.56
  -1 -15  -2    7.68    4.92
  -1 -15   2    4.54    4.50
  -1  15  -2    8.38    5.50
   1  15   2   12.74    6.46
   1 -15  -2    7.23    4.82
   1  15   2   14.28    6.51
  -1 -15   2   -0.76    6.60
   1  15   2    8.69    4.58
  -1 -15   2    6.84    6.13
  -1  15   4    3.11    4.10
  -1  15   4    4.71    7.58
   1 -15   4    6.15    7.86
  -1  15   4    2.36    7.63
   1 -15   4   -1.94    7.48
  -1 -15  -4    4.35    5.69
   1  15  -4    3.55    6.24
  -1 -15   4    2.90    7.22
   1  15   4    3.35    7.67
  -1 -15   4    3.42    7.98
   1  15   4    5.25    7.93
  -1  15  -4    3.59    6.04
   1 -15  -4    5.41    5.77
  -1  15   6    4.93    7.97
   1 -15   6   -3.00    7.77
   1  15  -6    9.02    5.68
   1 -15   6    9.73    8.19
  -1 -15  -6   -6.04    6.11
  -1  15   6    0.90    8.63
  -1  15  -6    3.02    5.81
  -1 -15   6   -0.09    7.68
   1 -15  -6   -6.66    5.96
   1  15   6    8.17    8.14
   1  15   6    4.83    8.43
  -1 -15   6    4.78    8.31
   1 -15   8    1.96    7.87
  -1  15   8  -11.34    8.84
   1 -15   8    4.74    8.20
  -1  15   8    0.55    8.40
   1  15   8   -2.27    9.00
  -1 -15   8    4.30    7.82
  -1 -15   8    3.88    8.48
   1  15   8    2.35    8.11
   2 -15   1  550.81   34.36
  -2  15   1  559.50   27.91
  -2  15   1  557.31   34.33
  -2  15   1  572.96   34.44
  -2 -15  -1  537.37   27.67
   2 -15   1  566.74   34.63
   2 -15   1  518.75   27.61
   2 -15   1  537.24   27.63
   2  15  -1  601.74   28.15
   2  15   1  530.34   27.84
  -2 -15   1  559.99   27.78
   2  15   1  552.12   34.33
  -2 -15   1  558.24   34.40
   2 -15  -1  543.53   27.78
  -2 -15   1  613.85   34.64
  -2  15  -1  575.84   28.14
   2  15   1  547.44   34.32
  -2 -15  -3  254.66   13.74
   2 -15   3  218.53   16.82
  -2  15   3  207.90   17.37
  -2  15   3  234.48   13.32
   2 -15   3  229.18   14.77
  -2  15   3  247.25   16.95
   2 -15   3  222.48   13.01
   2  15  -3  241.99   14.53
  -2 -15   3  251.13   17.03
   2  15   3  221.15   13.12
  -2 -15   3  250.19   13.31
   2  15   3  223.91   16.90
  -2  15  -3  230.58   14.26
   2 -15  -3  242.36   13.56
   2  15   3  205.26   17.03
  -2 -15   3  221.08   17.46
   2 -15   5   63.83    9.68
  -2  15   5   70.10    9.56
   2  15  -5   57.80    7.08
  -2 -15  -5   76.52    9.46
  -2  15   5   64.32    9.55
   2 -15   5   47.71    9.11
   2  15   5   60.18    9.61
  -2  15  -5   59.83    7.05
   2 -15  -5   81.32    9.15
  -2 -15   5   56.30    8.82
  -2 -15   5   57.64   10.00
   2  15   5   51.33    9.75
  -2  15   7   34.26    8.20
   2 -15   7    4.20    8.04
  -2  15   7   29.30    8.99
   2 -15   7   -2.45    8.24
  -2 -15   7   28.58    8.73
   2  15   7  -11.92    9.15
   2  15   7    9.72    7.94
  -2 -15   7   15.00    7.84
   2 -15   9   -1.78    8.65
  -2  15   9    6.24    8.74
   2 -15   9   -2.27    8.48
  -2  15   9   -3.73    9.40
   2  15   9    0.70    8.48
   2  15   9   -8.18    9.39
  -2 -15   9   -0.24    8.23
  -2 -15   9    1.96    9.13
  -3  15   0   18.95    5.62
   3 -15   0   18.52    5.29
   3 -15   0   16.35    4.86
  -3  15   0   14.02    5.20
   3  15   0   18.30    5.92
  -3 -15   0   14.44    4.94
   3  15   0   12.57    5.22
  -3 -15   0   15.64    5.61
   3 -15   0   21.46    5.99
   3 -15   2    7.67    6.21
   3 -15   2    6.52    6.42
  -3  15   2    7.56    6.08
  -3  15   2    2.81    6.22
   3 -15   2    5.01    6.23
  -3  15   2    4.70    4.74
   3  15  -2    0.75    5.58
   3 -15   2    4.30    4.45
  -3 -15  -2    3.65    5.01
   3  15   2    3.48    6.26
  -3 -15   2    4.87    4.63
   3  15   2    5.51    4.63
  -3 -15   2    7.75    6.12
   3  15   2    6.63    6.30
  -3 -15   2    9.68    6.63
   3 -15  -2    6.51    4.90
  -3  15  -2    5.11    5.43
  -3 -15  -4    5.42    5.97
   3 -15   4    6.89    8.54
   3 -15   4    6.99    7.87
  -3  15   4    9.87    8.14
  -3  15   4   -1.75    4.59
   3 -15   4   -2.33    7.74
   3  15  -4   -3.73    6.16
  -3  15   4    5.69    7.78
  -3 -15   4   -3.69    8.35
   3  15   4    4.28    8.31
  -3 -15   4    1.21    7.09
   3 -15  -4    3.49    5.87
  -3  15  -4    0.48    6.06
  -3 -15   4    3.30    4.49
   3  15   4   -0.17    7.79
   3 -15   6   -2.17    8.43
   3  15  -6   10.35    6.06
  -3  15   6   12.00    8.36
  -3  15   6    1.68    7.77
  -3 -15  -6    6.76    6.18
   3 -15   6    8.10    7.87
   3 -15  -6   -6.29    6.03
  -3 -15   6    2.84    7.34
  -3  15  -6   -1.60    5.55
   3  15   6    5.47    7.88
   3  15   6    6.17    8.91
  -3 -15   6   -2.86    8.63
   3 -15   8    1.81    8.72
  -3  15   8   -0.28    8.50
   3 -15   8    1.56    8.02
  -3  15   8   -1.48    8.71
   3  15   8    3.65    8.36
  -3 -15   8    4.96    8.80
   3  15   8    1.02    9.34
  -3 -15   8    7.46    7.53
  -4  15   1  335.76   22.74
  -4 -15  -1  353.96   18.76
   4 -15   1  332.89   18.71
   4  15  -1  369.48   19.38
   4 -15   1  388.51   23.43
  -4  15   1  335.89   22.76
   4 -15   1  360.46   22.84
   4 -15   1  341.85   18.68
  -4  15   1  348.17   18.73
   4 -15  -1  331.21   18.12
  -4 -15   1  348.39   18.92
   4  15   1  366.90   23.15
  -4  15  -1  370.62   19.22
   4 -15  -1  329.03   18.75
  -4 -15   1  351.79   22.93
  -4 -15   1  388.37   23.19
   4  15   1  355.10   22.78
   4  15   1  328.60   18.70
  -4  15   3  214.08   15.36
  -4 -15  -3  211.70   12.73
  -4  15   3  189.10   16.01
   4 -15   3  189.54   13.78
   4  15  -3  210.34   13.83
  -4  15   3  217.75   12.56
   4 -15   3  197.69   11.95
   4 -15   3  174.03   15.31
   4  15   3  187.77   15.16
  -4 -15   3  196.16   15.84
  -4 -15   3  214.81   15.66
  -4  15  -3  199.69   13.09
  -4 -15   3  208.36   12.27
   4  15   3  184.64   15.34
   4  15   3  187.99   11.58
   4 -15  -3  211.85   12.68
  -4  15   5   92.49   12.31
   4  15  -5   90.05   10.91
   4 -15   5   96.37   10.87
  -4  15   5   93.85   11.96
  -4 -15  -5   85.98   10.11
  -4 -15   5   83.16   12.78
   4 -15  -5  102.12    9.79
  -4 -15   5   85.78   11.72
  -4  15   7   44.46    8.91
   4 -15   7    1.48    7.84
  -4  15   7   41.67    8.55
   4  15   7    6.59    8.29
  -4 -15   7   30.55    9.49
  -4 -15   7   23.62    7.61
   4 -15   9   -6.23    9.74
  -4  15   9    0.10    9.42
  -4  15   9    2.50    9.22
   4 -15   9   -2.88    8.55
   4  15   9    3.36    8.80
  -4 -15   9    0.78    9.35
  -4 -15   9   10.97    8.15
   4  15   9   -7.96    9.82
  -5  15   0   41.59    6.73
   5  15   0   36.86    6.23
   5  15   0   32.70    5.61
   5 -15   0   37.08    6.07
  -5  15   0   31.82    5.62
  -5 -15   0   30.79    5.44
  -5 -15   0   38.18    6.57
   5 -15   0   39.71    5.40
   5 -15   0   39.06    6.71
   5 -15   2    7.89    6.69
  -5 -15  -2    8.96    5.39
  -5  15   2    7.54    6.39
  -5  15   2    1.12    4.82
   5  15  -2    1.98    5.83
  -5  15   2   -0.64    6.26
   5 -15   2    5.71    4.76
   5 -15   2   11.08    6.65
   5 -15   2   17.26    6.73
  -5  15  -2    6.87    5.57
   5 -15  -2    5.67    5.05
   5  15   2   10.27    6.61
   5  15   2    8.05    6.61
  -5 -15   2    3.18    6.24
   5  15   2   12.91    4.92
   5 -15  -2    4.20    4.21
  -5 -15   2    4.74    4.86
  -5 -15   2    1.22    6.99
  -5 -15  -4   11.36    6.32
  -5  15   4   16.28    5.02
   5  15  -4    8.88    6.79
   5 -15   4    7.91    8.15
  -5  15   4   12.71    8.28
   5 -15   4    9.97    7.86
   5 -15   4   11.04    8.77
  -5  15   4   11.79    7.49
   5  15   4    7.30    7.76
  -5 -15   4    9.16    6.97
   5  15   4    2.83    8.35
  -5 -15   4   11.44    5.28
  -5 -15   4   15.13    8.88
  -5  15  -4    8.34    6.06
   5 -15  -4   12.53    6.15
   5 -15   6    8.24    7.69
   5 -15   6    6.33    8.86
   5 -15   6   17.48    9.61
  -5  15   6    6.40    7.95
   5  15  -6    5.82    6.50
  -5  15   6    0.98    8.25
  -5 -15  -6   10.59    6.07
   5  15   6   -3.08    8.90
  -5 -15   6   -4.17    8.91
  -5 -15   6   -0.37    7.25
  -5  15  -6   -0.84    5.54
   5  15   6   17.82    7.64
   5 -15  -6   -2.84    5.93
  -5  15   8   -0.28    8.46
   5 -15   8   -1.37    7.81
   5 -15   8    4.28    9.37
  -5  15   8   -5.37    8.95
   5  15   8    3.15    8.21
  -5 -15   8    5.11    7.56
   5  15   8   -1.47    9.33
  -5 -15   8   -4.51    9.05
   6 -15   1  265.77   18.27
   6 -15   1  268.94   15.20
   6 -15   1  282.50   19.06
  -6  15   1  266.60   18.68
  -6  15   1  254.73   15.25
  -6 -15  -1  255.99   15.37
   6 -15   1  254.64   15.26
   6  15  -1  275.45   15.73
  -6  15   1  269.07   18.59
  -6 -15   1  271.87   18.61
   6  15   1  278.02   18.31
  -6 -15   1  260.36   15.53
   6 -15  -1  264.79   15.41
   6  15   1  275.40   18.62
  -6 -15   1  254.67   18.38
  -6  15  -1  260.86   15.37
   6 -15  -1  256.66   14.67
   6  15   1  252.73   15.18
   6 -15   3  192.37   16.01
  -6  15   3  179.14   16.47
   6 -15   3  198.40   14.21
  -6 -15  -3  212.54   13.30
  -6  15   3  198.39   12.84
   6  15  -3  220.50   14.59
   6 -15   3  201.00   12.50
  -6  15   3  211.55   15.61
  -6  15  -3  211.77   13.30
  -6 -15   3  202.63   12.97
   6 -15  -3  217.49   13.40
  -6 -15   3  211.14   16.32
   6  15   3  192.01   15.81
   6 -15  -3  194.47   11.20
  -6 -15   3  207.44   15.78
   6  15   3  208.15   15.98
   6 -15   5   73.59   10.39
   6  15  -5   64.95    8.19
  -6  15   5   80.35   11.45
  -6 -15  -5   63.31    7.61
  -6  15   5   72.67   10.30
   6 -15  -5   64.34    7.24
  -6 -15   5   72.60   11.24
  -6 -15   5   60.59   10.56
   6  15  -7   47.94    7.16
  -6  15   7   45.56    9.08
  -6  15   7   41.18    9.41
   6 -15   7   47.48   10.49
  -6 -15   7   32.36    9.48
   6 -15  -7   10.46    6.29
  -6 -15   7   26.82    8.06
  -6  15   9   10.51    9.92
  -6  15   9    5.59    9.19
   6 -15   9  -24.53    9.67
   6 -15   9   -3.11    8.65
   6  15   9    7.04    8.91
   6  15   9   -6.45    9.73
  -6 -15   9    6.62    9.93
  -6 -15   9   15.82    8.34
  -7 -15   0   -5.44    5.32
   7  15   0   -5.12    5.42
   7 -15   0   -1.02    6.11
   7  15   0    0.78    6.03
   7 -15   0   -2.70    6.07
   7 -15   0    1.31    4.94
  -7  15   0    0.49    5.16
   7 -15   2   10.44    7.12
  -7 -15  -2    3.89    5.91
  -7  15   2    2.39    6.68
   7  15  -2   -5.13    6.35
   7 -15   2    5.59    5.20
  -7  15   2    0.31    6.67
   7 -15   2    7.74    7.25
   7 -15   2    9.41    7.00
  -7  15   2    5.90    5.29
  -7 -15   2    1.33    5.29
   7 -15  -2   10.71    5.35
   7 -15  -2    7.48    5.15
   7  15   2    9.20    7.25
  -7 -15   2   -1.03    7.40
   7  15   2    5.97    6.87
  -7  15  -2    9.91    5.78
  -7 -15   2    7.28    6.18
   7 -15   4    2.61    8.33
  -7  15   4   -0.73    5.37
  -7 -15  -4   -1.70    6.58
   7 -15   4    8.28    7.98
   7  15  -4    2.44    7.21
  -7  15   4    6.47    7.95
  -7  15   4    2.45    8.54
   7 -15   4   -2.87    8.79
  -7  15  -4    2.50    6.19
  -7 -15   4    0.27    9.05
   7  15   4    2.79    8.78
  -7 -15   4   -0.64    5.86
  -7 -15   4   -0.84    7.07
   7 -15  -4    3.65    6.10
   7  15   4    3.59    7.62
  -7 -15  -6   20.78    6.45
   7  15  -6   -1.29    6.92
   7 -15   6   17.36    9.56
   7 -15   6    8.56    7.62
  -7  15   6    1.70    8.32
   7 -15   6    8.01    9.08
  -7  15   6    0.45    8.48
   7  15   6    0.27    8.62
   7  15   6    7.75    7.64
  -7 -15   6    1.58    9.06
  -7  15  -6    1.29    5.54
   7 -15  -6   -0.22    6.00
  -7 -15   6    3.32    7.57
   7 -15   8   -4.65    9.66
   7 -15   8   -8.18    7.74
  -7  15   8   -4.17    9.22
  -7  15   8   -7.82    8.73
   7 -15   8    4.89   10.49
  -7 -15   8    5.05    8.01
   7  15   8    7.14    8.21
   7  15   8    2.04    9.42
  -7 -15   8   -2.33    9.69
  -8  15   1  269.01   19.06
   8 -15   1  251.38   15.78
  -8 -15  -1  270.60   16.35
  -8  15   1  261.45   15.87
   8 -15   1  276.84   15.66
   8  15  -1  287.60   16.66
   8 -15   1  262.91   18.80
   8 -15   1  271.44   19.25
  -8 -15   1  280.80   16.21
   8  15   1  275.64   18.72
  -8 -15   1  263.30   18.53
  -8  15  -1  246.14   15.92
   8  15   1  240.27   15.24
   8  15   1  274.14   19.11
   8 -15  -1  272.47   15.09
   8 -15  -1  263.56   15.72
  -8 -15  -3  148.50   12.29
   8 -15   3  104.23   14.30
  -8  15   3  153.12   13.43
   8 -15   3  137.43   10.42
   8 -15   3  141.64   12.71
  -8  15   3  145.88   11.22
  -8  15   3  151.30   14.80
   8 -15   3  130.79   13.93
   8  15  -3  163.83   14.26
   8  15   3  105.93   12.98
  -8 -15   3  144.69   11.90
  -8 -15   3  147.38   13.75
   8 -15  -3  144.77    9.47
  -8 -15   3  152.95   14.40
   8  15   3  138.10   13.72
   8  15   3  136.59   11.48
   8 -15  -3  136.65   11.46
  -8  15  -3  145.24   11.59
  -8  15   5   90.03   12.64
  -8  15   5   81.56    8.56
   8  15  -5   84.97    9.17
   8 -15   5   88.70   10.92
  -8 -15  -5   89.09   10.59
  -8  15   5   79.68   12.34
  -8 -15   5   70.54   11.39
  -8 -15   5   80.97    9.11
  -8 -15   5   92.76   12.12
   8 -15  -5   73.74    8.03
   8 -15   7   34.03   10.50
   8  15  -7   34.37    7.59
  -8  15   7   48.95    9.62
  -8  15   7   40.62    9.60
  -8 -15   7   38.17   10.02
   8 -15  -7   10.03    6.58
  -8 -15   7   29.75    8.52
   8 -15   9   -6.52    8.37
  -8  15   9   11.04   10.30
   8 -15   9  -25.96   10.47
  -8  15   9    2.71    9.67
   8  15   9    3.78    8.93
  -8 -15   9    8.43   10.47
  -8 -15   9   18.58    8.94
   8  15   9   12.09    9.96
  -9 -15   0   28.39    6.21
   9  15   0   27.74    7.16
   9  15   0   32.09    6.25
   9 -15   0   23.89    6.85
  -9  15   0   26.05    6.02
   9 -15   0   25.83    5.82
   9 -15   2   10.42    5.91
  -9  15   2    2.02    7.24
   9 -15   2   13.62    8.22
   9 -15   2   18.13    8.03
   9 -15   2   16.43    7.91
  -9  15   2    5.82    5.57
  -9  15   2    2.89    7.46
  -9 -15  -2    0.39    6.62
   9  15  -2    6.16    6.93
  -9  15  -2   11.41    6.28
   9  15   2    9.02    7.35
  -9 -15   2    9.51    6.85
   9 -15  -2    1.38    6.00
  -9 -15   2   -1.61    5.99
   9  15   2    9.59    7.67
  -9 -15   2    1.57    7.99
   9 -15   4   14.94    8.92
  -9  15   4    0.38    5.64
   9 -15   4   10.70    8.21
   9 -15   4    7.96    9.28
  -9  15   4   -2.78    8.29
   9  15  -4   -0.81    7.72
  -9 -15  -4    4.19    7.07
  -9  15   4    2.50    8.93
  -9  15  -4   10.93    6.34
   9 -15  -4    6.06    6.60
   9  15   4    1.93    9.11
  -9 -15   4    2.63    7.57
  -9 -15   4    3.17    6.42
  -9 -15   4   -0.36    9.44
   9  15   4    7.15    7.96
  -9  15   6   -3.78    8.41
  -9 -15  -6   24.23    6.66
  -9  15   6   -2.96    8.74
   9 -15   6    7.02    9.99
   9 -15   6   33.18    9.81
   9  15  -6   -4.16    7.38
   9 -15   6    7.81    7.94
   9 -15  -6   -4.42    6.50
   9  15   6   -0.93    9.53
  -9 -15   6    8.73    7.97
  -9  15  -6    3.54    5.71
  -9 -15   6   -1.77    9.61
   9  15   6    7.26    7.47
   9 -15   8    1.27    7.84
  -9  15   8   -7.61    9.59
   9 -15   8   -7.61   10.40
  -9  15   8  -12.03    9.09
   9 -15   8    3.91   10.91
  -9 -15   8   12.30    8.46
  -9 -15   8   -7.40    9.94
   9  15   8    7.56    8.47
   9  15   8    1.75    9.54
 -10  15   1  167.83   14.42
  10 -15   1  178.84   16.27
 -10  15   1  172.37   12.82
  10 -15   1  165.92   14.88
 -10 -15  -1  175.23   13.56
  10  15  -1  198.83   13.83
  10 -15   1  178.94   12.99
  10 -15  -1  177.73   13.27
  10  15   1  160.66   15.44
 -10  15  -1  178.37   13.38
  10  15   1  181.59   15.10
 -10 -15   1  176.56   13.62
 -10 -15   1  185.79   14.74
 -10 -15  -3  117.46   11.99
  10 -15   3  109.78   13.00
 -10  15   3  117.83   12.89
  10 -15   3  109.60   10.22
 -10  15   3  112.32   10.61
  10 -15   3   91.84   13.46
  10 -15   3   96.49   12.55
 -10  15   3  107.82   13.64
  10  15  -3  133.43   13.16
 -10  15  -3  115.20   11.28
  10 -15  -3  114.31   10.98
  10  15   3  108.73   13.10
 -10 -15   3  129.02   13.68
 -10 -15   3  109.43   12.92
  10  15   3  108.72   10.98
 -10 -15   3  129.37   12.22
  10  15   3  110.51   13.04
  10 -15   5   33.68    9.88
 -10  15   5   29.91    5.69
 -10  15   5   33.54    9.46
  10  15  -5   35.98    8.16
 -10  15   5   33.16    8.83
 -10 -15  -5   34.75    7.22
  10 -15  -5   23.89    6.96
 -10  15  -5    6.88    6.19
 -10 -15   5   24.78    6.46
  10  15   5   11.87    9.49
 -10 -15   5   37.78    9.67
 -10 -15   5   38.84    8.01
  10  15   5   10.91    7.84
  10  15  -7   21.47    7.99
 -10  15   7   22.74    9.34
  10 -15   7   30.02   10.57
 -10  15   7   47.30    9.52
 -10 -15   7   40.14    9.98
  10 -15  -7    5.12    6.87
  10  15   7    2.37    8.41
  10  15   7    9.91    9.98
 -10 -15   7   45.10    8.18
 -11  15   0    9.67    6.35
  11 -15   0   15.09    7.91
  11  15   0   18.65    7.61
  11 -15   0   21.63    6.48
 -11 -15   0    9.07    6.88
  11 -15   2    8.67    8.30
 -11  15   2   -0.55    6.06
 -11  15   2   -2.99    7.85
  11 -15   2    6.62    8.27
 -11  15   2    0.32    7.72
  11  15  -2   11.68    7.32
 -11 -15  -2    6.31    7.13
  11 -15   2    6.76    6.31
 -11 -15   2    6.93    8.33
  11  15   2    9.65    7.85
  11  15   2   -5.28    6.66
  11 -15  -2    0.10    6.20
  11  15   2    0.39    8.16
 -11 -15   2    6.41    7.13
 -11  15  -2   13.36    6.72
 -11 -15   2    3.73    6.64
 -11  15   4    4.57    8.96
  11 -15   4   16.00    9.36
  11  15  -4   15.48    8.05
 -11  15   4    0.86    6.02
  11 -15   4   20.91    8.77
  11 -15   4   18.34    9.74
 -11  15   4   -1.06    8.52
 -11 -15  -4    6.37    7.51
 -11  15  -4   13.51    6.67
  11 -15  -4   -2.98    7.02
 -11 -15   4    4.97    7.83
 -11 -15   4    6.60    6.98
  11  15   4   11.18    5.18
  11  15   4    9.69    8.12
  11  15   4    5.10    9.31
 -11 -15   4   -0.70    9.61
 -11  15   6   -7.24    8.82
  11 -15   6   10.84   10.06
  11 -15   6    1.81   10.14
 -11 -15  -6    7.87    7.03
  11  15  -6  -11.78    7.72
  11 -15   6    6.92    8.23
 -11  15   6   -6.59    8.51
 -11  15  -6   -9.06    5.84
 -11 -15   6    7.55    8.20
  11 -15  -6   -6.90    6.86
  11  15   6    4.32    9.28
 -11 -15   6    0.76    9.94
  11  15   6    4.11    8.13
 -11  15   8  -16.94    9.27
  11 -15   8   12.97   11.05
  11 -15   8   -5.48   10.81
  11 -15   8    0.20    8.66
  11  15   8    7.16    8.57
 -11 -15   8   -5.75   10.20
  11  15   8   10.84   10.02
  12 -15   1  141.42   12.46
 -12  15   1  105.51   12.47
 -12  15   1  134.22   12.03
  12 -15   1  133.62   14.85
 -12 -15  -1  128.76   13.67
  12  15   1  129.33   13.65
  12 -15  -1  136.68   12.31
  12  15   1  117.86   14.01
 -12  15  -1  116.12   12.39
 -12 -15   1  138.85   13.34
 -12 -15   1  112.42   13.93
 -12 -15  -3   75.28    8.55
  12 -15   3   53.56   10.27
  12 -15   3   53.48   10.10
 -12  15   3   68.62    9.86
 -12  15   3   61.61    7.21
  12 -15   3   68.28    7.04
 -12 -15   3   66.57    8.11
 -12  15  -3   65.81    7.86
  12  15   3   69.94    7.67
  12  15   3   62.49   10.39
 -12 -15   3   78.61   10.72
  12 -15  -3   65.35    7.93
  12  15   3   64.53    9.42
  12 -15   5   46.06   10.05
 -12 -15  -5   43.97    7.82
 -12  15   5   49.81    6.32
 -12  15   5   52.75    9.38
  12  15   5   26.22    8.23
  12 -15  -5   39.69    7.41
 -12 -15   5   34.98    7.28
  12  15   5   36.56    9.92
 -12 -15   5   62.51   10.09
 -12  15   7    9.28    9.23
  12 -15   7  -24.33   10.74
  12 -15   7  -16.53    8.23
  12 -15   7   18.09   10.60
  12 -15  -7    6.71    7.09
  12  15   7   11.85    9.71
  12  15   7    4.65    8.46
 -12 -15   7   22.40   10.47
 -13  15   0    8.45    6.76
 -13 -15   0   12.45    7.29
  13 -15   0    3.51    8.09
  13 -15   0    3.02    6.61
  13  15   0   12.98    7.90
  13 -15   2   11.88    9.02
  13 -15   2    6.64    6.69
 -13  15   2    0.83    8.20
 -13  15   2    8.92    6.45
 -13 -15  -2    4.50    7.81
  13  15   2   -0.93    8.81
 -13 -15   2    5.57    7.36
 -13 -15   2    7.14    8.81
  13  15   2    0.09    6.98
 -13  15  -2   10.66    7.00
  13  15   2    9.40    8.13
  13 -15  -2    2.78    6.66
 -13  15   4   -0.11    6.14
  13 -15   4   12.00    9.82
 -13  15   4   -1.49    8.47
  13 -15   4   14.82    9.46
 -13 -15  -4   16.72    7.73
  13 -15   4   14.11    8.68
  13 -15   4   11.07    4.86
 -13 -15   4   -0.22    9.07
  13  15   4    8.71    9.13
 -13  15  -4   13.12    6.58
  13 -15  -4   -0.99    6.97
  13  15   4   13.26    8.08
  13  15   4   15.21    5.49
 -13 -15   4    0.57    7.21
  13 -15   6   10.27   10.33
 -13  15   6  -13.23    8.93
  13 -15   6    0.96   10.77
 -13 -15  -6    9.37    7.18
  13 -15   6   10.99    8.72
  13  15   6    8.18    9.58
 -13 -15   6  -11.75   10.12
 -13  15  -6   -7.81    6.09
  13  15   6    3.32    8.58
  13 -15  -6   -8.09    7.22
  13 -15   8   -6.25   11.37
  13 -15   8    1.21   11.56
 -13  15   8  -14.07    9.68
  13 -15   8   -8.09    9.17
  13  15   8    9.86    9.92
 -13 -15   8    1.97   11.20
  13  15   8    3.28    9.02
 -14  15   1   76.76    7.99
  14 -15   1   74.47   10.40
  14 -15   1   64.91    8.17
 -14 -15  -1   70.20    8.80
  14  15   1   80.17   12.58
 -14 -15   1   83.83    8.56
  14  15   1   66.85    8.46
  14 -15  -1   75.34    7.91
 -14  15  -1   62.62    8.22
  14 -15   3   43.49    7.02
  14 -15   3   32.65    9.66
 -14  15   3   44.04    7.02
 -14 -15  -3   46.61    8.67
 -14  15   3   50.68    9.50
 -14  15  -3   41.49    7.41
  14  15   3   55.79   10.19
 -14 -15   3   55.03    8.15
 -14 -15   3   52.69   10.34
  14  15   3   51.50    9.13
  14  15   3   48.36    7.58
  14 -15  -3   52.00    7.69
 -14  15   5   42.59    9.62
 -14 -15  -5   34.34    8.04
  14 -15   5   53.57   10.62
 -14  15   5   34.65    6.61
  14  15   5   38.07    8.56
 -14 -15   5   30.50    7.70
  14  15   5   37.70   10.00
 -14 -15   5   55.11   10.34
  14 -15  -5   39.69    7.61
  14 -15   7   -8.80    8.74
  14 -15   7   15.90   11.00
 -14  15   7   -4.59    9.41
  14 -15   7  -19.87   11.48
 -14 -15   7   11.57   11.05
  14  15   7    8.10    8.85
  14  15   7   17.94    9.85
  14 -15  -7    0.67    7.59
  15  15   0    0.65    7.64
  15 -15   0    9.89    7.02
 -15  15   0    4.24    7.08
 -15 -15   0   15.56    7.89
  15 -15   2   10.96    9.44
 -15  15   2    9.22    6.64
 -15 -15  -2   13.66    7.96
  15 -15   2   15.60    7.19
  15  15   2   12.99    7.57
  15  15   2   10.75    9.14
  15 -15  -2    3.85    6.96
 -15 -15   2    9.22    7.78
 -15  15  -2   16.14    7.01
  15 -15   4   -4.96    8.80
 -15 -15  -4    5.32    7.92
 -15  15   4    0.41    6.15
  15 -15   4    5.00    5.27
  15  15   4    9.65    5.91
  15 -15  -4    3.27    7.15
 -15  15  -4   -1.93    6.61
  15  15   4    5.96    8.14
  15  15   4    6.85    9.12
 -15 -15   4   -0.35    7.58
  15 -15   6   -3.49    8.86
 -15  15   6    2.28    5.84
 -15 -15  -6   12.21    7.68
  15 -15   6   16.80   10.48
  15  15   6    5.16    9.57
  15 -15  -6   -0.11    7.33
 -15 -15   6   -7.49   10.68
 -15  15  -6   -5.29    6.27
  15  15   6    3.08    8.98
  16 -15   1   43.81    7.68
 -16 -15  -1   44.92    8.47
 -16  15   1   37.31    7.20
  16  15  -1   42.62    8.39
 -16  15  -1   41.12    7.54
  16 -15  -1   41.93    7.19
  16  15   1   31.87    7.72
 -16 -15   1   48.37    8.39
  16 -15   3   18.18    9.55
 -16 -15  -3   37.71    8.17
  16 -15   3   28.85    6.69
 -16  15   3   34.61    6.78
 -16 -15   3   31.75    7.81
  16  15   3   31.36    7.51
  16 -15  -3   46.58    7.46
 -16  15  -3   25.33    6.95
  16  15   3   41.03    9.64
  16 -15   5    3.96    9.22
 -16 -15  -5   20.66    7.96
  16 -15   5   15.60   10.45
 -16  15   5   13.59    6.73
 -16  15  -5  -10.08    6.38
 -16 -15   5    7.88    7.78
  16 -15  -5   21.52    7.49
  16  15   5   29.18    9.66
  16  15  -7   36.47   10.34
  16 -15   7   -8.11    9.57
  16 -15   7   11.06   11.32
  16 -15  -7   -1.45    7.92
  16  15   7   24.48   10.16
 -17 -15   0   13.85    7.99
 -17  15   0    3.97    6.94
  17 -15   0   11.63    7.14
  17  15   0    7.51    7.37
  17 -15   2    6.03    9.48
 -17  15   2   11.74    6.67
  17 -15   2   16.25    7.21
  17  15  -2    4.77    8.08
 -17 -15  -2   12.42    8.28
  17  15   2   17.38    9.19
 -17  15  -2   11.94    7.01
  17 -15  -2    6.60    6.93
 -17 -15   2   14.33    7.83
  17  15   2   19.90    7.62
  17 -15   4   12.67    5.56
 -17 -15  -4    4.41    8.23
  17  15  -4    1.20    9.48
  17 -15   4   -1.06    9.35
 -17  15   4    2.13    6.82
  17  15   4    7.66    9.50
 -17  15  -4   -0.75    6.73
  17 -15  -4   -0.23    7.39
 -17 -15   4   -1.67    8.17
  17  15   4    8.23    6.31
 -17  15   6   -0.16    6.50
  17 -15   6    5.33    9.34
 -17 -15  -6   13.13    7.84
  17  15  -6   30.20   10.27
  17 -15   6   15.42   11.02
  17  15   6    8.14    9.67
  17 -15  -6   -6.09    7.79
 -17  15  -6  -14.24    6.30
  18  15  -1   20.61    7.70
 -18 -15  -1   25.12    8.45
  18 -15   1   17.95    7.61
 -18  15   1   11.28    6.92
 -18 -15   1   22.89    8.12
  18  15   1   20.83    7.79
 -18  15  -1   16.38    7.02
  18 -15  -1   13.35    6.83
  18 -15   3   17.16    7.13
 -18 -15  -3   24.12    8.71
  18 -15   3   18.08    9.58
  18  15  -3   36.10    9.05
 -18  15   3   24.67    7.05
 -18 -15   3   27.64    8.36
  18  15   3   30.90    9.82
  18  15   3   24.53    7.71
  18 -15  -3   29.16    7.57
 -18  15  -3   14.83    7.10
  18  15  -5   22.97    9.77
 -18  15   5    7.80    7.00
 -18 -15  -5   11.84    8.24
  18 -15   5    3.49    9.46
  18 -15  -5    4.80    7.65
 -18 -15   5   -4.20    8.03
 -18  15  -5   -8.04    6.79
  18  15   5   19.28    9.63
 -19  15   0    6.58    7.09
 -19 -15   0   18.84    8.37
  19  15   0   11.39    7.85
  19 -15   0    8.31    7.33
  19 -15   2    9.46    7.65
 -19  15   2    4.20    6.90
 -19 -15  -2   14.56    8.69
  19  15  -2    2.27    8.18
 -19  15  -2    6.78    7.31
 -19 -15   2   14.20    8.21
  19  15   2   23.94    8.26
  19 -15  -2    4.86    7.12
 -19 -15  -4   -1.18    8.60
  19  15  -4    3.08    9.22
  19 -15   4   -0.96    9.61
 -19  15   4   -0.21    6.96
  19  15   4   11.22    9.61
 -19 -15   4   -1.02    8.50
  19 -15  -4   -0.98    7.48
 -19  15  -4   -6.61    6.83
  19  15   4    0.63    6.60
  19 -15   6   18.13   11.75
  19 -15   6   -3.61   10.33
 -19 -15  -6    9.60    8.64
  19  15  -6    5.76   10.47
  19 -15  -6   -7.81    7.65
  19  15   6    3.44   10.18
 -20  15   1   -0.45    7.02
 -20 -15  -1    8.59    8.77
  20  15  -1    8.27    8.04
  20 -15   1   12.56    7.96
 -20  15  -1    5.26    7.26
  20 -15  -1    9.89    7.04
  20  15   1    5.44    8.02
 -20 -15   1    4.65    8.35
  20 -15   3   -3.87    7.12
 -20  15   3   11.48    7.10
  20  15  -3   10.24    8.60
 -20 -15  -3   10.96    8.97
  20 -15  -3    6.18    7.52
 -20 -15   3   -5.16    8.54
 -20  15  -3   -1.79    7.07
  20  15   3    8.41    8.02
  20 -15   5   -1.97    9.85
  20  15  -5    5.21    9.91
 -20 -15  -5   -4.86    8.69
 -20  15   5   -1.01    7.24
  20  15   5   17.89   10.23
 -20  15  -5  -13.26    6.95
 -20 -15   5  -18.02    8.62
  20 -15  -5   -0.96    7.70
 -21 -15   0   18.01    8.79
  21  15   0   14.76    8.22
  21 -15   0    9.13    7.71
 -21  15   0    4.10    7.29
 -21  15   2    6.02    7.28
  21  15  -2   15.94    8.58
  21 -15   2   14.43    8.10
 -21 -15  -2   15.49    9.22
 -21  15  -2    0.03    7.48
 -21 -15   2   12.27    8.72
  21 -15  -2    0.97    7.24
  21  15   2   13.64    8.46
 -21  15   4   -4.66    7.37
 -21 -15  -4    4.61    9.42
  21  15  -4    6.53    9.51
  21 -15  -4   -0.65    7.74
 -21 -15   4  -13.05    8.99
 -21  15  -4   -2.21    7.41
 -22  15   1   -4.88    7.17
  22  15  -1    0.01    8.34
  22 -15   1    0.91    8.24
 -22 -15  -1    3.99    9.18
  22 -15  -1   -0.70    7.30
 -22 -15   1    0.62    8.72
 -22  15  -1   -1.94    7.31
  22  15   1    0.48    8.42
 -22  15   3    7.27    7.45
  22 -15   3   -7.62    7.43
  22  15  -3    6.89    9.08
 -22 -15  -3   -7.00    9.54
 -22  15  -3  -11.07    7.51
  22  15   3   -1.12    8.32
 -22 -15   3  -16.80    9.06
  22 -15  -3   -1.04    7.61
 -23 -15   0    7.95    9.22
  23 -15   0    3.65    7.98
 -23  15   0    1.04    7.65
  23  15   0   16.39    8.66
 -23  15   2   -1.15    7.50
  23 -15   2    3.93    8.50
 -23 -15  -2    2.14    9.71
  23  15  -2    6.25    8.97
 -23 -15   2    3.33    9.24
  23 -15  -2    0.81    7.43
  23  15   2   15.56    9.06
 -23  15  -2   -7.39    7.84
  23  15  -4   18.37   10.26
 -23 -15  -4    0.92   10.17
 -23  15  -4  -13.34    7.78
  23 -15  -4   -6.67    8.24
 -24 -15  -1   -7.25   10.02
 -24  15   1   -7.39    7.76
  24 -15   1   -9.41    8.83
  24  15  -1   -3.37    8.91
 -24  15  -1   -2.25    7.88
  24  15   1   -5.63    8.88
  24 -15  -1   -7.42    7.73
 -24 -15   1  -18.71    9.32
 -24 -15  -3  -14.80   10.38
  24 -15   3  -13.18    8.04
  24  15  -3   -2.04    9.77
  24  15   3   -7.57    8.91
 -24  15  -3  -12.95    7.90
  24 -15  -3   -2.24    8.02
  25 -15   0    1.93    8.54
  25  15   0   14.23    9.44
 -25  15   0    7.64    8.27
 -25 -15   0    3.12   10.17
   0  16   0  108.88   10.57
   0  16   0  108.95   10.49
   0 -16   0  117.75   11.17
   0 -16   0   99.28    9.50
   0 -16  -2    2.49    5.03
   0 -16   2   -4.68    4.77
   0  16  -2    2.62    5.78
   0 -16   2    1.14    6.98
   0 -16   2    4.25    6.45
   0  16   2    3.18    6.54
   0  16   2   -1.02    4.83
   0  16   2    2.45    6.42
   0 -16   4    6.50    7.66
   0  16   4    7.20    8.02
   0  16   4    5.17    8.35
   0  16   4    1.59    4.32
   0 -16   4    5.80    8.69
   0 -16  -4    4.11    6.22
   0  16  -4    4.67    6.45
   0  16   6    5.71    8.14
   0  16   6   -0.39    8.91
   0 -16   6    6.09    8.03
   0 -16  -6   -1.63    6.17
   0  16  -6   10.76    6.10
   0 -16   6    2.62    8.41
   0  16   8    4.18    8.59
   0  16   8    1.74    9.13
   0 -16   8   -0.04    8.36
   0 -16   8    4.71    8.16
  -1 -16  -1  343.60   18.76
  -1  16   1  324.63   22.70
  -1  16   1  339.80   19.04
   1 -16   1  361.67   23.06
   1 -16   1  340.38   18.78
   1  16  -1  351.55   19.44
  -1  16   1  358.35   23.29
   1 -16   1  378.71   23.50
   1  16   1  340.06   18.70
   1  16   1  368.47   23.06
  -1 -16   1  334.17   18.96
  -1 -16   1  376.34   23.36
  -1 -16   1  352.51   23.08
   1 -16  -1  341.50   18.72
   1  16   1  361.35   22.99
  -1  16  -1  382.88   19.57
  -1  16   3  158.17   15.27
  -1 -16  -3  206.27   12.44
  -1  16   3  189.99   11.89
   1  16  -3  218.06   13.46
   1 -16   3  166.57   14.46
   1 -16   3  155.54   15.61
   1 -16   3  195.84   11.72
  -1  16   3  206.86   14.95
  -1  16  -3  179.00   13.14
  -1 -16   3  159.89   15.17
   1  16   3  144.51   15.15
   1 -16  -3  203.00   12.12
  -1 -16   3  208.74   15.12
   1  16   3  211.41   15.10
   1  16   3  177.60   11.45
  -1 -16   3  189.26   11.61
  -1 -16  -5   80.94    9.52
   1 -16   5   50.96    9.63
   1  16  -5   47.39    7.29
   1 -16   5   46.94    9.19
  -1  16   5   60.42    9.38
  -1  16   5   63.69    9.91
   1 -16  -5   84.25    9.59
   1  16   5   56.96    9.97
  -1  16  -5   54.67    7.22
  -1 -16   5   52.52    9.96
   1  16   5   53.29    9.62
  -1 -16   5   49.33    8.99
  -1  16   7   30.14    8.33
   1 -16   7   15.48    8.74
  -1  16   7   13.92    9.26
   1 -16   7   -1.47    8.24
   1  16   7   17.43    8.76
  -1 -16   7   22.47    8.72
  -1 -16   7   13.75    8.16
   1  16   7    0.17    9.43
   1 -16   9    5.63    9.07
   1 -16   9    3.59    8.76
  -1  16   9    2.42    8.82
  -1  16   9   -0.51    9.66
   1  16   9   -4.88    9.87
   1  16   9   -3.65    8.72
  -1 -16   9    2.14    8.57
  -1 -16   9    3.12    9.38
  -2  16   0  153.84   12.74
   2  16   0  158.76   12.50
  -2  16   0  159.96   11.58
   2 -16   0  145.72   10.45
  -2 -16   0  154.10   12.11
   2 -16   0  163.34   13.32
   2  16   0  154.55   11.46
  -2 -16   0  148.41   11.35
   2 -16   0  153.45   11.03
   2 -16   2   -1.83    6.78
   2 -16   2   -1.78    6.54
   2  16  -2   -3.32    5.80
  -2  16   2   -4.54    4.87
   2 -16   2   -3.93    4.77
  -2  16   2    0.33    6.37
  -2 -16  -2    0.34    5.27
  -2  16   2   -4.16    6.46
   2 -16   2   -2.16    6.26
  -2 -16   2   -1.66    4.73
  -2 -16   2   -2.21    6.15
   2  16   2   -5.20    6.47
   2  16   2   -5.93    4.71
  -2  16  -2   -3.26    5.68
  -2 -16   2    2.62    6.76
   2  16   2   -1.77    6.49
   2 -16  -2    2.56    5.16
   2 -16   4    0.91    7.96
  -2  16   4   -0.18    8.24
  -2  16   4    5.59    8.18
   2 -16   4   -0.03    8.43
  -2  16   4   -0.78    4.72
   2 -16   4   -1.73    8.32
  -2 -16  -4    4.03    6.03
   2  16  -4   -1.30    6.43
  -2  16  -4    5.82    6.33
  -2 -16   4   -7.09    7.39
  -2 -16   4    0.14    4.38
   2 -16  -4    5.92    6.04
  -2 -16   4   -4.60    8.60
   2  16   4    4.59    8.25
   2  16   4    6.41    8.09
   2 -16   6    2.90    8.22
  -2  16   6   -5.20    8.01
   2 -16   6    3.97    8.44
   2  16  -6    8.04    5.80
  -2 -16  -6   -3.92    6.41
  -2  16   6   -4.05    8.44
   2  16   6   11.33    8.23
   2 -16  -6   -7.01    6.16
  -2  16  -6    0.65    5.92
  -2 -16   6    2.86    7.76
   2  16   6    3.79    9.10
  -2 -16   6   -7.65    8.68
   2 -16   8    3.18    8.45
  -2  16   8   -2.68    8.36
   2 -16   8    0.22    8.52
  -2  16   8   -3.65    9.17
   2  16   8    3.75    8.61
   2  16   8   -6.43    9.46
  -2 -16   8    3.08    8.99
  -2 -16   8    4.33    8.01
  -3  16   1  295.07   20.07
   3 -16   1  292.29   16.50
  -3  16   1  300.62   20.00
   3 -16   1  297.78   16.72
  -3 -16  -1  284.43   16.37
   3 -16   1  331.74   20.67
  -3  16   1  301.91   16.83
   3 -16   1  284.40   19.74
   3  16  -1  308.44   16.94
  -3 -16   1  300.95   20.10
   3  16   1  268.23   16.65
  -3 -16   1  284.49   16.59
   3 -16  -1  274.28   15.75
   3  16   1  314.33   20.26
   3 -16  -1  289.82   16.50
  -3 -16   1  295.85   19.96
   3  16   1  295.26   19.73
  -3  16  -1  308.66   16.81
   3 -16   3  281.14   15.31
   3 -16   3  289.29   19.88
  -3 -16  -3  291.02   16.08
  -3  16   3  247.21   20.24
  -3  16   3  279.26   15.72
  -3  16   3  278.55   19.55
   3  16  -3  299.59   16.80
   3 -16   3  292.35   16.90
  -3 -16   3  288.30   19.59
  -3 -16   3  274.95   20.41
  -3  16  -3  294.04   16.57
   3  16   3  287.61   19.84
   3 -16  -3  290.94   15.96
  -3 -16   3  286.53   15.71
   3  16   3  258.64   19.78
   3  16   3  265.50   15.27
   3  16  -5   87.57   10.79
   3 -16   5   84.05   10.61
  -3  16   5  100.20   12.62
  -3  16   5   73.52   11.84
  -3 -16  -5   93.90   10.08
  -3  16  -5   55.86    7.64
   3  16   5   52.32   11.03
   3 -16  -5  106.41   10.00
  -3 -16   5   85.16   11.51
  -3 -16   5   89.14   11.13
   3 -16   7   -9.40    8.95
  -3  16   7   26.03    9.33
  -3  16   7   34.72    8.34
   3 -16   7   -1.76    8.31
   3  16   7    9.03    8.74
  -3 -16   7   10.49    7.94
  -3 -16   7   18.21    9.27
   3  16   7    1.39    9.85
   3 -16   9   -5.74    8.79
  -3  16   9   -2.91    9.76
   3 -16   9   -4.29    9.85
  -3  16   9    1.40    9.25
   3  16   9   -9.56   10.19
  -3 -16   9    4.87    8.60
   3  16   9    3.15    8.87
  -3 -16   9    6.85    9.43
   4 -16   0   21.34    5.72
  -4 -16   0   13.84    5.28
   4  16   0   11.76    5.40
   4 -16   0   17.31    5.15
  -4  16   0   15.66    6.16
   4  16   0   22.00    6.27
  -4 -16   0   16.43    6.10
   4 -16   0   20.71    6.54
  -4  16   0   20.52    5.49
  -4 -16  -2    1.61    5.26
   4 -16   2    8.24    4.99
  -4  16   2    1.83    6.48
  -4  16   2    6.33    5.00
   4 -16   2    6.79    6.42
   4 -16   2   12.36    6.76
   4  16  -2    2.30    6.01
  -4  16   2   -3.15    6.50
   4 -16   2   13.65    7.06
   4 -16  -2    6.88    5.14
   4  16   2    1.42    6.66
   4  16   2    4.29    5.07
   4  16   2    5.40    6.71
  -4 -16   2   -2.34    7.19
   4 -16  -2    3.46    4.14
  -4 -16   2    5.45    6.39
  -4 -16   2    2.34    4.93
  -4  16  -2    9.34    5.79
  -4  16   4    2.53    4.85
  -4  16   4    4.71    8.44
  -4  16   4    0.27    8.01
   4  16  -4   -5.22    6.71
   4 -16   4    1.24    8.17
   4 -16   4   11.29    8.05
  -4 -16  -4    3.07    6.20
   4 -16   4    6.60    8.93
  -4  16  -4    4.29    6.32
  -4 -16   4    0.36    7.44
   4  16   4    6.83    8.02
   4  16   4   -3.62    8.33
  -4 -16   4    1.44    5.05
   4 -16  -4    0.97    6.25
  -4 -16   4   -7.49    8.66
   4 -16   6   14.64    8.25
   4 -16   6    4.38    9.43
   4  16  -6    5.84    6.17
  -4  16   6   -1.36    8.08
  -4  16   6    5.47    8.16
  -4 -16  -6   -0.48    6.34
   4 -16   6   -0.80    9.05
  -4 -16   6   -0.90    7.43
   4  16   6    0.65    9.11
  -4 -16   6   -2.57    8.86
  -4  16  -6    6.63    5.72
   4  16   6    6.34    8.10
   4 -16  -6  -10.07    6.01
   4 -16   8    1.43    8.27
   4 -16   8    3.20    9.60
  -4  16   8   -3.83    8.65
  -4  16   8   -3.72    8.96
   4  16   8    7.37    8.62
   4  16   8  -11.15    9.87
  -4 -16   8    7.09    9.12
  -4 -16   8    6.28    7.81
   5 -16   1  284.78   18.97
  -5  16   1  276.61   18.91
   5 -16   1  304.53   19.49
  -5  16   1  268.78   19.22
  -5  16   1  267.28   15.87
   5 -16   1  265.81   15.87
   5 -16   1  270.10   15.67
  -5 -16  -1  275.16   15.86
   5  16  -1  282.75   16.48
  -5  16  -1  280.99   16.01
  -5 -16   1  269.82   18.59
  -5 -16   1  289.07   19.12
   5 -16  -1  261.17   15.05
   5  16   1  264.00   15.66
  -5 -16   1  277.39   15.99
   5  16   1  282.19   18.86
   5  16   1  263.60   19.04
   5 -16  -1  259.46   15.57
   5 -16   3  208.46   16.78
   5 -16   3  167.85   17.55
  -5 -16  -3  229.78   13.96
  -5  16   3  217.84   16.76
   5  16  -3  226.87   14.81
  -5  16   3  179.19   16.95
   5 -16   3  227.68   13.23
  -5  16   3  231.80   13.71
   5 -16   3  223.01   14.91
  -5 -16   3  216.89   17.23
   5 -16  -3  199.43   11.73
  -5 -16   3  219.11   13.59
   5  16   3  236.76   16.90
   5 -16  -3  238.78   14.21
   5  16   3  226.31   16.76
  -5  16  -3  242.07   14.17
  -5 -16   3  238.28   16.76
   5  16  -5   70.86    8.23
  -5 -16  -5   98.20   10.45
  -5  16   5   83.81   11.77
   5 -16   5   88.57   10.89
  -5  16   5   93.31   10.91
  -5 -16   5   80.49   11.88
   5 -16  -5   67.14    7.78
  -5 -16   5   80.10   11.15
   5 -16   7   -4.60    8.25
  -5  16   7   35.71    9.25
  -5  16   7   39.63    8.68
  -5 -16   7   22.06    7.84
   5 -16  -7   11.30    6.24
  -5 -16   7   24.73    9.40
   5  16   7   -0.27    9.79
   5  16   7   -2.44    8.65
  -5  16   9   -0.97    9.77
  -5  16   9    9.70    9.78
   5 -16   9  -13.85   10.15
   5 -16   9   -1.60    8.89
  -5 -16   9   11.25    8.57
   5  16   9   -2.50    9.05
  -5 -16   9    2.36   10.05
   5  16   9    1.25   10.07
   6 -16   0   -0.54    6.03
   6 -16   0    0.47    5.08
   6  16   0   -1.45    5.52
   6 -16   0   -6.77    5.96
  -6  16   0   -1.74    5.39
   6  16   0    3.69    5.96
  -6 -16   0   -3.68    5.38
  -6 -16   0    6.77    6.17
  -6 -16  -2   14.18    5.98
   6  16  -2    7.89    6.36
   6 -16   2   17.75    7.43
   6 -16   2   14.61    5.43
  -6  16   2   12.08    5.33
  -6  16   2   11.94    7.09
   6 -16   2   13.53    7.21
   6 -16   2   14.75    7.49
  -6  16   2    9.77    7.15
  -6 -16   2    8.39    6.71
   6  16   2   15.28    7.25
  -6 -16   2    7.77    5.47
  -6 -16   2   10.33    7.54
  -6  16  -2   12.86    6.00
   6  16   2   18.94    7.30
   6 -16  -2   13.85    5.57
   6 -16  -2   13.53    4.99
   6  16   2    8.76    5.55
   6 -16   4    2.76    8.79
  -6 -16  -4   -2.38    6.53
  -6  16   4    0.66    8.48
   6 -16   4    6.37    8.34
  -6  16   4    3.31    7.73
  -6  16   4    1.94    5.41
   6 -16   4    2.35    8.18
   6  16  -4   -2.86    6.70
   6 -16  -4    2.33    6.38
   6  16   4    5.74    8.04
  -6 -16   4    2.36    7.15
   6  16   4    4.88    8.69
  -6 -16   4   -0.07    5.72
  -6  16  -4    4.31    6.35
  -6 -16   4   -0.04    8.87
   6 -16   6   11.42    8.01
   6  16  -6   -0.70    6.68
   6 -16   6   15.34    9.64
  -6  16   6   -3.23    8.16
  -6 -16  -6   15.32    6.52
  -6  16   6  -10.08    8.35
   6 -16   6    9.77    9.34
   6  16   6    6.97    7.98
  -6 -16   6    6.02    7.57
   6 -16  -6   -7.03    6.15
  -6 -16   6   -1.57    8.81
   6  16   6    7.00    9.23
  -6  16  -6    7.02    5.60
   6 -16   8    1.83    8.35
   6 -16   8   -1.25   10.06
  -6  16   8   -6.39    9.08
  -6  16   8   -4.09    8.71
   6  16   8    8.62    7.88
  -6 -16   8    0.60    9.59
   6  16   8    0.05    9.77
  -6 -16   8    9.91    7.93
  -7  16   1  265.43   16.41
   7 -16   1  264.11   16.39
   7 -16   1  293.81   20.21
   7 -16   1  280.75   19.26
   7 -16   1  281.06   16.17
  -7  16   1  280.46   19.66
  -7 -16  -1  296.39   16.68
   7  16  -1  272.25   16.80
   7 -16  -1  279.11   16.38
  -7 -16   1  279.44   16.51
   7  16   1  281.60   19.34
  -7 -16   1  282.23   19.75
   7  16   1  288.98   19.65
   7  16   1  267.35   16.15
  -7  16  -1  285.01   16.29
   7 -16  -1  268.40   15.47
   7  16  -3  137.91   13.26
   7 -16   3  135.77   10.53
  -7 -16  -3  143.07   12.11
  -7  16   3  122.46   14.17
   7 -16   3  142.18   12.56
  -7  16   3  127.96   10.85
   7 -16   3  131.43   13.74
   7 -16   3  100.65   14.33
  -7  16   3  131.67   12.99
  -7  16  -3  127.67   11.54
   7  16   3  134.57   13.59
   7 -16  -3  126.34    9.03
  -7 -16   3  142.60   14.52
  -7 -16   3  135.26   11.37
   7 -16  -3  139.05   11.35
  -7 -16   3  132.32   12.91
   7  16   3  130.99   13.39
  -7  16   5   81.25   11.10
   7 -16   5   74.31   10.52
  -7  16   5   77.12    8.38
   7  16  -5   74.67    8.91
  -7 -16  -5  101.42   11.03
  -7  16   5   82.23   12.09
  -7 -16   5   78.61   11.78
  -7 -16   5   71.11   11.20
   7 -16  -5   80.49    9.93
   7 -16   7   -9.55    9.64
   7  16  -7   33.36    7.55
  -7  16   7   31.98    9.17
  -7  16   7   21.53    9.00
   7 -16   7   24.70   10.45
   7 -16  -7    5.87    6.39
  -7 -16   7   18.07    9.90
   7  16   7   -3.01    9.51
   7  16   7    2.92    8.84
  -7 -16   7   20.68    8.18
  -7  16   9    0.78   10.30
   7 -16   9  -15.92   10.64
  -7  16   9   -1.41    9.57
   7 -16   9   -4.46    8.81
  -7 -16   9   -0.26   10.15
   7  16   9    7.40    9.15
  -7 -16   9   17.81    8.80
   7  16   9    7.27   10.29
   8  16   0   -0.12    5.94
   8  16   0    6.88    6.55
  -8  16   0    3.10    5.61
   8 -16   0    4.13    5.50
   8 -16   0   -2.54    6.66
   8 -16   0   -0.95    6.72
  -8 -16   0    2.03    5.98
  -8 -16  -2   -0.54    6.46
   8 -16   2    3.84    5.79
   8 -16   2   10.46    7.81
  -8  16   2    3.69    5.75
   8  16  -2    1.01    7.15
  -8  16   2    5.04    7.45
   8 -16   2   11.77    7.58
   8 -16   2   11.28    7.85
  -8  16   2    6.38    7.72
   8 -16  -2   10.87    5.84
  -8 -16   2    7.26    8.20
  -8 -16   2    7.24    7.00
  -8 -16   2   -0.18    5.87
   8  16   2    0.92    7.89
   8 -16  -2    8.35    5.83
  -8  16  -2    7.81    6.37
   8  16   2   10.26    7.56
   8 -16   4    8.15    8.98
   8 -16   4   14.96    8.54
  -8  16   4   -0.95    5.68
  -8  16   4   -0.40    8.24
  -8  16   4   -3.93    8.97
   8  16  -4   -0.47    7.76
  -8 -16  -4    0.25    6.99
   8 -16   4    3.84    9.16
  -8 -16   4    2.06    9.32
   8 -16  -4    2.12    6.41
  -8  16  -4    9.82    6.42
  -8 -16   4    1.58    7.37
  -8 -16   4    3.34    6.28
   8  16   4    7.34    4.75
   8  16   4   -2.07    9.23
   8  16   4    3.38    8.07
  -8  16   6   -4.37    8.84
  -8  16   6   -4.44    8.66
   8 -16   6   19.74    9.68
   8 -16   6   12.16   10.07
   8 -16   6   10.01    8.00
   8  16  -6    2.44    7.30
  -8 -16   6    6.99    7.78
  -8  16  -6    4.06    5.75
   8 -16  -6   -8.68    6.09
   8  16   6    7.41    9.71
  -8 -16   6   -6.72    9.53
   8  16   6    6.30    7.82
  -8  16   8   -8.70    9.04
   8 -16   8   -6.95   10.66
  -8  16   8   -5.46    9.60
   8 -16   8   -0.65   11.02
   8 -16   8   -0.05    8.29
  -8 -16   8    1.58    9.86
  -8 -16   8   13.78    8.22
   8  16   8    6.18    8.67
   8  16   8    4.22    9.87
  -9 -16  -1  155.70   13.21
   9 -16   1  148.96   13.93
  -9  16   1  142.04   14.18
   9 -16   1  159.12   14.78
   9 -16   1  157.79   12.32
  -9  16   1  157.44   12.49
   9 -16   1  153.24   12.44
   9  16  -1  157.44   13.11
  -9 -16   1  137.55   13.14
  -9 -16   1  147.56   14.23
  -9  16  -1  161.21   12.75
   9 -16  -1  159.86   12.63
   9  16   1  160.08   14.51
   9  16   1  150.84   13.91
  -9  16   3  118.13   10.90
  -9  16   3  116.22   12.82
   9 -16   3  105.47   12.73
   9  16  -3  128.99   13.87
  -9  16   3  115.15   14.27
  -9 -16  -3  108.86   12.19
   9 -16   3   95.83   13.97
   9 -16   3   87.35   12.40
   9 -16   3  108.46   10.29
  -9 -16   3  120.38   11.75
  -9 -16   3  127.01   13.77
   9 -16  -3  112.70    9.01
   9  16   3  115.61   11.08
   9 -16  -3  117.44   11.20
  -9 -16   3  115.79   12.58
   9  16   3  109.33   13.18
   9  16   3  106.33   13.06
  -9  16  -3  110.83   10.86
  -9  16   5   58.92   10.34
   9  16  -5   56.10    8.60
   9 -16   5   43.58   10.08
  -9 -16  -5   51.18    7.74
  -9  16   5   63.28    9.85
  -9  16   5   53.11    6.19
  -9 -16   5   57.47   10.55
  -9 -16   5   82.21   11.55
   9 -16  -5   44.92    7.10
   9  16   5   24.67   10.22
  -9 -16   5   40.78    6.80
   9 -16   7   13.62   10.18
   9 -16   7  -24.93   10.47
  -9  16   7   39.59    9.42
   9 -16   7  -13.38    8.05
  -9  16   7   28.19    9.55
   9  16  -7   20.28    8.01
   9  16   7    5.60   10.30
  -9 -16   7   21.12   10.11
   9 -16  -7    8.91    6.46
   9  16   7   -2.98    8.53
   9  16   9    7.16    9.33
 -10  16   0   12.81    6.33
  10 -16   0   11.09    7.17
  10 -16   0   16.62    6.30
  10  16   0   13.50    7.53
 -10 -16   0    8.99    6.70
  10  16   0   24.96    6.69
  10 -16   2   12.58    8.68
 -10  16   2    1.72    7.62
 -10 -16  -2    3.96    7.15
  10  16  -2    6.49    7.67
  10 -16   2    2.71    8.48
  10 -16   2   17.79    6.36
 -10  16   2   -0.72    7.80
  10 -16   2    9.05    8.64
 -10  16   2    0.68    5.87
 -10 -16   2   10.93    7.31
  10  16   2    0.83    7.71
 -10 -16   2   -2.85    6.53
  10 -16  -2    2.27    6.41
 -10 -16   2    3.21    8.56
  10  16   2   -4.05    8.28
 -10  16  -2    6.26    6.66
 -10  16   4   -0.84    6.01
  10  16  -4    5.78    8.13
  10 -16   4   10.18    9.01
 -10  16   4   -1.76    9.26
  10 -16   4    5.15    8.55
 -10  16   4   -1.96    8.63
 -10 -16  -4    7.09    7.54
  10 -16   4   14.37    9.55
  10  16   4    0.88    9.23
 -10 -16   4    7.25    7.80
  10  16   4   10.50    8.26
 -10 -16   4   -1.53    9.43
 -10  16  -4    9.45    6.62
  10 -16  -4    9.42    6.72
  10 -16  -4    5.85    5.03
 -10 -16   4    3.20    6.94
 -10  16   6   -8.16    8.72
 -10  16   6   -5.05    8.85
  10  16  -6   -6.46    7.80
  10 -16   6    5.84    9.88
  10 -16   6    7.73   10.45
  10 -16   6    3.21    8.40
 -10 -16  -6   21.34    6.96
 -10  16  -6   -7.26    5.84
  10  16   6   11.06    8.34
 -10 -16   6    9.62    8.15
  10  16   6    4.73    9.54
  10 -16  -6   -9.46    6.64
 -10 -16   6  -10.21    9.57
  10 -16   8   -6.82   10.67
 -10  16   8  -13.99    9.41
  10 -16   8    3.23   11.34
  10 -16   8    2.12    8.35
  10  16   8    7.29    8.91
  10  16   8    4.81   10.09
 -10 -16   8   -3.87   10.34
  11 -16   1  103.90   13.45
  11 -16   1  116.22   14.93
  11 -16   1  119.85   12.02
 -11  16   1  134.74   11.80
 -11 -16  -1  115.80   12.75
 -11  16   1  123.88   13.45
  11  16  -1  145.79   12.94
  11 -16  -1  130.86   11.88
 -11 -16   1  120.96   12.81
 -11  16  -1  113.92   11.92
  11  16   1  116.94   13.83
  11  16   1  115.32   13.61
 -11 -16   1  133.82   12.49
 -11  16   3  120.25   11.65
  11 -16   3  102.99   14.25
 -11  16   3  113.16   14.85
  11  16  -3  154.06   14.11
  11 -16   3  119.29   10.92
  11 -16   3  103.42   13.53
 -11 -16  -3  130.67   12.60
 -11  16   3  116.95   13.37
  11 -16   3  109.28   12.58
  11  16   3  120.98   14.02
 -11 -16   3  124.54   12.63
 -11  16  -3  108.73   11.50
 -11 -16   3  131.57   13.43
  11  16   3  128.25   11.66
 -11 -16   3  129.74   14.20
  11 -16  -3  120.03   11.55
  11  16   3  116.37   13.83
 -11  16   5   50.29    9.52
 -11  16   5   45.51    6.23
 -11 -16  -5   48.41    7.72
  11  16  -5   41.54    8.46
  11 -16   5   43.90    9.96
  11  16   5   27.48    8.37
 -11 -16   5   53.68    8.53
 -11 -16   5   41.69    7.15
  11 -16  -5   32.48    7.20
 -11 -16   5   39.27   10.05
  11  16   5   30.15    9.60
  11 -16   7   31.37   10.53
 -11  16   7   22.72    9.57
  11 -16   7  -11.00    8.66
  11 -16   7  -25.46   10.74
  11 -16  -7    4.26    6.87
  11  16   7    1.89    8.47
 -11 -16   7   27.71   10.50
  11  16   7   18.64    9.89
 -12 -16   0    3.63    7.20
  12  16   0    8.76    7.84
  12 -16   0   -0.42    6.55
  12 -16   0    1.95    8.20
 -12  16   0    3.43    6.50
  12 -16   2    1.03    6.71
 -12  16   2   -9.48    8.16
 -12  16   2   -2.53    6.37
  12 -16   2    5.20    8.83
 -12 -16  -2   -4.11    7.53
  12 -16   2   -5.27    8.71
  12  16   2   -4.87    7.10
 -12  16  -2   -1.72    6.88
  12 -16  -2    0.50    6.49
 -12 -16   2   -2.39    6.98
  12  16   2    3.78    8.08
  12  16   2   -3.60    8.83
 -12 -16   2   -3.87    8.79
 -12  16   4   -4.40    8.84
  12 -16   4   18.79    5.11
 -12 -16  -4   16.66    7.75
  12  16  -4    7.66    8.02
 -12  16   4    0.99    6.13
  12 -16   4   19.35    9.72
  12 -16   4   15.29    9.28
  12 -16   4   21.96    9.02
 -12 -16   4   13.83    7.14
  12 -16  -4    2.43    7.03
  12  16   4   10.15    9.26
 -12  16  -4    6.56    6.70
 -12 -16   4    1.68    9.28
  12  16   4   13.26    8.23
  12  16   4   18.49    5.59
  12 -16   6   -2.00   10.00
  12 -16   6   -3.36   10.95
  12 -16   6    1.51    8.42
 -12  16   6   -7.59    8.85
 -12 -16  -6    2.01    7.15
  12  16   6    7.96    9.62
  12  16   6    7.78    8.54
 -12 -16   6   -0.18   10.11
 -12  16  -6   -6.28    6.00
  12 -16  -6    1.45    6.97
  12 -16   8   -4.64    9.12
  12 -16   8   -9.41   11.23
 -12  16   8  -11.23    9.97
  12 -16   8    4.93   11.52
  12  16   8   11.78   10.28
 -12 -16   8   -3.36   10.92
  12  16   8    6.94    9.18
 -13 -16  -1  111.28   13.54
  13 -16   1   95.50   14.45
  13 -16   1   97.74   12.44
 -13  16   1  109.79   11.77
  13  16   1  105.78   13.23
  13  16   1   99.70   13.17
  13 -16  -1  121.14   12.34
 -13  16  -1   88.72    9.08
 -13 -16   1  125.76   13.01
  13 -16   3   48.84    6.92
  13 -16   3   31.59    9.67
 -13 -16  -3   43.90    8.50
 -13  16   3   42.30    6.88
 -13  16   3   48.22    9.52
  13 -16   3   41.07   10.13
 -13 -16   3   44.49    7.88
  13  16   3   38.20    9.96
  13  16   3   44.98    9.19
  13 -16  -3   43.91    7.37
 -13  16  -3   41.97    7.47
  13  16   3   42.59    7.51
 -13 -16   3   48.89   10.03
  13 -16   5   42.61   10.24
 -13  16   5   52.89    6.71
 -13  16   5   44.38    9.76
 -13 -16  -5   47.72    8.01
  13  16   5   34.55    8.63
  13 -16  -5   33.57    7.64
  13  16   5   38.54   10.01
 -13 -16   5   53.73   10.21
 -13 -16   5   40.93    7.68
  13 -16   7    8.01   10.75
  13 -16   7  -22.49   10.84
  13 -16   7   -8.05    8.71
 -13  16   7    1.66    9.52
  13 -16  -7   -0.33    7.32
 -13 -16   7   13.56   10.88
  13  16   7    6.84    9.05
  13  16   7    9.66    9.74
 -14  16   0   14.64    7.10
  14 -16   0   14.57    7.27
 -14 -16   0   16.78    7.76
 -14 -16  -2    7.86    8.17
 -14  16   2    8.56    6.64
  14 -16   2   16.01    7.08
  14 -16   2   19.86    9.44
  14  16   2   17.30    9.23
 -14  16  -2   17.63    7.32
 -14 -16   2   16.60    7.77
  14  16   2   16.36    7.41
  14 -16  -2    8.28    6.76
  14 -16   4    5.13    9.22
 -14  16   4   -4.84    6.21
 -14 -16  -4   10.26    7.87
 -14  16   4  -11.29    8.58
  14 -16   4    4.03    9.68
  14 -16   4   -4.94    9.19
  14 -16   4    5.56    5.24
 -14 -16   4   -5.28    9.24
 -14 -16   4    0.59    7.53
  14 -16  -4   -9.98    7.13
  14  16   4    5.02    9.43
 -14  16  -4   -2.03    6.63
  14  16   4    7.65    8.06
  14  16   4    9.05    5.78
 -14  16   6   -9.72    9.40
  14 -16   6   15.02   10.40
  14 -16   6   -4.06    9.01
  14 -16   6   -3.63   11.54
 -14 -16  -6   12.11    7.52
  14  16   6    6.66    8.92
 -14 -16   6   -7.91   10.64
 -14  16  -6  -14.25    6.21
  14  16   6    8.47    9.73
  14 -16  -6   -5.72    7.17
  14  16   8   16.51   10.29
 -14 -16   8   -4.00   11.73
  14  16   8   13.41    9.70
 -15  16   1   44.34    7.40
  15 -16   1   43.77    7.79
 -15 -16  -1   44.24    8.53
  15 -16   1   37.37    9.75
 -15 -16   1   55.85    8.32
  15  16   1   52.51    9.69
  15 -16  -1   48.52    7.59
 -15  16  -1   35.77    7.68
  15  16   1   39.09    8.07
  15 -16   3   25.71    6.69
 -15  16   3   22.60    6.57
 -15 -16  -3   27.56    8.26
  15 -16   3   18.37    9.21
 -15 -16   3   21.47    7.76
  15 -16  -3   24.57    7.20
  15  16   3   33.80    9.46
  15  16   3   26.15    7.31
 -15  16  -3   20.92    7.03
  15 -16   5   10.59   10.23
  15 -16   5  -10.63    9.20
 -15 -16  -5   21.56    8.08
 -15  16   5   17.63    6.52
  15  16   5   16.81    9.17
  15 -16  -5   19.57    7.34
 -15 -16   5    9.62    7.76
 -15  16  -5    1.64    6.52
  15  16   5   26.80    9.81
  15 -16   7   19.46   11.40
  15 -16   7   -5.68    9.26
  15  16   7    4.93    9.25
  15 -16  -7    4.19    7.65
  15  16   7   17.65    9.95
 -16  16   0   -0.64    6.89
  16 -16   0    0.04    6.91
 -16 -16   0    7.18    7.99
  16  16   0   -2.29    7.57
  16 -16   2    0.28    9.27
 -16  16   2    2.36    6.59
 -16 -16  -2   15.20    8.05
  16 -16   2    6.28    7.08
  16 -16  -2   -0.78    6.56
  16  16   2   15.87    7.52
 -16  16  -2   10.01    7.08
 -16 -16   2    7.55    7.74
  16  16   2   14.24    9.13
  16 -16   4    5.62    9.18
 -16  16   4    0.56    6.44
  16 -16   4    3.51    5.62
 -16 -16  -4    6.95    8.09
  16  16   4    4.67    6.24
 -16 -16   4    1.00    7.96
  16 -16  -4    0.25    7.29
  16  16   4    5.66    9.60
 -16  16  -4    6.30    6.69
 -16  16   6    5.99    6.23
  16 -16   6   -8.46    9.53
  16 -16   6   12.58   10.64
 -16 -16  -6    4.26    7.88
  16  16   6    7.37    9.67
  16 -16  -6   -4.64    7.43
 -16  16  -6   -8.73    6.51
 -17 -16  -1   36.50    8.39
  17  16  -1   29.29    8.03
 -17  16   1   23.15    6.91
  17 -16   1   27.59    7.52
 -17 -16   1   27.59    8.01
  17  16   1   22.01    7.70
  17 -16  -1   19.23    7.12
 -17  16  -1   24.83    7.26
  17 -16   3    5.19    9.75
 -17 -16  -3   29.31    8.54
  17 -16   3   20.72    6.82
 -17  16   3   22.98    6.82
  17  16   3   31.75    9.84
 -17 -16   3   28.02    8.07
  17 -16  -3   18.66    7.28
 -17  16  -3   15.31    7.22
  17  16   3   24.90    7.68
  17 -16   5   14.81   10.59
  17 -16   5   -6.80    9.37
 -17  16   5    8.92    6.90
 -17 -16  -5   15.41    8.07
  17 -16  -5    1.24    7.59
 -17  16  -5   -7.98    6.66
 -17 -16   5   -7.80    8.00
  17  16   5   18.21    9.78
  17 -16   7   -0.11   10.11
  17  16   7   26.20   10.28
  18  16   0    3.35    7.48
 -18  16   0    1.62    7.02
 -18 -16   0    0.51    8.11
  18 -16   0    4.79    7.00
  18 -16   2    7.05    7.44
 -18 -16  -2   15.06    8.70
 -18  16   2    8.37    6.88
  18  16  -2    5.64    8.19
  18 -16  -2   -6.27    6.81
  18  16   2   16.00    7.99
 -18  16  -2    2.88    7.23
 -18 -16   2    7.19    8.17
  18 -16   4   -7.99    9.53
  18  16  -4    9.29    9.51
 -18 -16  -4    0.44    8.43
  18 -16   4    4.13    5.81
 -18  16   4    3.64    6.98
  18  16   4    3.05    6.59
 -18  16  -4   -6.92    7.08
 -18 -16   4   -7.75    8.32
  18 -16  -4   -0.28    7.39
  18  16   4   18.53    9.76
  18  16  -6   18.07   10.54
  18 -16   6   14.75   11.11
  18 -16   6   -5.22   10.02
 -18 -16  -6   14.16    8.48
 -18  16  -6   -3.01    6.87
  18  16   6   13.84   10.17
  18 -16  -6   -3.14    7.92
  19 -16   1    2.17    7.55
  19  16  -1    8.82    7.91
 -19 -16  -1   17.93    8.68
 -19  16   1   11.19    6.95
  19 -16  -1    8.55    7.00
 -19  16  -1    8.96    7.25
 -19 -16   1    6.31    8.27
  19  16   1   12.80    8.03
 -19  16   3    9.07    6.96
 -19 -16  -3    5.87    8.78
  19  16  -3    9.08    8.90
  19 -16   3    3.88    7.26
  19  16   3    3.85    7.71
 -19 -16   3    5.08    8.34
  19 -16  -3   14.22    7.35
 -19  16  -3    3.21    7.19
  19 -16   5   19.16   10.91
 -19  16   5    3.41    7.18
 -19 -16  -5   10.08    8.56
  19 -16   5   -5.68    9.58
  19  16  -5    6.70   10.04
  19 -16  -5    6.29    7.61
 -19  16  -5  -14.34    6.82
 -19 -16   5  -15.92    8.35
  19  16   5   20.65   10.17
  20  16   0   12.28    8.15
 -20 -16   0    9.29    8.74
  20 -16   0    0.45    7.32
 -20  16   0    3.94    7.39
  20 -16   2   11.90    7.81
 -20 -16  -2   22.40    9.25
 -20  16   2    3.34    7.08
  20  16  -2    8.92    8.37
 -20  16  -2   -2.23    7.37
  20 -16  -2   -0.42    6.97
 -20 -16   2   -2.00    8.29
  20  16   2   12.06    8.35
  20  16  -4    2.42    9.50
 -20  16   4   -2.17    7.22
 -20 -16  -4   -1.01    8.91
 -20 -16   4   -7.93    8.88
 -20  16  -4   -5.79    7.17
  20 -16  -4   -8.96    7.49
  21  16  -1    8.11    8.42
  21 -16   1    0.51    7.92
 -21  16   1    1.95    7.16
 -21 -16  -1   -0.80    8.98
  21 -16  -1   10.90    7.41
 -21  16  -1   -0.02    7.36
 -21 -16   1    7.43    8.89
  21  16   1    3.62    8.31
 -21 -16  -3    3.96    9.34
  21 -16   3   -5.36    7.48
 -21  16   3    0.17    7.24
  21  16  -3    8.04    8.87
  21 -16  -3   -2.22    7.40
  21  16   3    2.52    8.21
 -21  16  -3   -3.79    7.19
 -21 -16   3  -10.40    8.81
 -21  16   5   -3.65    7.81
 -21 -16  -5   -2.46    9.32
  21  16  -5    6.65   10.48
 -21  16  -5  -12.96    7.30
 -21 -16   5  -24.68    9.16
  21 -16  -5   -9.25    8.09
  22 -16   0    7.28    7.79
  22  16   0   11.58    8.47
 -22  16   0    5.12    7.65
 -22 -16   0    4.09    9.05
  22  16  -2    9.47    8.85
 -22 -16  -2    1.91    9.46
 -22  16   2    8.40    7.41
  22 -16   2    4.96    8.32
 -22  16  -2    3.97    7.70
  22  16   2    9.98    8.67
 -22 -16   2   -1.65    9.04
  22 -16  -2    4.49    7.28
 -22  16   4   -3.51    7.70
  22  16  -4    8.79    9.94
 -22 -16  -4   -4.93    9.93
 -22 -16   4  -17.45    9.45
 -22  16  -4    3.63    7.54
  22 -16  -4    0.85    8.02
 -23 -16  -1  -18.86    9.51
  23  16  -1    3.29    8.68
  23 -16   1  -10.03    8.31
 -23  16   1   -5.35    7.55
  23  16   1   -3.20    8.75
 -23  16  -1  -10.59    7.51
  23 -16  -1   -6.97    7.58
 -23 -16   1  -15.84    8.93
 -23  16   3  -11.23    7.71
 -23 -16  -3   -1.23   10.19
  23  16  -3    6.95    9.78
  23 -16   3  -11.14    8.01
 -23  16  -3  -11.58    7.97
  23 -16  -3   -5.57    7.61
  23  16   3   -8.54    8.73
 -23 -16   3  -14.43    9.58
 -24 -16   0    5.39    9.59
  24 -16   0   11.57    8.35
 -24  16   0    2.12    7.95
  24  16   0    4.32    9.10
  24  16  -2    5.82    9.39
 -24 -16  -2    3.81   10.47
  24 -16   2    6.11    9.11
 -24  16   2   -4.17    7.80
 -24 -16   2   -6.85    9.75
 -24  16  -2    1.37    8.31
  24 -16  -2    2.03    7.79
  24  16   2   13.01    9.51
 -25 -16  -1   -5.26   10.44
  25  16  -1  -18.05    9.21
  25 -16  -1    0.28    8.33
  25  16   1    2.51    9.42
 -25  16  -1  -17.03    8.21
   0  17   1  391.92   21.14
   0 -17   1  415.88   26.01
   0 -17   1  385.44   20.99
   0 -17  -1  375.69   21.08
   0  17   1  400.73   25.84
   0 -17   1  392.64   25.70
   0  17  -1  425.53   21.43
   0  17   1  404.81   25.71
   0 -17   3  220.03   16.19
   0  17   3  202.58   12.80
   0  17   3  183.94   15.53
   0 -17   3  166.34   16.36
   0 -17   3  220.41   12.53
   0  17  -3  206.74   13.86
   0  17   3  181.46   16.00
   0 -17  -3  220.76   13.29
   0 -17   5   51.69    9.30
   0  17  -5   59.87    7.69
   0  17   5   73.90   10.49
   0  17   5   70.08   10.12
   0 -17   5   55.90   10.22
   0 -17  -5   65.89    7.67
   0  17   7    6.83    9.36
   0 -17   7    8.22    8.89
   0 -17   7    0.61    8.44
   0  17   7   19.88    8.32
   0 -17   9   -1.98    9.03
   0  17   9    4.29    8.92
   0 -17   9   -1.13    9.24
   0  17   9   -7.25   10.21
  -1  17   0   50.55    6.35
   1  17   0   55.62    7.26
   1 -17   0   62.79    7.53
  -1 -17   0   50.22    7.33
  -1 -17   0   50.01    5.97
  -1  17   0   56.93    7.29
   1 -17   0   50.05    5.94
   1  17   0   48.25    6.40
   1  17  -2   35.49    6.42
  -1  17   2   43.33    7.25
  -1  17   2   30.62    5.43
  -1  17   2   44.29    7.42
   1 -17   2    5.82    7.44
  -1 -17  -2   30.01    5.71
   1 -17   2   23.05    7.11
   1 -17   2   23.48    5.28
  -1 -17   2   31.58    5.33
   1  17   2   18.49    5.32
   1  17   2   19.47    6.98
  -1 -17   2   42.99    7.05
   1  17   2   14.88    7.37
   1 -17  -2   34.15    5.73
  -1  17  -2   14.77    6.24
  -1  17   4    9.28    8.23
  -1  17   4    3.03    4.62
   1 -17   4    2.82    8.05
  -1  17   4   -1.88    8.19
   1  17  -4   -1.94    6.71
   1 -17   4    2.20    8.54
  -1 -17  -4    3.21    6.54
  -1 -17   4    1.70    7.87
   1  17   4    4.56    8.40
  -1  17  -4    3.66    6.66
  -1 -17   4   -0.35    8.83
   1  17   4    2.11    4.46
  -1 -17   4    6.76    4.55
   1  17   4    4.40    8.65
   1 -17  -4    5.23    6.34
  -1  17   6   -2.28    8.81
   1  17  -6    8.78    6.00
   1 -17   6    5.08    8.65
  -1  17   6    1.75    8.46
   1 -17   6   -6.52    8.68
  -1 -17  -6    0.38    6.42
  -1 -17   6    4.14    8.85
   1  17   6    1.79    9.34
  -1  17  -6    9.30    6.14
  -1 -17   6    7.45    8.07
   1  17   6    6.93    8.54
   1 -17  -6    1.95    6.28
   1 -17   8    6.43    8.81
  -1  17   8   -1.37    9.37
  -1  17   8    1.93    8.85
   1 -17   8    3.53    8.74
  -1 -17   8    6.01    8.86
   1  17   8   -0.33    8.71
  -1 -17   8    1.54    8.26
   1  17   8    1.65    9.74
   2 -17   1  308.19   19.66
  -2  17   1  269.02   16.09
   2 -17   1  265.79   15.75
   2 -17   1  274.15   18.95
   2 -17   1  257.21   15.64
  -2  17   1  272.00   19.04
  -2  17   1  277.48   19.27
  -2 -17  -1  273.80   15.80
   2  17  -1  291.23   16.20
  -2 -17   1  276.40   18.93
   2  17   1  273.56   18.88
   2  17   1  296.30   19.35
   2  17   1  264.54   16.10
  -2  17  -1  286.17   16.32
   2 -17  -1  269.83   16.07
  -2 -17   1  258.98   15.93
  -2 -17   1  279.16   19.12
  -2  17   3  177.84   11.74
   2 -17   3  184.63   11.71
   2 -17   3  193.35   13.25
   2  17  -3  165.26   13.16
  -2  17   3  149.27   15.53
  -2 -17  -3  196.58   12.19
  -2  17   3  199.67   14.94
   2 -17   3  165.23   14.42
   2 -17   3  155.26   15.98
   2 -17  -3  194.02   12.43
  -2  17  -3  188.71   13.17
  -2 -17   3  161.50   15.70
  -2 -17   3  175.69   14.61
   2  17   3  179.72   11.51
  -2 -17   3  176.34   11.70
   2  17   3  183.75   15.09
   2  17   3  138.76   14.73
  -2  17   5   62.26   10.24
  -2 -17  -5   63.41    7.34
   2 -17   5   35.59    9.29
   2 -17   5   43.71    9.62
  -2  17   5   52.36    9.64
   2  17  -5   48.37    7.32
  -2  17  -5   46.75    7.24
  -2 -17   5   51.89    8.92
   2  17   5   43.26    9.57
   2 -17  -5   60.83    7.19
   2  17   5   44.57   10.39
  -2 -17   5   51.87   10.17
   2 -17   7   -1.40    8.79
  -2  17   7   26.30    8.36
   2 -17   7   -5.17    8.73
  -2  17   7   19.52    9.72
   2  17   7    8.28    9.11
   2  17   7   -3.76    9.67
  -2 -17   7   13.19    8.45
  -2 -17   7   25.95    9.23
  -2  17   9    0.03    9.43
  -2  17   9   -7.72   10.00
   2 -17   9   -1.06    9.79
   2 -17   9   -7.59    9.21
  -2 -17   9   -1.02    9.50
   2  17   9   -1.29   10.55
   2  17   9   -1.12    9.22
  -2 -17   9    4.70    8.90
   3  17   0    5.84    6.10
   3 -17   0    0.04    6.18
  -3  17   0    0.92    5.44
  -3 -17   0    1.30    5.23
   3  17   0   -0.23    5.53
   3 -17   0    1.25    5.00
   3 -17   0    0.60    5.67
  -3 -17   0    2.78    6.09
  -3  17   0    1.12    6.18
  -3  17   2   13.52    5.36
   3 -17   2   24.90    6.86
   3 -17   2   34.84    7.83
  -3 -17  -2   17.47    5.74
   3 -17   2   24.91    5.20
  -3  17   2   11.46    6.65
  -3  17   2   26.10    6.91
   3  17  -2   18.78    6.34
   3 -17   2   24.33    7.06
   3  17   2   20.63    7.18
  -3 -17   2   18.12    7.48
   3 -17  -2   16.95    5.51
   3  17   2   30.30    7.30
  -3  17  -2   29.45    6.23
  -3 -17   2   15.58    5.27
  -3 -17   2   19.03    6.81
   3  17   2   19.50    5.30
   3 -17   4    8.25    8.73
   3 -17   4   13.47    8.62
  -3  17   4    4.55    5.17
   3  17  -4   -0.86    6.62
  -3  17   4   -0.77    8.46
  -3 -17  -4    6.24    6.67
   3 -17   4    5.15    9.01
  -3  17   4   10.13    8.79
   3  17   4    9.03    8.34
  -3 -17   4   -0.95    7.70
   3  17   4    7.24    8.93
   3 -17  -4    5.82    6.34
  -3 -17   4    5.11    4.99
  -3 -17   4   -4.33    8.99
  -3  17  -4    8.77    6.61
   3  17  -6    7.76    6.15
  -3 -17  -6   -3.57    6.53
  -3  17   6   -3.55    7.83
   3 -17   6    3.59    9.07
   3 -17   6    3.96    8.54
  -3  17   6   -1.54    8.50
  -3 -17   6    1.19    8.00
  -3  17  -6    4.67    5.99
  -3 -17   6   -2.20    8.85
   3  17   6    0.98    9.67
   3 -17  -6   -6.50    6.30
   3  17   6   -0.38    8.13
   3 -17   8    7.47    8.79
  -3  17   8   -4.54    8.83
   3 -17   8   -1.84    9.31
  -3  17   8    0.25    9.41
   3  17   8   11.10    9.11
  -3 -17   8    5.27    9.26
  -3 -17   8   10.37    7.38
   3  17   8   -0.47   10.26
  -4  17   1  194.95   13.56
   4 -17   1  220.20   15.53
  -4 -17  -1  209.86   13.63
   4 -17   1  252.92   16.59
   4 -17   1  207.46   13.42
   4  17  -1  205.74   14.21
  -4  17   1  196.94   15.95
   4 -17   1  219.68   13.39
  -4  17   1  205.00   15.80
  -4 -17   1  190.50   15.78
   4  17   1  227.01   15.46
   4 -17  -1  196.65   13.49
  -4  17  -1  240.56   14.07
  -4 -17   1  192.83   15.88
   4  17   1  207.96   14.98
   4  17   1  214.15   13.32
  -4 -17   1  191.87   13.46
   4 -17  -1  173.87   12.24
  -4  17   3  152.60   15.17
  -4  17   3  181.52   12.28
   4 -17   3  174.89   11.76
   4 -17   3  138.82   14.51
   4  17  -3  201.59   13.85
  -4  17   3  196.80   15.04
   4 -17   3  188.31   13.60
  -4 -17  -3  181.95   12.83
   4  17   3  167.90   11.55
  -4  17  -3  168.37   12.88
  -4 -17   3  183.90   12.28
   4 -17  -3  182.27   12.46
  -4 -17   3  166.57   15.40
   4  17   3  165.37   15.37
  -4 -17   3  191.04   15.00
   4  17   3  172.25   14.89
  -4  17   5  107.06   13.07
   4 -17   5  100.41   11.55
  -4 -17  -5  100.68   11.29
   4  17  -5  106.91   11.61
  -4  17   5  118.91   13.49
  -4 -17   5  108.99   13.20
   4 -17  -5  116.82   10.86
  -4 -17   5  100.27   14.11
  -4  17   7   30.28    9.86
   4 -17   7    4.21    8.79
   4 -17   7  -14.57    9.73
   4 -17  -7    3.71    6.43
  -4 -17   7   18.03    9.39
  -4 -17   7   16.14    8.26
   4  17   7   -2.05   10.25
   4  17   7    2.52    8.95
   4 -17   9  -10.21   10.36
   4 -17   9    0.58    9.52
  -4  17   9   -3.09   10.09
  -4  17   9    1.58   10.05
  -4 -17   9   -2.04   10.03
   4  17   9    4.98    9.70
  -4 -17   9    2.31    8.92
   4  17   9   -1.87   10.59
  -5  17   0   18.92    5.76
  -5  17   0   27.98    6.71
   5  17   0   23.47    5.82
   5 -17   0   29.93    6.88
  -5 -17   0   17.66    5.59
   5 -17   0   33.61    6.15
  -5 -17   0   25.21    6.33
   5  17   0   27.99    6.35
   5 -17   0   21.87    5.43
  -5  17   2    1.46    6.80
  -5  17   2    0.74    5.41
   5 -17   2    5.12    7.25
   5 -17   2   -1.29    7.11
   5  17  -2    0.92    6.45
   5 -17   2    7.99    7.37
   5 -17   2    1.03    5.26
  -5 -17  -2    4.21    5.98
  -5  17   2    8.50    6.88
  -5 -17   2    5.87    6.87
   5 -17  -2    4.05    4.63
  -5 -17   2    0.35    7.60
  -5  17  -2    0.80    6.20
   5  17   2    5.60    5.57
   5  17   2    0.40    7.20
   5  17   2    6.02    7.01
  -5 -17   2    0.78    5.38
   5 -17  -2    6.49    5.60
   5 -17   4    2.32    8.41
  -5  17   4    1.31    8.69
   5 -17   4    4.05    8.82
   5 -17   4    9.63    8.36
  -5  17   4    1.68    8.58
   5  17  -4    3.69    7.09
  -5  17   4   -1.55    5.37
  -5 -17  -4   -2.58    6.79
  -5  17  -4    7.49    6.51
   5 -17  -4   -1.57    6.64
  -5 -17   4    1.11    5.62
  -5 -17   4   -5.28    9.21
   5  17   4    4.36    8.16
  -5 -17   4   -2.63    7.70
   5  17   4    0.09    8.82
   5  17  -6    5.79    6.68
   5 -17   6   12.59    9.74
  -5  17   6   -1.56    8.41
  -5  17   6   -1.22    8.33
  -5 -17  -6    9.30    6.42
   5 -17   6    0.90    9.26
   5 -17   6    4.61    8.03
  -5 -17   6   -0.19    9.43
   5  17   6    4.74    8.23
   5  17   6    3.57    9.43
  -5  17  -6    3.25    5.99
  -5 -17   6    4.65    7.79
   5 -17  -6   -6.85    6.14
   5 -17   8    6.95    9.90
  -5  17   8  -12.49    9.19
   5 -17   8    3.44    8.68
  -5  17   8   -6.55    9.38
  -5 -17   8   -0.90    9.61
  -5 -17   8    2.27    8.04
   5  17   8    9.89    8.92
   5  17   8    0.65    9.92
   6 -17   1  156.13   14.29
   6 -17   1  152.13   12.00
  -6  17   1  166.02   13.67
   6 -17   1  157.32   11.78
   6 -17   1  151.04   13.46
  -6  17   1  153.13   11.69
  -6 -17  -1  147.08   12.00
   6  17  -1  138.37   12.88
  -6 -17   1  162.72   13.82
   6  17   1  152.89   13.69
   6 -17  -1  159.56   10.77
   6 -17  -1  159.64   11.57
  -6 -17   1  163.63   12.27
   6  17   1  140.42   12.05
  -6  17  -1  144.49   12.17
   6  17   1  152.89   13.31
  -6 -17  -3  203.45   13.58
   6 -17   3  196.06   14.07
   6 -17   3  190.27   12.37
  -6  17   3  200.96   15.63
   6 -17   3  192.75   15.81
   6  17  -3  185.82   13.91
  -6  17   3  163.85   16.06
   6 -17   3  184.16   16.76
  -6  17   3  177.70   12.64
   6 -17  -3  191.77   13.17
   6  17   3  159.06   14.91
   6  17   3  191.78   15.99
   6 -17  -3  161.99   10.61
  -6 -17   3  175.04   12.81
  -6  17  -3  186.28   13.43
  -6 -17   3  164.99   15.73
  -6 -17   3  191.53   15.50
   6  17  -5   88.07    9.11
   6 -17   5  104.47   12.89
  -6  17   5   92.62   11.44
  -6  17   5   99.13   12.73
  -6 -17  -5  110.47   11.07
  -6  17   5  100.21    8.57
  -6 -17   5   80.36   11.55
  -6 -17   5   99.97   12.38
   6 -17  -5  100.30   10.25
  -6  17   7   29.80    9.28
  -6  17   7   24.87    9.20
   6  17  -7   42.48    7.27
   6 -17   7   19.92   10.20
   6 -17   7   -4.49   10.01
   6 -17  -7    0.95    6.39
   6  17   7   -2.84    9.95
  -6 -17   7   22.77    8.27
  -6 -17   7   25.27    9.62
  -6  17   9  -12.62   10.04
  -6  17   9    6.30   10.66
   6 -17   9   -9.42    9.25
   6 -17   9  -14.33   10.35
   6  17   9   -5.73   10.43
   6  17   9    6.48    9.59
  -6 -17   9   13.86    9.00
  -6 -17   9    1.87   10.36
  -7 -17   0   -5.22    5.84
  -7  17   0   -1.75    5.58
   7 -17   0    0.70    5.38
   7  17   0    3.58    6.50
   7  17   0   -2.82    6.13
   7 -17   0    0.91    6.49
   7 -17   0   -0.29    6.56
   7 -17   2   23.78    8.12
  -7  17   2   19.60    7.82
  -7  17   2   16.22    5.90
   7 -17   2   13.70    6.00
  -7  17   2   14.03    7.60
   7 -17   2   23.02    8.20
   7  17  -2    9.51    7.07
  -7 -17  -2   16.78    6.64
   7 -17   2   20.35    7.87
  -7 -17   2   22.12    8.35
   7  17   2   25.04    7.92
  -7  17  -2   19.17    6.54
   7  17   2   17.02    8.16
   7  17   2   24.39    6.00
  -7 -17   2   11.19    6.20
   7 -17  -2   18.75    6.11
   7 -17  -2   22.22    5.74
  -7 -17   2   21.82    7.48
   7 -17   4    5.58    9.05
   7 -17   4    6.57    8.84
  -7  17   4    5.93    8.36
  -7 -17  -4    5.07    6.98
  -7  17   4   -0.72    5.69
   7 -17   4    4.19    8.58
  -7  17   4    2.36    9.08
   7  17  -4   -8.58    7.52
   7  17   4    2.69    8.38
  -7 -17   4    0.73    9.35
  -7 -17   4    0.80    7.55
   7  17   4    0.32    9.16
  -7  17  -4    1.99    6.57
   7  17   4    5.85    4.86
   7 -17  -4    5.73    6.55
  -7 -17   4   -3.78    6.15
  -7 -17  -6   18.09    6.80
  -7  17   6   -6.18    8.58
  -7  17   6    0.54    8.56
   7 -17   6    1.35    9.36
   7 -17   6    1.82    8.11
   7 -17   6   11.06    9.51
   7  17  -6    4.27    7.11
  -7  17  -6    1.07    5.85
  -7 -17   6   -0.85    9.45
  -7 -17   6    4.55    7.83
   7  17   6   -5.18    9.34
   7 -17  -6    0.80    6.50
   7  17   6    6.96    8.28
   7 -17   8  -10.21   10.28
  -7  17   8   -0.74   10.00
   7 -17   8   -0.50    8.33
  -7  17   8   -4.55    9.04
   7  17   8    2.29    9.04
  -7 -17   8    1.59   10.15
  -7 -17   8    8.73    7.05
   7  17   8    0.45    9.99
  -8 -17  -1  160.12   13.09
   8 -17   1  171.22   12.28
  -8  17   1  136.54   13.49
   8 -17   1  151.74   12.33
   8 -17   1  160.61   13.78
  -8  17   1  142.94   12.12
   8  17  -1  139.72   13.27
   8 -17   1  167.47   15.11
  -8 -17   1  145.27   12.48
   8  17   1  141.25   12.99
   8  17   1  153.98   14.31
  -8  17  -1  160.17   12.72
   8  17   1  168.96   12.29
  -8 -17   1  156.74   14.42
   8 -17  -1  131.89   11.32
   8 -17  -1  157.65   12.63
   8 -17   3  145.35   13.23
   8  17  -3  173.01   14.60
   8 -17   3  113.75   15.43
  -8  17   3  147.95   11.88
  -8  17   3  158.70   13.91
   8 -17   3  136.61   11.32
  -8 -17  -3  143.20   13.01
  -8  17   3  165.84   15.74
   8 -17   3  132.13   14.71
  -8 -17   3  161.66   14.96
  -8 -17   3  157.31   14.14
  -8 -17   3  151.07   12.33
   8 -17  -3  146.15   12.13
   8  17   3  120.89   13.79
   8 -17  -3  150.27    9.84
   8  17   3  135.91   14.10
  -8  17  -3  132.32   12.25
  -8 -17  -5  108.65   11.41
   8  17  -5  107.77   13.40
  -8  17   5  110.37   13.05
  -8  17   5  102.81    9.02
   8 -17   5  107.26   12.90
  -8  17   5   98.74   13.55
  -8 -17   5   90.02   13.61
  -8 -17   5   89.18    9.97
   8 -17  -5   90.13   10.38
  -8 -17   5  101.96   12.39
  -8  17   7   33.81    9.50
   8 -17   7  -19.52   10.38
   8 -17   7   25.10   10.58
  -8  17   7   18.62    9.62
   8  17  -7   22.47    7.70
   8 -17   7  -13.64    8.29
   8  17   7   -4.79   10.31
   8  17   7   -5.02    9.00
  -8 -17   7   24.00   10.39
  -8 -17   7   26.04    8.44
   8 -17  -7    5.95    6.72
   8  17   9    2.26    9.47
  -8 -17   9   18.32    7.85
   9 -17   0   11.82    6.05
  -9 -17   0    7.82    6.38
   9  17   0   10.71    7.26
   9 -17   0   11.64    7.50
   9 -17   0    9.32    7.60
  -9  17   0    6.08    6.20
   9  17   0   16.50    6.87
  -9  17   2   10.73    6.16
  -9  17   2   12.47    8.17
   9 -17   2   19.13    8.35
   9  17  -2    4.70    7.69
   9 -17   2   14.72    8.39
  -9 -17  -2   13.60    7.18
  -9  17   2   10.50    8.11
   9 -17   2   20.82    6.33
   9 -17   2   15.28    8.47
   9  17   2   11.64    8.26
   9 -17  -2   11.72    6.43
  -9 -17   2    9.67    8.86
  -9 -17   2   11.82    7.69
   9 -17  -2   13.06    6.38
   9  17   2   17.38    8.22
  -9 -17   2    4.03    6.41
  -9  17  -2   16.53    6.83
   9 -17   4   10.00    4.91
  -9  17   4    2.83    5.97
   9  17  -4    4.29    7.99
   9 -17   4    8.62    9.49
   9 -17   4   12.52    9.44
  -9  17   4    2.64    9.64
  -9 -17  -4    7.38    7.40
   9 -17   4   10.10    8.85
  -9  17   4    2.48    8.67
   9  17   4    1.62    8.22
   9  17   4    9.94    5.35
  -9 -17   4    4.82    6.75
  -9 -17   4    8.54    7.70
   9  17   4   -0.52    9.57
   9 -17  -4    9.06    6.85
  -9 -17   4    0.56    9.73
  -9  17  -4    8.72    6.67
  -9  17   6   -8.50    8.99
   9 -17   6   13.88   10.38
   9  17  -6    4.96    7.69
  -9  17   6   -3.71    8.83
   9 -17   6   17.80    9.85
   9 -17   6    3.65    8.16
  -9 -17  -6   22.83    7.02
  -9  17  -6   -1.09    5.90
  -9 -17   6    6.17   10.08
  -9 -17   6    8.11    8.04
   9 -17  -6   -3.93    6.40
   9  17   6   -0.84    9.88
   9  17   6    4.60    8.74
   9 -17   8   -2.95    8.62
   9 -17   8   -8.80   11.29
  -9  17   8  -12.32    9.45
   9 -17   8    3.62   11.29
   9  17   8   10.09    9.23
  -9 -17   8   14.57    7.66
  -9 -17   8    7.40   10.49
   9  17   8   12.46   10.80
 -10 -17  -1   85.43    8.71
 -10  17   1   94.44   10.98
  10 -17   1   87.64   11.12
  10 -17   1   74.31   11.06
  10  17  -1  108.55   12.88
 -10  17   1   81.72   12.46
  10 -17   1   98.94   13.59
  10 -17   1  102.46   11.58
  10 -17  -1  111.32   11.74
  10  17   1   91.76   12.96
 -10 -17   1   87.23   11.84
 -10  17  -1   95.82   11.71
  10  17   1   81.08   11.38
 -10 -17   1   89.03    8.47
 -10  17   3  115.56   14.46
  10 -17   3  109.52   13.10
 -10  17   3  123.31   13.38
  10 -17   3   92.40   14.62
  10  17  -3  139.83   14.37
  10 -17   3   96.21   13.23
 -10  17   3  118.39   11.55
  10 -17   3  123.92   11.18
 -10 -17  -3  128.74   12.61
 -10 -17   3  135.24   12.57
  10  17   3  127.69   13.99
  10 -17  -3  127.00    9.57
 -10 -17   3  134.09   13.36
  10 -17  -3  131.56   11.99
  10  17   3  131.37   11.84
  10  17   3  118.72   13.71
 -10  17  -3  118.21   11.50
 -10 -17   3  137.09   14.34
 -10  17   5   38.58    9.41
 -10  17   5   33.80    9.79
 -10 -17  -5   37.63    7.56
  10 -17   5   28.99    9.69
  10  17  -5   40.00    8.26
 -10  17   5   43.56    6.08
  10  17   5   18.54    9.69
 -10 -17   5   35.38    6.90
  10  17   5   22.73    8.24
 -10 -17   5   39.28    9.93
 -10 -17   5   43.49    8.25
  10 -17  -5   27.73    6.84
  10  17  -7   15.70    8.22
 -10  17   7   18.12    9.50
  10 -17   7  -18.84   10.72
  10 -17   7  -12.82    8.34
  10 -17   7   18.83   10.37
  10 -17  -7    8.59    6.62
  10  17   7   -1.01    8.71
 -10 -17   7   26.39    9.73
  10  17   7    4.76   10.10
  11 -17   0    4.42    7.94
 -11 -17   0    0.63    7.21
  11  17   0   12.61    7.84
  11 -17   0    7.45    6.54
 -11  17   0   10.26    6.62
  11 -17   2    5.62    8.90
  11 -17   2    4.17    8.85
 -11  17   2    4.08    6.18
  11 -17   2    0.96    8.50
  11 -17   2   12.20    6.64
 -11 -17  -2   -2.53    7.47
  11  17  -2    5.43    7.75
 -11  17   2   -6.58    7.51
 -11 -17   2   -3.17    8.82
  11  17   2    9.26    8.96
 -11  17  -2    1.83    6.85
 -11 -17   2    5.79    6.97
  11  17   2    8.65    7.96
  11 -17  -2    6.18    6.72
 -11  17   4    3.22    6.03
  11 -17   4   12.53    9.26
 -11  17   4   -8.64    8.69
  11  17  -4    7.10    8.23
  11 -17   4   14.33    4.99
  11 -17   4    9.83    8.92
 -11 -17  -4   14.14    7.76
  11 -17   4   15.54    9.46
  11 -17  -4   13.63    5.28
 -11 -17   4    0.70    9.59
  11  17   4   14.86    8.39
  11  17   4   12.91    5.70
  11 -17  -4    4.02    6.67
 -11 -17   4    7.18    7.26
 -11  17  -4   15.76    6.72
  11  17   4    7.14    9.03
  11  17  -6   -1.85    7.99
  11 -17   6   -0.12    8.76
 -11 -17  -6   13.02    7.34
  11 -17   6    3.39   10.75
 -11  17   6   -7.07    9.16
  11 -17   6   -2.63    9.89
  11  17   6    1.20    9.49
 -11 -17   6  -10.94    9.98
  11  17   6   11.15    8.72
 -11  17  -6  -10.03    6.03
  11 -17  -6  -10.64    6.61
  11 -17   8   -7.14    8.86
  11 -17   8  -10.98   11.41
  11 -17   8    4.01   11.47
 -11  17   8   -8.12    9.82
  11  17   8    7.39    9.34
 -11 -17   8   -1.07   10.92
  11  17   8   16.11   10.29
  12 -17   1   89.66   14.28
  12 -17   1  101.80   12.08
 -12 -17  -1   96.60    9.39
 -12  17   1   98.86   11.03
  12 -17   1   89.44   11.06
 -12  17   1   85.53    8.32
 -12 -17   1   89.61    9.03
 -12 -17   1   92.29   13.15
  12 -17  -1  108.20   11.76
  12  17   1  108.44   13.22
  12  17   1   95.97   13.50
 -12  17  -1  113.82   12.12
  12 -17   3   29.40    9.55
 -12 -17  -3   46.42    8.43
 -12  17   3   40.49    7.13
  12 -17   3   56.11    7.02
  12 -17   3   36.92   10.05
  12  17  -3   62.13    8.82
  12 -17   3   54.13   10.02
 -12  17   3   48.11    9.47
  12  17   3   46.84    7.42
 -12 -17   3   45.56    7.94
  12  17   3   46.95    9.34
 -12  17  -3   43.35    7.47
  12 -17  -3   41.82    7.32
 -12 -17   3   47.99   10.18
  12  17   3   40.09    9.99
 -12 -17  -5   50.26    8.02
  12 -17   5   40.80   10.07
  12  17  -5   42.16    8.64
 -12  17   5   48.74    9.85
 -12  17   5   48.24    6.55
  12  17   5   29.47    9.82
 -12 -17   5   48.77   10.26
  12  17   5   25.01    8.60
  12 -17  -5   35.67    7.18
 -12 -17   5   45.07    7.55
  12 -17   7  -27.71   11.14
  12 -17   7  -12.95    8.76
  12 -17   7    6.72   10.52
 -12  17   7    6.27    9.62
  12  17   7   17.31   10.09
 -12 -17   7    8.76   10.72
  12  17   7    8.46    8.93
  12 -17  -7   -4.64    6.81
  13  17   0   25.36    8.38
  13 -17   0    6.14    8.53
  13 -17   0   12.47    7.06
 -13  17   0   12.35    7.00
 -13 -17   0   16.05    7.55
  13 -17   2   12.55    7.16
 -13  17   2    6.26    6.58
  13 -17   2   16.44    9.28
 -13 -17  -2    2.91    8.02
  13 -17   2    6.58    9.25
 -13 -17   2    3.33    7.48
  13 -17  -2    0.86    6.96
 -13  17  -2    7.76    7.14
  13  17   2   -3.97    7.40
  13  17   2   15.53    9.43
  13 -17   4   15.14    5.10
 -13  17   4    1.10    8.77
 -13  17   4    0.99    6.32
 -13 -17  -4   10.79    7.71
  13 -17   4   13.38    9.01
  13 -17   4   13.71    9.37
  13 -17   4   19.66    9.68
 -13  17  -4    8.81    6.67
  13 -17  -4   -2.11    6.68
  13  17   4    6.26    9.26
 -13 -17   4   -0.69    9.41
  13  17   4   14.37    8.22
 -13 -17   4    5.56    7.36
  13  17   4   11.39    5.86
  13 -17   6   13.17   10.28
  13 -17   6  -11.19   11.10
  13 -17   6    1.76    8.76
 -13 -17  -6    9.18    7.55
 -13  17   6  -12.97    9.40
  13  17   6   10.54    9.04
  13  17   6    6.11    9.80
 -13  17  -6  -10.17    6.19
 -13 -17   6    3.64   10.43
  13 -17  -6   -4.97    7.11
 -13  17   8  -21.65   10.32
  13 -17   8   -6.52    9.48
  13 -17   8  -16.93   11.72
 -13 -17   8    4.06   11.80
  13  17   8   17.88   10.55
  13  17   8    9.77    9.69
  14 -17   1   35.72    9.67
  14 -17   1   32.43    7.60
 -14  17   1   50.36    7.34
 -14 -17  -1   41.66    8.43
 -14 -17   1   40.76    8.17
 -14  17  -1   35.94    7.65
  14  17   1   38.57    8.19
  14  17   1   47.15    9.64
  14 -17  -1   44.75    7.42
 -14 -17  -3   51.90    8.50
 -14  17   3   40.74    6.78
  14 -17   3   26.78    9.54
  14 -17   3   38.20    6.98
  14 -17  -3   35.61    7.12
  14  17   3   39.39   10.02
 -14 -17   3   38.38    7.86
  14  17   3   32.97    7.46
 -14  17  -3   25.95    7.22
  14 -17   5   38.13   10.21
 -14 -17  -5   34.51    8.15
  14 -17   5   -9.04   11.14
 -14  17   5   26.46    6.58
 -14  17   5   22.31    9.89
  14  17   5   25.74    8.42
  14  17   5   26.35    9.83
 -14 -17   5   33.44   10.00
 -14 -17   5   29.66    7.81
  14 -17  -5   20.98    7.30
  14 -17   7  -17.65   11.81
 -14  17   7   -1.23   10.22
  14 -17   7   17.55   11.04
  14 -17   7   -6.27    9.20
  14  17   7   27.19   10.09
  14 -17  -7   -3.55    7.47
 -14 -17   7    4.79   11.34
  14  17   7   15.18    9.32
 -15  17   0    4.39    6.95
  15  17   0    5.49    7.92
  15 -17   0    3.59    7.32
 -15 -17   0    4.82    7.84
  15 -17   2   12.60    7.11
 -15 -17  -2   18.11    8.10
 -15  17   2   14.91    6.62
  15 -17   2   16.01    9.45
 -15  17  -2    7.68    7.11
  15 -17  -2    4.72    6.76
  15  17   2   21.99    7.38
 -15 -17   2   19.88    7.69
  15  17   2   25.58    9.45
  15 -17   4   11.59    5.55
 -15 -17  -4    0.64    8.21
  15 -17   4   12.80    9.84
  15 -17   4    7.81    9.28
 -15  17   4    3.52    6.54
  15 -17  -4   -0.59    6.92
  15  17   4   11.42    9.55
  15  17   4    5.79    6.18
 -15 -17   4    3.19    7.78
 -15  17  -4    6.16    6.77
 -15 -17  -6   15.45    8.00
  15 -17   6    9.59   10.36
  15 -17   6   -6.41    9.17
  15  17   6   15.24    9.98
 -15  17  -6  -10.51    6.40
  15 -17  -6   -2.93    7.31
 -16  17   1   31.36    6.99
  16 -17   1   20.94    7.37
 -16 -17  -1   29.39    8.34
 -16 -17   1   36.96    8.19
 -16  17  -1   18.96    7.23
  16  17   1   24.18    7.65
  16 -17  -1   22.33    7.04
  16 -17   3   20.52    9.50
 -16  17   3   35.20    7.01
  16 -17   3   33.26    7.09
 -16 -17  -3   34.98    8.53
 -16  17  -3   25.89    7.25
  16 -17  -3   30.97    7.05
 -16 -17   3   35.93    8.32
  16  17   3   39.54    7.83
  16  17   3   46.31   10.18
 -16 -17  -5   12.58    8.31
  16 -17   5   -9.35    9.12
 -16  17   5    9.49    6.69
  16 -17   5   17.88   10.38
 -16  17  -5   -5.53    6.54
  16 -17  -5    3.04    7.38
  16  17   5   30.64    9.94
 -16 -17   5    3.60    8.08
  16 -17   7   11.68   11.50
  16 -17   7   -4.50    9.89
  16  17   7   19.46   10.28
  16 -17  -7   -4.72    7.71
 -17  17   0    6.77    6.96
 -17 -17   0   14.51    7.89
  17  17   0    7.97    7.80
  17 -17   0    0.89    7.30
  17  17  -2    9.93    8.58
  17 -17   2   16.88    7.34
 -17 -17  -2   26.25    8.42
 -17  17   2    6.05    6.77
  17  17   2   16.05    7.75
  17 -17  -2    7.94    6.87
 -17 -17   2   16.55    8.00
 -17  17  -2    9.49    7.38
  17 -17   4   -6.66    9.71
 -17  17   4    0.86    6.62
  17 -17   4    3.42    5.86
 -17 -17  -4    8.85    8.24
  17  17   4    5.78    6.60
 -17 -17   4    1.47    8.18
  17  17   4    9.76    9.56
  17 -17  -4   -8.95    7.05
 -17  17  -4   -5.84    7.03
 -17 -17  -6   13.34    8.11
  17 -17   6   -6.22    9.81
  17 -17   6   13.99   10.90
 -17  17  -6  -12.48    6.74
  17 -17  -6   -4.23    7.79
  17  17   6    9.29   10.00
 -18 -17  -1   11.45    8.31
  18  17  -1    8.18    8.02
  18 -17   1   10.50    7.52
 -18  17   1    8.58    7.01
  18 -17  -1    9.79    7.03
 -18 -17   1    5.26    8.11
  18  17   1   10.04    7.82
 -18  17  -1    2.16    7.17
 -18 -17  -3   17.64    8.74
 -18  17   3   12.17    6.94
  18 -17   3    8.69    7.00
  18  17  -3   27.96    9.23
  18 -17  -3   16.80    7.12
 -18  17  -3   10.11    7.11
  18  17   3   17.47    7.90
 -18 -17   3   17.64    8.30
  18 -17   5    2.44   10.06
 -18 -17  -5   13.34    8.43
  18  17  -5   13.47   10.40
  18 -17   5   13.24   10.59
 -18  17   5    3.31    7.13
  18  17   5   26.97   10.03
 -18 -17   5    8.58    8.51
  18 -17  -5    2.52    7.26
 -18  17  -5   -3.94    6.75
  19  17   0   18.46    7.98
 -19 -17   0   13.77    8.68
  19 -17   0   11.08    7.44
 -19  17   0   -1.87    7.23
  19  17  -2   12.75    8.54
 -19 -17  -2   15.51    8.98
  19 -17   2   13.00    7.76
 -19  17   2    3.19    6.94
  19 -17  -2    4.40    6.98
 -19  17  -2    1.39    7.35
 -19 -17   2    9.81    8.44
  19  17   2   15.52    8.25
 -19 -17  -4    9.92    8.84
  19  17  -4   21.13    9.72
 -19  17   4   -1.04    6.95
 -19 -17   4   -3.03    8.72
  19 -17  -4   -1.65    7.30
  19  17   4    3.39    6.84
 -19  17  -4    0.27    7.15
  19 -17   6   -5.73   10.57
 -19 -17  -6    5.37    8.85
  19 -17   6   18.59   11.43
  19  17  -6   23.70   11.03
  19  17   6   11.63   10.74
  19 -17  -6   -9.04    7.57
 -19  17  -6  -18.62    7.10
 -20 -17  -1    1.53    8.99
 -20  17   1    4.37    7.04
  20  17  -1    1.57    7.92
  20 -17   1    3.83    7.87
  20  17   1    3.36    8.21
 -20  17  -1    2.59    7.37
 -20 -17   1    7.19    8.63
  20 -17  -1    2.75    7.45
 -20 -17  -3    1.01    8.89
 -20  17   3    2.75    6.97
  20 -17   3   -1.62    7.42
  20  17  -3    7.58    8.93
  20  17   3    2.65    7.99
 -20 -17   3    1.85    8.62
  20 -17  -3    1.20    7.13
 -20  17  -3    0.55    7.34
 -20  17   5   -2.37    7.46
  20  17  -5   18.76   10.62
  20 -17   5   11.58   11.20
 -20 -17  -5   -0.76    9.12
  20 -17  -5   -3.06    7.85
 -20  17  -5   -8.80    7.17
 -20 -17   5  -26.07    8.70
  21  17   0    5.78    8.38
 -21 -17   0    4.37    8.85
 -21  17   0    5.55    7.42
  21 -17   0    4.79    7.72
 -21  17   2    2.19    7.21
 -21 -17  -2   10.75    9.52
  21 -17   2    2.53    8.12
  21  17  -2    8.30    8.61
  21  17   2   16.41    8.66
 -21  17  -2    6.10    7.61
  21 -17  -2    6.11    7.12
 -21 -17   2    8.31    8.67
 -21  17   4   -4.86    7.51
 -21 -17  -4    3.99    9.47
  21  17  -4   15.32    9.95
  21 -17  -4   -2.82    7.48
 -21  17  -4   -2.88    7.61
 -21 -17   4   -9.44    9.26
  22  17  -1    3.28    8.53
  22 -17   1   -7.77    8.16
 -22  17   1   -1.83    7.19
 -22 -17  -1   -2.84    9.43
 -22  17  -1   -4.62    7.61
 -22 -17   1   -4.95    8.83
  22  17   1    3.85    8.72
  22 -17  -1   -0.50    7.55
  22 -17   3   -7.19    7.87
 -22 -17  -3   -1.06    9.95
 -22  17   3  -10.22    7.36
  22  17  -3    4.71    9.29
 -22  17  -3   -7.82    7.82
 -22 -17   3   -9.25    9.37
  22 -17  -3   -4.16    7.35
  22  17   3    6.64    8.61
  23 -17   0    2.73    8.13
 -23  17   0   12.92    7.91
 -23 -17   0    4.53    9.49
  23  17   0   17.56    8.89
  23  17  -2   16.42    9.22
  23 -17   2    2.34    8.68
 -23  17   2   -0.83    7.60
 -23 -17  -2    8.77   10.14
 -23  17  -2   -2.63    8.18
 -23 -17   2    1.09    9.37
  23 -17  -2    1.60    7.57
  23  17   2   15.91    9.08
 -24 -17  -1  -18.12    9.99
 -24  17   1  -10.35    7.70
  24  17  -1    2.33    9.32
  24 -17   1  -11.00    8.89
  24  17   1   -7.73    9.28
 -24  17  -1  -12.57    8.08
 -24 -17   1  -11.49    9.65
  24 -17  -1   -9.87    7.95
  25  17   0    5.54    9.63
   0  18   0   53.92    7.40
   0 -18   0   42.70    5.99
   0 -18   0   62.78    7.42
   0  18   0   49.69    6.55
   0  18   2   23.29    7.30
   0 -18   2   22.87    7.79
   0 -18  -2   20.77    5.83
   0  18   2   17.16    5.53
   0 -18   2   17.34    5.47
   0  18   2   24.42    7.57
   0 -18   2   27.94    7.31
   0  18  -2   24.54    6.68
   0 -18   4    8.06    9.23
   0 -18  -4   14.18    6.63
   0  18   4    2.17    4.89
   0  18   4    6.92    8.81
   0 -18   4    6.68    4.67
   0  18  -4    9.08    7.00
   0 -18   4    6.57    8.38
   0  18   4    2.69    8.73
   0  18  -6   10.69    6.29
   0 -18  -6   -2.29    6.55
   0  18   6    2.93    9.29
   0 -18   6    6.11    8.57
   0 -18   6    1.04    8.73
   0  18   6    5.49    8.49
   0 -18   8    5.49    8.87
   0 -18   8   10.64    8.97
   0  18   8    5.60   10.14
   0  18   8   -6.47    8.95
  -1  18   1  418.58   26.39
   1  18  -1  434.43   21.85
  -1 -18  -1  379.82   21.53
   1 -18   1  422.43   26.40
   1 -18   1  387.28   25.89
  -1  18   1  402.29   21.69
  -1  18   1  429.42   26.67
   1 -18   1  383.25   21.40
   1 -18  -1  407.46   21.61
  -1 -18   1  423.17   26.41
   1  18   1  381.27   26.11
  -1 -18   1  443.67   26.66
   1  18   1  388.14   21.43
  -1 -18   1  407.77   21.58
  -1  18  -1  422.24   21.90
   1  18   1  399.81   26.19
   1 -18   3  127.47   10.68
  -1 -18  -3  145.17   11.53
   1  18  -3  151.54   12.31
  -1  18   3  141.65   13.49
  -1  18   3  128.48   10.64
   1 -18   3  109.15   12.95
   1 -18   3   95.11   14.82
  -1  18   3  142.64   13.07
   1  18   3  120.51   13.11
   1  18   3  117.40   10.33
   1 -18  -3  157.07   11.08
  -1 -18   3  138.62   10.65
  -1 -18   3  155.95   14.81
  -1 -18   3  150.46   13.85
   1  18   3   99.16   13.61
   1  18  -5   41.14    7.18
  -1  18   5   49.63   10.13
  -1  18   5   44.75    9.68
   1 -18   5   30.26   10.05
   1 -18   5   24.90    9.11
  -1 -18  -5   42.40    7.35
   1  18   5   19.28    9.95
  -1  18  -5   24.11    7.27
  -1 -18   5   38.40    8.92
   1  18   5   22.43    9.64
   1 -18  -5   36.64    7.18
  -1 -18   5   48.50   10.27
  -1  18   7    8.66    9.70
  -1  18   7   21.38    8.66
   1 -18   7   13.22    9.21
   1 -18   7   -1.86    9.05
   1  18   7    0.87   10.08
  -1 -18   7    8.78    8.72
   1  18   7   17.70    8.53
  -1 -18   7   19.74    9.19
  -1  18   9    2.25    9.45
   1 -18   9   -3.27    9.44
   1 -18   9   -5.46    9.58
  -1  18   9   -4.19   10.35
   1  18   9   -4.61    9.35
   1  18   9   -3.23   10.51
  -1 -18   9    1.87    9.16
  -1 -18   9    5.98    9.97
  -2  18   0   10.75    5.83
  -2 -18   0   12.20    5.47
  -2  18   0   16.69    6.56
   2  18   0   13.59    5.96
  -2 -18   0   17.06    6.00
   2 -18   0    8.04    5.43
   2  18   0   11.92    5.77
   2 -18   0   15.72    6.50
   2 -18   2    0.26    5.37
  -2  18   2    5.71    5.39
  -2  18   2   13.93    7.19
   2 -18   2    2.72    6.94
   2 -18   2   -1.54    7.51
   2  18  -2    3.13    6.46
   2 -18   2   -2.56    6.86
  -2 -18  -2    4.06    5.73
  -2  18   2    9.55    7.19
   2  18   2    6.07    7.17
  -2 -18   2    5.69    5.43
   2  18   2    2.13    7.18
  -2 -18   2   11.47    7.13
   2 -18  -2    4.15    5.66
  -2  18  -2    4.96    6.33
   2  18   2    8.87    5.39
  -2 -18   2    5.76    7.37
  -2 -18  -4   17.59    6.86
  -2  18   4   11.01    5.36
  -2  18   4    2.90    8.71
   2  18  -4    6.01    7.03
   2 -18   4   15.36    9.18
   2 -18   4   14.64    8.59
   2 -18   4    7.53    4.57
  -2  18   4    9.23    8.72
   2  18   4   13.96    9.42
   2  18   4   22.38    4.99
   2  18   4   14.20    8.90
   2 -18  -4    8.07    6.50
  -2 -18   4   10.18    5.08
  -2 -18   4    7.60    8.19
  -2  18  -4   10.60    6.95
  -2 -18   4   -6.25    8.83
   2  18  -6   14.16    6.04
   2 -18   6    4.67    8.74
  -2  18   6    1.08    8.96
   2 -18   6    7.02    9.10
  -2  18   6   -3.46    8.14
  -2 -18  -6    7.30    6.45
  -2  18  -6   12.18    6.25
  -2 -18   6    4.32    8.96
   2  18   6    3.62    8.61
  -2 -18   6    0.86    8.18
   2 -18  -6    4.76    6.51
   2  18   6    0.63    9.44
   2 -18   8   -7.01    9.33
   2 -18   8    4.63    8.91
  -2  18   8    3.25    8.91
  -2  18   8   -5.73    9.66
   2  18   8   -3.76   10.12
  -2 -18   8   11.69    7.51
   2  18   8    1.51    9.00
  -2 -18   8    3.68    9.48
   3 -18   1  284.19   19.54
   3 -18   1  278.93   16.39
   3 -18   1  280.44   16.45
  -3  18   1  281.38   16.76
  -3  18   1  266.92   19.22
  -3  18   1  283.22   19.89
   3  18  -1  292.56   17.30
  -3 -18  -1  282.27   16.55
   3 -18   1  316.76   20.34
  -3  18  -1  301.58   16.87
   3  18   1  293.64   19.53
  -3 -18   1  268.67   16.50
   3  18   1  271.01   16.70
   3  18   1  299.70   19.69
  -3 -18   1  272.71   19.68
  -3 -18   1  304.76   19.97
   3 -18  -1  274.76   16.59
   3  18  -3  213.96   14.23
   3 -18   3  197.59   14.64
  -3  18   3  212.14   16.08
   3 -18   3  169.86   15.31
   3 -18   3  161.93   17.27
  -3  18   3  192.39   16.54
  -3 -18  -3  197.90   13.36
  -3  18   3  194.17   12.92
   3 -18   3  186.87   12.51
  -3 -18   3  187.21   12.56
  -3 -18   3  206.01   15.80
  -3 -18   3  201.13   16.90
  -3  18  -3  190.84   14.04
   3  18   3  149.24   15.73
   3  18   3  163.44   15.30
   3  18   3  176.07   12.41
   3 -18  -3  205.77   12.96
  -3  18   5   72.29   10.10
  -3 -18  -5   61.57    7.74
   3  18  -5   57.14    7.75
  -3  18   5   70.88   10.68
   3 -18   5   29.40   10.14
   3  18   5   28.29    9.72
  -3 -18   5   60.03    9.30
   3  18   5   40.31   10.71
  -3  18  -5   41.86    7.55
   3 -18  -5   55.84    7.49
  -3 -18   5   59.41   10.62
   3 -18   7   -5.85    9.60
  -3  18   7    9.57    9.79
   3 -18   7    3.86    8.77
  -3  18   7   19.60    8.53
   3 -18  -7    4.63    6.46
   3  18   7    0.16   10.39
  -3 -18   7   15.24    9.72
   3  18   7   -1.87    9.08
  -3 -18   7    8.45    8.46
   3 -18   9   -0.15    9.56
  -3  18   9    1.74    9.69
  -3  18   9    4.80   10.21
   3 -18   9   -5.38   10.67
   3  18   9    3.99    9.60
  -3 -18   9    4.73    9.17
   3  18   9    0.71   11.17
  -3 -18   9   -1.55    9.89
   4 -18   0   24.61    6.63
   4  18   0   26.03    6.06
  -4 -18   0   20.98    5.77
  -4 -18   0   28.62    6.84
   4  18   0   27.53    6.86
   4 -18   0   20.56    5.54
  -4  18   0   30.87    6.93
   4 -18   0   19.86    6.13
  -4  18   0   24.41    6.15
  -4  18   2    9.77    7.30
   4 -18   2   12.13    5.73
  -4  18   2   14.53    7.00
   4  18  -2    8.50    6.76
   4 -18   2   19.32    7.40
  -4 -18  -2    8.13    5.96
   4 -18   2   19.77    8.09
   4 -18   2   15.00    7.46
  -4  18   2    9.46    5.71
   4  18   2   13.68    7.26
  -4 -18   2   15.96    7.21
   4  18   2   19.60    7.63
   4  18   2   12.97    5.73
   4 -18  -2   18.73    5.85
  -4 -18   2    8.78    5.69
  -4 -18   2   17.93    8.31
  -4  18  -2   22.62    6.54
   4  18  -4    5.58    7.16
   4 -18   4    3.35    9.00
   4 -18   4    2.72    4.51
  -4 -18  -4    6.81    6.78
   4 -18   4    9.37    8.72
  -4  18   4    0.45    5.29
  -4  18   4    4.05    8.51
   4 -18   4   10.17    9.24
  -4  18   4    8.30    8.83
  -4 -18   4    1.36    7.91
  -4  18  -4    3.65    6.75
   4 -18  -4    8.96    6.75
  -4 -18   4    4.92    5.53
   4  18   4   -0.35    9.37
   4  18   4    1.00    8.44
  -4 -18   4    2.26    9.40
   4  18  -6    9.31    6.27
  -4  18   6   -0.41    8.36
   4 -18   6    4.30    9.75
  -4  18   6  -13.71    8.78
   4 -18   6    7.42    8.70
  -4 -18  -6    3.25    6.62
  -4  18  -6    5.43    6.05
   4  18   6    0.03    8.32
  -4 -18   6   -4.21    9.11
   4  18   6    2.86    9.87
   4 -18  -6   -7.48    6.49
  -4 -18   6    1.57    8.09
  -4  18   8   -6.83    9.55
   4 -18   8   -2.87   10.10
  -4  18   8   -4.72    9.06
   4 -18   8    4.62    8.99
  -4 -18   8    8.88    8.61
  -4 -18   8    0.59    9.49
   4  18   8    2.46   10.48
   4  18   8   -4.32    9.16
  -5 -18  -1  133.71   11.27
  -5  18   1  119.16   12.42
   5 -18   1  120.29   10.74
   5  18  -1  130.18   11.83
   5 -18   1  139.16   12.49
  -5  18   1  125.12   11.64
   5 -18   1  125.33   11.19
   5 -18   1  138.44   13.64
  -5 -18   1  125.65   12.74
   5  18   1  130.24   12.77
   5  18   1  118.76   11.17
   5 -18  -1  127.97   11.28
  -5  18  -1  126.48   12.05
   5  18   1  127.09   12.24
   5 -18  -1  111.67    9.73
  -5 -18   1  124.89   12.60
  -5 -18   1  113.54   11.50
   5  18  -3  121.45   12.51
  -5  18   3  139.99   13.51
  -5  18   3  129.76   11.10
  -5  18   3  113.94   13.70
  -5 -18  -3  127.77   11.64
   5 -18   3   86.53   14.40
   5 -18   3  133.22   13.01
   5 -18   3  122.11   13.37
   5 -18   3  115.78   10.68
   5 -18  -3  127.21   11.35
   5  18   3  115.11   13.22
  -5 -18   3  130.48   14.60
   5  18   3  120.41   13.22
  -5 -18   3  136.68   13.40
  -5 -18   3  127.30   11.00
   5  18   3  122.80   10.00
  -5  18  -3  119.56   11.75
   5  18  -5   75.85    8.43
   5 -18   5   77.41   10.86
  -5  18   5   90.03   12.87
  -5 -18  -5   89.55   10.84
  -5  18   5   87.51   11.12
  -5  18  -5   53.51    7.98
   5 -18  -5   90.95   10.25
  -5 -18   5   75.43   11.59
  -5 -18   5   77.08   12.08
   5  18  -7   43.14    6.87
   5 -18   7   -6.44    9.91
  -5  18   7   29.94    8.93
  -5  18   7   16.77    9.71
   5 -18   7   -5.98    8.58
   5 -18  -7    4.73    6.69
  -5 -18   7   17.72    9.82
   5  18   7   -2.73    8.95
  -5 -18   7   16.60    8.48
   5  18   7   -0.67   10.14
  -5  18   9    1.54   10.15
   5 -18   9   -5.63    9.66
  -5  18   9   -0.44   10.49
   5 -18   9  -10.56   10.87
   5  18   9    7.87    9.87
  -5 -18   9    4.29   10.63
  -5 -18   9   17.47    9.46
   5  18   9   -4.53   10.67
   6 -18   0   23.14    5.75
   6 -18   0   26.38    6.78
  -6 -18   0   16.91    6.16
   6  18   0   29.40    6.95
   6 -18   0   27.14    7.28
  -6  18   0   30.10    6.28
   6  18   0   21.22    6.39
   6 -18   2   13.29    6.02
  -6  18   2    7.19    7.71
   6 -18   2   10.62    7.71
  -6 -18  -2   15.66    6.60
   6 -18   2    9.01    7.79
   6 -18   2    9.74    8.01
  -6  18   2   11.90    7.80
  -6  18   2   11.35    5.87
   6  18  -2    2.62    6.93
   6 -18  -2   12.81    6.14
   6 -18  -2   14.39    5.35
  -6 -18   2   10.82    6.08
  -6 -18   2   17.14    7.56
  -6 -18   2    8.82    8.18
   6  18   2   11.19    7.53
   6  18   2   13.64    8.09
  -6  18  -2    6.02    6.48
   6  18   2   12.90    6.15
  -6  18   4    0.80    9.00
   6 -18   4    8.64    8.87
  -6 -18  -4    3.17    7.03
  -6  18   4    1.29    8.63
   6  18  -4   -2.60    7.07
   6 -18   4    1.60    4.57
   6 -18   4    3.69    9.18
   6 -18   4    4.73    8.58
  -6  18   4    1.56    5.68
  -6 -18   4    1.83    6.15
  -6  18  -4    0.25    6.59
  -6 -18   4   -0.23    7.98
   6  18   4   11.31    8.41
   6 -18  -4    3.29    6.94
   6  18   4    4.51    9.02
  -6 -18   4    3.68    9.30
   6 -18   6    7.37    8.21
   6 -18   6   11.11    9.72
  -6  18   6    1.46    8.74
   6  18  -6    7.97    7.07
  -6  18   6    0.17    8.61
  -6 -18  -6   14.50    6.77
   6 -18   6    4.49   10.01
  -6 -18   6    1.27    9.43
   6  18   6   -0.18    9.72
  -6 -18   6   11.62    8.14
   6 -18  -6    0.62    6.45
  -6  18  -6   -1.49    6.10
   6  18   6    9.74    8.70
  -6  18   8   -5.21    9.44
  -6  18   8  -11.40    9.58
   6 -18   8   -6.35   10.54
   6 -18   8   -4.21    8.96
   6  18   8    6.09   10.47
  -6 -18   8   12.71    7.38
   6  18   8    3.48    9.21
  -6 -18   8    8.77    9.95
   7 -18   1  126.80   12.71
   7 -18   1  117.32   11.50
   7 -18   1  116.06   11.18
  -7 -18  -1  111.43   12.03
   7 -18   1  108.98   12.01
  -7  18   1  104.72   12.66
   7  18  -1  102.51   13.06
  -7  18   1  111.55   11.67
  -7  18  -1  122.98   11.66
  -7 -18   1  108.93   11.75
   7  18   1  114.01   12.13
   7 -18  -1  116.24   11.53
  -7 -18   1  108.90   12.85
   7  18   1  111.59   11.42
   7  18   1  120.55   12.79
   7 -18  -1  100.10   10.17
   7 -18   3   93.74   13.23
   7  18  -3  132.31   13.89
   7 -18   3  125.80   10.96
  -7  18   3  108.02   14.35
  -7 -18  -3  127.56   12.47
  -7  18   3  122.38   11.15
   7 -18   3  124.91   13.03
   7 -18   3  114.04   15.05
  -7  18   3  130.88   13.56
   7  18   3  130.88   13.54
   7  18   3  110.07   12.86
  -7  18  -3  131.61   11.97
  -7 -18   3  125.33   13.99
   7 -18  -3  111.76    8.78
  -7 -18   3  127.89   13.38
   7 -18  -3  137.28   11.75
  -7 -18   3  124.41   11.67
  -7  18   5   85.28   11.22
   7 -18   5   80.60   10.45
  -7 -18  -5   68.74    8.27
   7  18  -5   72.54    8.77
  -7  18   5   80.39   11.99
  -7  18   5   81.85    8.36
  -7 -18   5   71.00   11.18
  -7 -18   5   52.07    6.91
  -7 -18   5   78.28   11.94
   7 -18  -5   56.66    7.69
   7 -18   7   -6.56   10.11
   7 -18   7   14.39   10.49
  -7  18   7   21.21    9.45
   7 -18   7   -2.84    8.33
   7  18  -7   37.47    7.70
  -7  18   7   30.90    9.33
  -7 -18   7   23.00   10.40
   7  18   7   -5.29    8.82
   7  18   7   -4.00    9.96
  -7 -18   7   18.88    8.50
   7 -18  -7    0.80    6.55
   7  18   9    4.11    9.82
  -7 -18   9   13.77    8.03
  -7 -18   9    2.32   10.93
   8 -18   0    1.33    5.92
  -8  18   0    1.91    6.05
   8 -18   0   -3.85    7.15
  -8 -18   0   -9.15    6.48
   8  18   0   -4.84    6.81
   8  18   0    7.39    7.31
   8 -18   0   -0.63    7.10
   8  18  -2    5.62    7.59
  -8  18   2   13.45    8.18
   8 -18   2    9.08    8.44
   8 -18   2   11.29    8.35
  -8  18   2   16.83    7.69
   8 -18   2   15.14    8.60
  -8  18   2   13.31    6.15
  -8 -18  -2    9.43    7.09
   8 -18   2   18.99    6.42
   8 -18  -2   17.92    6.52
   8  18   2    9.38    8.26
  -8 -18   2    8.26    6.59
  -8 -18   2   19.99    7.88
  -8  18  -2   15.76    6.94
   8 -18  -2   15.36    6.25
   8  18   2   26.55    8.40
  -8 -18   2   19.83    8.99
  -8  18   4    4.84    6.05
  -8 -18  -4   -2.68    7.39
  -8  18   4    1.95    8.63
   8 -18   4    4.82    9.31
   8  18  -4    1.34    7.93
  -8  18   4   -0.44    9.12
   8 -18   4    9.28    4.91
   8 -18   4    9.07    8.90
   8 -18   4    9.64    9.43
  -8 -18   4    7.47    7.90
  -8 -18   4   -0.05    9.66
   8 -18  -4    7.20    6.80
   8  18   4    3.13    9.64
   8  18   4   13.08    5.42
  -8  18  -4   13.16    6.77
  -8 -18   4    4.48    6.70
   8  18   4   11.19    8.78
   8  18  -6    0.14    7.78
   8 -18   6    9.63    8.44
  -8  18   6   -3.58    8.82
  -8 -18  -6   16.83    7.12
  -8  18   6   -2.22    8.90
   8 -18   6    5.16   10.70
   8 -18   6   13.92    9.61
   8 -18  -6    0.68    6.70
   8  18   6    7.51    9.92
  -8 -18   6    6.93   10.05
  -8 -18   6    8.58    8.14
  -8  18  -6   -1.10    6.08
   8  18   6    6.57    8.97
   8 -18   8   -6.69   11.24
  -8  18   8  -10.52    9.43
  -8  18   8   -5.55   10.24
   8 -18   8   -5.70    8.57
   8 -18   8    0.61   10.96
  -8 -18   8   -1.03   10.46
   8  18   8   -0.98   10.68
   8  18   8   11.24    8.29
  -8 -18   8   12.70    8.62
   9 -18   1  116.53   13.82
   9 -18   1  103.00   11.45
   9 -18   1   96.75   12.60
  -9  18   1   99.79   10.92
   9 -18   1   97.95   11.16
  -9  18   1   85.84   12.86
   9  18  -1   80.79    9.11
  -9 -18  -1   90.49    8.82
   9  18   1   91.18   12.13
  -9 -18   1  100.46   12.27
  -9 -18   1   82.14   11.90
   9  18   1  118.06   11.08
   9 -18  -1   97.02   11.73
  -9  18  -1  114.79   11.48
   9 -18  -1   80.53    9.83
   9  18   1  104.69   12.32
  -9  18   3   87.36   10.66
   9  18  -3  108.11    9.90
   9 -18   3   58.20   10.78
   9 -18   3   85.88   10.28
   9 -18   3   95.22   10.51
  -9  18   3   97.83   13.66
  -9 -18  -3   79.39    8.98
  -9  18   3   96.16   12.56
  -9  18  -3   93.28   11.23
   9 -18  -3   92.24   11.05
   9  18   3   88.71   12.62
  -9 -18   3   92.67   11.62
  -9 -18   3  109.24   12.50
   9 -18  -3   91.11    8.57
   9  18   3   84.49   12.79
  -9 -18   3  105.35   13.56
  -9 -18  -5   47.93    7.73
   9 -18   5   44.18    9.89
  -9  18   5   48.77   10.43
  -9  18   5   45.61    6.14
   9  18  -5   50.22    8.51
  -9  18   5   40.54    9.63
   9  18   5   18.17   10.14
   9 -18  -5   38.97    7.31
  -9 -18   5   35.27    6.72
  -9 -18   5   46.53   10.27
  -9 -18   5   48.36    8.32
   9  18   5   23.63    8.57
   9 -18   7  -12.95    8.52
   9 -18   7   24.31   10.56
  -9  18   7   21.59    9.67
   9  18  -7   14.56    7.84
   9 -18   7  -27.10   10.87
   9  18   7    4.19    9.21
  -9 -18   7   24.67    8.62
  -9 -18   7   20.72   10.62
   9  18   7    5.45   10.57
   9 -18  -7    7.66    6.95
 -10  18   0    9.55    6.61
  10 -18   0    6.15    6.41
 -10 -18   0    0.38    6.89
  10  18   0    2.27    7.75
  10  18   0   11.81    7.13
  10 -18   0    3.40    7.88
  10 -18   0    2.42    8.05
  10 -18   2   10.95    6.77
  10 -18   2    1.54    8.74
  10 -18   2   13.10    8.64
  10 -18   2    9.68    8.54
 -10 -18  -2    2.07    7.51
  10  18  -2    0.44    7.88
 -10  18   2    4.02    8.13
 -10  18   2   -1.14    8.38
 -10  18   2    9.95    6.41
 -10 -18   2   11.00    7.85
  10 -18  -2    8.58    6.73
 -10 -18   2    4.65    6.92
 -10 -18   2    9.98    8.83
  10  18   2   12.59    8.49
  10  18   2    8.38    8.71
 -10  18  -2   13.66    7.02
  10 -18  -2   15.86    6.86
  10  18  -4   24.63    8.41
  10 -18   4   11.34    9.17
 -10 -18  -4   23.29    7.79
 -10  18   4   22.85    6.25
 -10  18   4   13.57    9.53
  10 -18   4   25.71    9.72
  10 -18   4   22.05    5.32
 -10  18   4   23.05    8.96
  10 -18   4    7.66    9.24
  10  18   4   14.92    9.56
  10 -18  -4   26.01    5.11
 -10 -18   4   25.67    7.90
 -10 -18   4   20.52    9.96
  10 -18  -4   13.25    7.17
  10  18   4   23.45    5.87
  10  18   4   18.73    8.73
 -10  18  -4   17.01    6.85
 -10 -18   4   16.17    7.14
  10 -18   6   12.38    9.89
  10 -18   6   -4.10   10.72
  10 -18   6    6.05    8.72
 -10 -18  -6   20.96    7.31
 -10  18   6   -6.72    8.84
  10  18  -6   -2.72    8.21
 -10 -18   6   -0.20   10.07
 -10  18  -6   -4.75    6.07
  10  18   6    4.67    8.91
  10 -18  -6   -5.29    6.71
  10  18   6    4.53    9.86
 -10  18   8  -16.35    9.77
  10 -18   8   -2.50    9.10
  10 -18   8   12.29   11.59
  10 -18   8  -13.60   11.34
  10  18   8    2.12   10.47
  10  18   8    7.30    9.63
 -10 -18   8   -5.62   10.70
  11 -18   1   75.15    9.74
  11 -18   1   71.49    7.96
  11 -18   1   76.40   10.34
 -11 -18  -1   79.02    8.78
  11 -18   1   88.30   10.37
 -11  18   1   72.26   10.15
  11  18  -1   79.46    8.77
 -11  18   1   67.28    7.83
 -11 -18   1   75.70    8.39
  11  18   1   79.99   12.39
  11 -18  -1   72.06    7.97
  11  18   1   83.45   12.98
 -11  18  -1   76.01    8.26
 -11 -18   1   80.04   10.21
  11  18  -3   73.87    9.52
  11 -18   3   63.82   10.07
 -11 -18  -3   72.95    8.97
  11 -18   3   56.91   10.65
 -11  18   3   67.33   10.01
 -11  18   3   64.09    7.56
  11 -18   3   57.60   10.69
  11 -18   3   73.76    7.62
 -11 -18   3   65.86    8.36
  11  18   3   61.96   10.64
  11 -18  -3   75.01    8.36
  11  18   3   72.91    9.98
 -11 -18   3   64.63   10.79
 -11  18  -3   64.72    8.01
  11 -18  -3   59.87    8.06
  11  18   3   69.84    8.05
 -11  18   5   46.62    6.37
 -11  18   5   42.40    9.42
  11 -18   5   53.48   10.06
 -11 -18  -5   48.83    8.01
  11  18  -5   42.22    8.76
 -11 -18   5   33.76    7.32
  11  18   5   30.86    8.69
  11 -18  -5   26.33    6.95
 -11  18  -5   15.77    6.61
  11  18   5   33.83    9.75
 -11 -18   5   41.26    9.99
  11 -18   7  -10.95    8.61
  11  18  -7  -14.92    8.22
  11 -18   7   11.42   10.72
 -11  18   7    6.50    9.60
  11 -18   7  -16.81   11.44
  11  18   7    9.50    9.29
  11 -18  -7   -7.41    6.79
 -11 -18   7   15.20   10.81
  11  18   7   12.24   10.06
  12 -18   0    3.93    8.29
  12  18   0   17.73    8.07
 -12 -18   0    8.05    7.55
 -12  18   0    9.61    6.86
  12 -18   0   12.66    6.86
  12 -18   2    3.22    6.95
 -12  18   2   -4.33    8.43
 -12 -18  -2    2.05    7.85
  12 -18   2    8.62    9.21
  12 -18   2   13.39    9.40
  12 -18   2    5.87    9.26
  12  18  -2    5.79    8.01
 -12  18   2    6.01    6.48
 -12 -18   2    1.00    7.35
 -12  18  -2   12.65    7.20
  12 -18  -2    3.88    6.87
  12  18   2    9.33    8.95
 -12 -18   2   14.44    9.20
  12  18   2    9.65    8.57
  12 -18   4   10.01    9.44
  12 -18   4   12.45    9.26
  12 -18   4   20.72    9.22
 -12  18   4   -2.17    8.78
  12 -18   4   20.28    5.38
  12  18  -4   10.40    8.17
 -12  18   4    4.56    6.23
 -12 -18  -4   15.43    7.73
 -12  18  -4   11.60    6.67
  12  18   4    8.53    9.32
  12 -18  -4   11.62    5.40
  12  18   4   10.92    8.28
  12  18   4   14.18    5.98
 -12 -18   4    1.99    7.37
  12 -18  -4    0.40    6.78
 -12 -18   4   -0.85    9.37
  12  18  -6  -10.00    8.31
  12 -18   6    0.22    8.98
 -12  18   6   -6.36    9.33
 -12 -18  -6   17.29    7.62
  12 -18   6  -10.33   11.15
  12 -18   6   12.62   10.10
 -12 -18   6   -0.04   10.50
  12  18   6   11.01    8.96
 -12  18  -6  -14.12    6.19
  12  18   6    7.61    9.68
  12 -18  -6    0.19    6.74
  12 -18   8    0.06    9.47
 -12  18   8  -16.04   10.30
  12 -18   8  -23.35   12.04
  12 -18   8    9.66   11.49
  12  18   8   14.29    9.88
 -12 -18   8    3.88   11.49
  12  18   8   14.24   10.60
  13 -18   1   56.19   10.27
 -13 -18  -1   52.56    8.88
  13 -18   1   50.54    7.90
 -13  18   1   59.07    7.62
 -13 -18   1   65.95    8.53
  13 -18  -1   68.81    8.10
  13  18   1   69.75   10.10
 -13  18  -1   54.14    7.99
 -13 -18  -3   61.26    8.66
  13 -18   3   31.67    9.93
 -13  18   3   49.32    7.33
  13 -18   3   61.05    7.23
  13 -18   3   40.83   10.23
  13 -18   3   59.32   10.20
 -13 -18   3   67.29   10.56
  13  18   3   55.53    9.58
 -13  18  -3   43.56    7.59
  13  18   3   57.08   10.29
 -13 -18   3   58.46    8.23
  13 -18  -3   52.95    7.60
  13  18   3   49.08    7.69
 -13  18   5   32.11    6.51
  13 -18   5   -2.83   11.01
 -13 -18  -5   36.28    8.10
 -13  18   5   30.26    9.84
  13 -18   5   43.13   10.16
  13  18   5   27.07    9.22
 -13  18  -5    4.22    6.62
 -13 -18   5   24.70    7.73
 -13 -18   5   43.66   10.13
  13  18   5   33.79   10.16
  13 -18  -5   23.35    6.88
  13 -18   7    7.35   10.71
  13 -18   7   -7.34    9.22
 -13  18   7  -15.19    9.78
  13 -18   7  -27.08   11.44
 -13 -18   7   -5.88   10.91
  13  18   7   18.49   10.35
  13 -18  -7   -5.41    7.06
  13  18   7   12.40    9.38
 -14 -18   0   18.20    7.99
 -14  18   0    6.23    7.02
  14 -18   0    8.63    7.22
  14 -18   2   10.95    9.49
 -14  18   2   11.39    6.66
 -14 -18  -2   16.21    8.34
  14 -18   2   17.71    7.39
 -14  18  -2   15.80    7.27
  14 -18  -2    4.61    7.00
  14  18   2   16.63    7.71
  14  18   2   36.69    9.57
 -14 -18   2   16.62    7.74
 -14  18   4   -0.40    6.41
  14 -18   4    2.16    9.13
 -14 -18  -4    0.87    7.96
  14 -18   4    8.98    9.58
  14 -18   4    4.82    5.39
 -14  18  -4    4.68    6.73
 -14 -18   4    1.34    7.67
  14  18   4    4.97    9.49
  14  18   4   11.07    6.26
  14 -18  -4   -4.78    6.62
 -14 -18  -6    6.30    7.77
  14 -18   6   -9.78    9.25
  14 -18   6  -19.04   11.50
  14 -18   6   14.36   10.28
 -14  18  -6  -12.66    6.35
 -14 -18   6    6.50   10.77
  14  18   6   10.17    9.35
  14  18   6    6.80    9.66
  14 -18  -6   -5.05    7.17
 -15  18   1   42.10    7.29
 -15 -18  -1   38.98    8.36
  15 -18   1   38.28    7.63
 -15 -18   1   47.23    8.37
  15  18   1   40.03    8.07
 -15  18  -1   40.83    7.55
  15 -18  -1   40.62    7.23
 -15 -18  -3   35.26    8.62
  15 -18   3   46.22    9.73
  15 -18   3   29.22    7.08
  15 -18   3   12.99    9.59
 -15  18   3   25.35    6.64
 -15  18  -3   20.07    7.26
  15  18   3   31.70    7.66
  15  18   3   44.48    9.78
  15 -18  -3   33.75    7.16
 -15 -18   3   34.58    8.07
  15 -18   5   -0.78    9.17
 -15 -18  -5   31.52    8.32
  15 -18   5   27.18   10.05
 -15  18   5   19.44    6.66
 -15  18  -5   -3.70    6.54
  15 -18  -5   16.27    7.12
 -15 -18   5   15.06    8.01
  15  18   5   28.41   10.10
  15 -18   7    2.57   11.27
  15 -18   7  -19.10    9.78
  15 -18  -7    0.74    7.46
  15  18   7   16.47   10.36
  16 -18   0    2.88    7.06
  16  18   0    4.89    7.85
 -16 -18   0   13.49    7.92
 -16  18   0    0.35    6.77
 -16 -18  -2   12.77    8.10
  16 -18   2    8.13    7.23
 -16  18   2    6.97    6.59
 -16 -18   2   11.62    7.83
  16 -18  -2    2.99    6.91
 -16  18  -2   13.18    7.20
  16  18   2   17.67    7.57
  16 -18   4    5.89    5.85
  16 -18   4   -2.58    9.41
 -16 -18  -4    7.90    8.45
  16 -18   4    9.51   10.05
 -16  18   4   -0.19    6.73
 -16 -18   4    1.37    8.18
  16 -18  -4   -2.69    6.95
  16  18   4    5.94    6.44
  16  18   4    2.40    9.61
 -16  18  -4   -0.14    6.84
  16 -18   6   -4.30    9.43
 -16 -18  -6   13.25    8.40
  16 -18   6   13.58   10.81
  16 -18  -6   -9.16    7.30
 -16  18  -6  -12.47    6.56
  16  18   6   11.27   10.13
  17  18  -1   17.75    8.24
 -17  18   1    8.77    6.89
  17 -18   1   13.59    7.38
 -17 -18  -1   15.98    8.27
  17  18   1   24.95    7.76
 -17  18  -1   12.82    7.18
  17 -18  -1   13.83    6.88
 -17 -18   1   11.70    8.09
 -17 -18  -3   27.13    8.55
  17 -18   3   19.50    7.25
 -17  18   3   19.57    6.95
  17  18   3   25.37    7.99
  17 -18  -3   27.44    7.12
 -17  18  -3   12.25    7.18
 -17 -18   3   27.03    8.47
 -17  18   5    8.59    6.89
  17 -18   5   17.65   10.37
 -17 -18  -5   13.64    8.36
  17 -18   5   -1.43    9.70
 -17 -18   5  -10.52    8.23
  17 -18  -5   -1.83    7.13
  17  18   5   19.51   10.01
 -17  18  -5  -10.42    6.69
  18 -18   0   -1.66    7.42
 -18 -18   0   13.20    8.29
  18  18   0    4.46    7.87
 -18  18   0    4.54    7.03
  18 -18   2    6.23    7.57
  18  18  -2   13.63    8.76
 -18  18   2    4.43    6.92
 -18 -18  -2   14.02    8.78
 -18 -18   2   10.85    8.16
  18  18   2   19.98    8.07
  18 -18  -2    0.16    7.07
 -18  18  -2    4.48    7.43
  18 -18   4   15.01   10.11
 -18  18   4   -1.20    6.76
 -18 -18  -4   -1.54    8.57
  18 -18   4   -5.47    9.88
  18 -18   4    1.46    6.04
 -18 -18   4   -9.02    8.48
 -18  18  -4   -3.96    6.94
  18 -18  -4   -4.52    7.14
  18  18   4   -0.26    6.88
  18  18   4   10.65    9.74
  18 -18   6   12.72   11.25
  18 -18   6   -5.30   10.11
 -18 -18  -6    9.46    8.55
  18  18  -6   18.77   11.18
  18 -18  -6  -11.13    8.03
  18  18   6   12.79   10.51
 -18  18  -6  -11.21    7.03
  19  18  -1    8.69    8.27
 -19  18   1    2.57    6.83
 -19 -18  -1    6.20    8.52
  19 -18   1    2.33    7.67
 -19 -18   1   12.06    8.51
 -19  18  -1    2.21    7.33
  19 -18  -1   -0.88    7.07
  19  18   1    8.73    8.16
  19  18  -3   12.88    9.28
 -19  18   3    7.27    6.98
 -19 -18  -3    4.53    8.83
  19 -18   3   -0.41    7.17
 -19 -18   3    2.39    8.48
  19 -18  -3   -2.77    6.94
 -19  18  -3   -6.59    7.27
  19  18   3    8.06    8.08
 -19 -18  -5   10.74    8.95
  19  18  -5   18.99   10.78
  19 -18   5    9.01   10.92
  19 -18   5  -11.03   10.15
 -19  18   5    9.26    7.37
 -19  18  -5   -5.35    7.16
  19 -18  -5    6.35    7.30
  19  18   5   24.68   10.53
 -19 -18   5  -16.55    8.79
 -20 -18   0    8.39    8.68
  20  18   0   13.19    8.25
 -20  18   0    9.60    7.33
  20 -18   0   -0.52    7.78
  20  18  -2    9.39    8.73
  20 -18   2    7.20    7.98
 -20  18   2    6.96    7.16
 -20 -18  -2   15.19    9.15
 -20 -18   2    3.29    8.75
 -20  18  -2    5.51    7.49
  20 -18  -2    1.67    7.32
  20  18   2    4.39    8.45
 -20  18   4    1.22    7.18
 -20 -18  -4    5.05    9.32
  20  18  -4   14.97    9.99
  20 -18  -4   -8.78    7.11
 -20 -18   4    7.49    9.22
 -20  18  -4   -4.16    7.38
  21  18  -1   10.61    8.57
  21 -18   1    3.39    8.14
 -21 -18  -1    0.59    9.17
 -21  18   1    2.08    7.19
 -21 -18   1    2.28    8.73
 -21  18  -1    3.84    7.63
  21  18   1   -1.58    8.43
  21 -18  -1    3.04    7.38
 -21  18   3   -0.90    7.27
  21  18  -3    1.27    9.11
 -21 -18  -3    3.17    9.39
  21 -18   3   -1.36    7.47
 -21 -18   3    1.74    9.09
 -21  18  -3    1.01    7.46
  21 -18  -3    7.30    7.26
  21  18   3    6.09    8.35
 -22  18   0    1.20    7.43
 -22 -18   0    7.65    9.20
  22  18   0   11.41    8.73
  22 -18   0    6.23    8.20
  22 -18   2   -1.70    8.45
 -22 -18  -2    9.91    9.83
  22  18  -2    9.08    8.83
 -22  18   2    2.50    7.41
 -22  18  -2   -0.73    7.96
 -22 -18   2   -6.70    9.06
  22 -18  -2    0.32    7.49
  22  18   2   15.85    9.09
 -22 -18  -4   -5.04   10.15
 -22  18   4   -4.98    7.83
  22  18  -4   15.52   10.21
  22 -18  -4   -5.70    7.58
 -22  18  -4   -4.71    7.25
 -22 -18   4  -11.06    9.72
  23  18  -1    0.33    9.14
 -23 -18  -1   -1.76    9.71
 -23  18   1   -3.88    7.49
  23 -18   1   -3.37    8.67
 -23  18  -1   -9.79    7.85
 -23 -18   1  -16.86    9.05
  23 -18  -1  -14.90    7.65
  23  18   1    3.73    9.07
 -23 -18  -3   -0.94   10.37
 -23  18   3   -5.25    7.81
  23 -18   3  -13.16    8.05
  23  18  -3    5.60    9.87
 -23  18  -3  -10.11    8.24
 -23 -18   3  -14.18    9.92
  23 -18  -3   -3.68    7.61
  23  18   3   -4.60    9.05
 -24 -18   0    5.50   10.12
  24 -18   0   -1.17    8.89
  24  18   0   12.01    9.49
 -24  18   0    7.98    8.06
  24  18  -2    5.62    9.75
  24 -18   2    4.16    9.17
 -24 -18  -2   12.95   10.65
 -24  18   2    3.41    7.98
  24 -18  -2   -3.15    8.04
  24  18   2   14.06    9.61
 -24  18  -2    6.88    8.24
   0 -19   1  231.29   17.11
   0 -19  -1  209.90   13.99
   0  19   1  212.35   14.29
   0 -19   1  204.22   13.71
   0  19   1  207.30   15.78
   0  19   1  228.88   16.77
   0  19  -1  225.40   15.16
   0 -19   1  213.96   16.41
   0  19   3  134.87   14.59
   0 -19   3  128.08   15.37
   0  19  -3  138.05   12.76
   0  19   3  136.32   13.62
   0 -19  -3  136.28   11.54
   0 -19   3  135.51   11.16
   0  19   3  128.48   11.25
   0 -19   3  139.87   13.76
   0  19   5   38.87   10.40
   0 -19   5   36.11    9.39
   0 -19   5   34.74   10.13
   0 -19  -5   34.33    7.42
   0  19  -5   31.16    7.61
   0 -19   7    4.29    9.28
   0  19   7    8.79   10.23
   0  19   7    7.72    9.45
   0 -19   7   13.59    9.43
   0  19   9  -11.90   10.81
   0 -19   9   -2.47    9.88
   0 -19   9    4.51    9.83
   0  19   9    1.44    9.44
   1 -19   0   24.96    7.10
  -1  19   0   23.69    6.27
   1 -19   0   20.26    5.63
   1  19   0   16.44    6.13
  -1  19   0   24.35    6.26
  -1 -19   0   26.14    7.04
  -1 -19   0   21.10    5.62
   1  19   0   24.96    6.72
  -1  19   2   62.54    8.80
   1  19  -2   62.06    7.60
  -1  19   2   52.07    6.44
   1 -19   2   38.66    6.35
  -1 -19  -2   50.59    6.78
   1 -19   2   31.39    8.90
   1 -19   2   51.82    8.58
  -1  19   2   69.92    8.84
   1  19   2   41.16    8.56
   1 -19  -2   51.54    6.66
   1  19   2   38.53    6.49
   1  19   2   44.33    8.44
  -1 -19   2   61.91    8.54
  -1 -19   2   75.55    9.34
  -1  19  -2   38.17    7.43
  -1 -19   2   46.38    6.39
   1 -19   4    0.22    9.56
  -1  19   4    5.37    5.22
   1 -19   4    1.49    4.95
   1  19  -4   -4.12    7.12
   1 -19   4    8.52    8.75
  -1  19   4   -1.77    8.72
  -1 -19  -4    6.96    6.82
  -1  19   4    6.85    9.39
  -1 -19   4    0.17    9.51
  -1 -19   4    0.75    8.59
  -1  19  -4    2.97    7.20
   1  19   4   12.59    9.47
  -1 -19   4    4.82    5.09
   1 -19  -4   -0.54    6.68
   1  19   4    5.63    5.20
   1  19   4   11.20    9.30
  -1 -19  -6    2.59    6.91
   1 -19   6    4.35    9.09
   1 -19   6    4.35    8.95
  -1  19   6    2.38    8.72
   1  19  -6   12.07    6.36
  -1  19   6    3.90    9.13
  -1 -19   6    6.33    8.50
   1 -19  -6   -5.48    6.70
  -1  19  -6   14.67    6.51
   1  19   6    6.97    9.67
   1  19   6    9.64    8.86
  -1 -19   6    7.29    9.26
  -1  19   8  -12.47    9.87
   1 -19   8    7.08    9.36
   1 -19   8    3.60    9.18
  -1  19   8    0.08    9.17
  -1 -19   8   10.10    9.39
   1  19   8    5.65    9.52
  -1 -19   8    8.70    8.78
   1  19   8    2.67   10.22
   2 -19   1  134.45   11.74
   2 -19   1  135.42   12.97
  -2  19   1  146.10   13.22
   2  19  -1  140.16   12.20
  -2  19   1  144.36   12.86
   2 -19   1  163.91   14.42
  -2 -19  -1  144.79   11.62
  -2  19   1  146.40   12.11
   2  19   1  136.10   12.03
  -2 -19   1  148.50   13.73
   2 -19  -1  144.32   11.49
  -2 -19   1  140.57   11.88
   2  19   1  134.39   12.21
  -2  19  -1  164.54   12.87
  -2 -19   1  141.67   12.55
   2  19   1  157.98   13.87
   2 -19   3  114.18   13.10
   2 -19   3  111.56   10.82
   2 -19   3  106.76   15.05
  -2  19   3  128.22   13.31
   2  19  -3  132.58   12.92
  -2  19   3  112.06   13.63
  -2 -19  -3  142.22   11.78
  -2  19   3  113.23   10.37
   2  19   3  108.28   13.41
  -2 -19   3  120.67   10.75
  -2  19  -3  105.84   12.24
   2  19   3  127.15   13.78
   2 -19  -3  119.31   11.26
  -2 -19   3  138.87   14.08
  -2 -19   3  126.80   14.66
   2  19   3  121.01   10.19
  -2  19   5   51.03    9.85
   2 -19   5   41.78    9.94
   2 -19   5   46.19   10.19
   2  19  -5   49.39    7.60
  -2 -19  -5   54.26    7.71
  -2  19   5   51.94   10.37
   2 -19  -5   48.28    7.39
  -2  19  -5   39.98    7.62
   2  19   5   47.26   11.12
  -2 -19   5   43.85    9.28
  -2 -19   5   60.17   10.53
   2  19   5   33.24    9.96
  -2  19   7   21.72    8.54
  -2  19   7   12.94   10.02
   2 -19   7    0.42    9.17
   2 -19   7    2.10    9.79
   2  19   7    9.02    9.57
   2  19   7   -6.35   10.53
  -2 -19   7   16.15    9.46
  -2 -19   7   13.67    8.86
  -2  19   9    2.24    9.96
   2 -19   9    8.46    9.98
  -2  19   9   -4.41   10.29
   2 -19   9   -0.09   10.63
  -2 -19   9    7.22    9.45
   2  19   9    4.91   10.17
   2  19   9  -10.26   11.29
  -2 -19   9    1.82   10.18
   3 -19   0   52.32    6.49
   3  19   0   62.30    8.01
  -3 -19   0   50.34    6.68
  -3 -19   0   65.39    8.13
  -3  19   0   53.31    7.07
   3 -19   0   58.26    6.98
  -3  19   0   62.34    8.20
   3 -19   0   63.45    8.31
   3  19   0   52.60    6.97
  -3  19   2   10.29    5.96
   3 -19   2    9.77    5.79
   3  19  -2   10.22    6.98
  -3  19   2   12.32    7.55
   3 -19   2   17.20    7.69
  -3 -19  -2   14.46    6.35
   3 -19   2    8.82    7.80
  -3  19   2   11.97    7.39
   3 -19   2   15.70    8.27
   3  19   2   18.87    7.91
   3  19   2    8.26    5.85
  -3 -19   2   21.93    7.72
  -3 -19   2   10.64    8.08
   3 -19  -2   11.35    6.04
  -3 -19   2    7.96    5.97
   3  19   2   14.34    7.90
  -3  19  -2   14.06    6.95
  -3  19   4    4.35    9.02
  -3 -19  -4   12.56    7.12
  -3  19   4   14.66    9.13
   3 -19   4   14.03    9.29
   3 -19   4   11.60    4.85
   3 -19   4    8.92    9.08
  -3  19   4    9.43    5.65
   3 -19   4   14.71    9.68
   3  19  -4    6.45    7.22
   3 -19  -4   15.03    6.87
   3  19   4   17.33    9.31
  -3 -19   4    7.78    5.50
  -3  19  -4   16.48    7.25
   3  19   4   17.99    5.11
  -3 -19   4    6.28    8.21
   3  19   4   22.08    9.16
  -3 -19   4    3.81    9.54
  -3 -19  -6    7.49    6.93
   3 -19   6    3.55    9.64
  -3  19   6    3.57    9.27
  -3  19   6    1.33    8.32
   3 -19   6    6.66    8.74
   3  19  -6   18.83    6.50
  -3  19  -6    4.05    6.35
   3  19   6   -2.56   10.03
  -3 -19   6    4.02    9.20
   3  19   6    4.64    8.48
  -3 -19   6    9.98    8.42
   3 -19  -6   -0.12    6.44
   3 -19   8    4.15   10.28
  -3  19   8    0.12    9.22
   3 -19   8    4.41    9.42
  -3  19   8  -11.30    9.63
   3  19   8    7.06   11.00
  -3 -19   8   -1.38    9.46
  -3 -19   8    9.80    7.58
   3  19   8    4.62    9.53
  -4 -19  -1  184.90   13.49
   4  19  -1  187.53   14.29
  -4  19   1  169.21   13.52
   4 -19   1  185.89   12.95
   4 -19   1  197.38   13.24
   4 -19   1  184.20   14.87
  -4  19   1  173.06   15.09
   4 -19   1  207.73   16.28
  -4 -19   1  169.23   12.99
   4 -19  -1  171.60   11.70
  -4 -19   1  174.33   14.48
  -4  19  -1  179.98   13.94
  -4 -19   1  182.58   15.37
   4  19   1  194.10   14.82
   4  19   1  201.72   15.57
   4 -19  -1  179.21   12.88
   4  19   1  166.57   13.49
   4 -19   3  135.17   14.22
   4 -19   3  128.57   13.06
   4 -19   3  102.76   15.77
   4 -19   3  122.00   11.31
   4  19  -3  143.14   13.02
  -4 -19  -3  139.73   12.03
  -4  19   3  130.82   11.19
  -4  19   3  166.77   14.60
  -4  19   3  131.68   14.19
   4 -19  -3  147.57   11.77
  -4 -19   3  151.18   13.97
  -4  19  -3  137.07   12.89
  -4 -19   3  144.91   14.59
   4  19   3  127.82   13.97
   4  19   3  123.54   10.68
   4  19   3  101.71   13.71
  -4 -19   3  143.30   11.78
   4 -19   5   77.78   11.04
  -4  19   5   99.04   13.50
  -4 -19  -5   93.45   11.08
   4  19  -5   95.32   11.25
  -4  19   5   87.13   11.39
  -4 -19   5   83.69   12.34
   4 -19  -5  106.30   10.55
  -4 -19   5   94.35   12.59
   4 -19   7    0.41    8.88
  -4  19   7   19.37    9.42
   4 -19   7    2.13   10.35
  -4  19   7    6.17    9.98
   4  19   7   -1.34    9.43
   4  19   7   -5.31   10.75
  -4 -19   7   21.81    9.70
  -4 -19   7   18.41    8.83
   4 -19  -7    3.37    6.62
  -4  19   9    4.44   10.61
  -4  19   9   -4.98   10.48
   4 -19   9  -13.67   10.81
   4 -19   9    4.13   10.12
  -4 -19   9    4.12   10.58
   4  19   9    1.79   11.14
   4  19   9    9.21   10.12
  -4 -19   9   18.01    8.25
  -5 -19   0   65.74    8.40
   5 -19   0   65.72    8.72
  -5 -19   0   55.77    6.89
   5 -19   0   58.38    6.87
  -5  19   0   58.21    7.13
   5  19   0   67.55    8.36
   5 -19   0   64.51    7.43
   5  19   0   53.88    7.22
  -5  19   2   17.75    7.95
  -5  19   2   13.52    6.14
   5 -19   2   21.17    6.21
   5 -19   2   23.36    8.07
  -5 -19  -2   23.65    6.80
   5 -19   2   27.24    8.80
   5  19  -2   18.73    7.40
  -5  19   2   14.56    7.81
   5 -19   2   20.46    8.28
   5  19   2   20.21    8.24
  -5 -19   2   24.79    7.93
   5 -19  -2   20.17    5.35
   5  19   2   20.54    8.23
  -5  19  -2   28.29    7.16
   5  19   2   18.02    6.48
  -5 -19   2   17.43    6.22
  -5 -19   2   22.95    8.73
   5 -19  -2   18.87    6.31
   5 -19   4   23.78    9.65
   5 -19   4   14.15    4.91
  -5  19   4   18.56    9.21
  -5 -19  -4    8.72    7.40
   5 -19   4    4.17    8.96
   5  19  -4   16.04    7.54
  -5  19   4   19.27    9.54
  -5  19   4   13.18    5.95
   5 -19   4   11.99    9.62
  -5 -19   4   20.12    9.89
   5  19   4    4.92    9.56
   5  19   4    8.98    8.98
  -5  19  -4   13.14    7.11
  -5 -19   4   21.11    8.59
  -5 -19   4   17.22    6.08
   5 -19  -4   17.08    7.07
   5  19  -6   12.32    6.16
  -5 -19  -6   11.12    7.02
   5 -19   6   10.88    9.59
   5 -19   6    7.23    9.71
  -5  19   6    3.35    8.74
   5 -19   6   12.36    8.98
  -5  19   6    2.18    9.15
  -5 -19   6    8.91    8.43
   5  19   6    8.07    9.01
   5  19   6   -3.24    9.61
  -5 -19   6   -1.63    9.44
   5 -19  -6    2.76    6.72
  -5  19  -6    8.70    6.33
   5 -19   8   -3.12    9.12
  -5  19   8    2.43    9.71
   5 -19   8   -8.02   10.41
  -5  19   8  -13.08    9.68
   5  19   8   -3.30    9.39
  -5 -19   8    6.70   10.06
   5  19   8   11.86   10.52
  -5 -19   8    7.94    8.82
   6  19  -1   92.17    8.81
  -6  19   1   99.28   11.87
   6 -19   1   98.75   11.15
   6 -19   1   87.30   10.76
   6 -19   1   93.34   12.03
  -6  19   1   92.01   10.81
  -6 -19  -1   92.76    8.44
   6 -19   1  105.58   13.51
   6 -19  -1  102.01   10.74
  -6 -19   1  102.34   12.24
   6  19   1   99.65   11.69
   6 -19  -1   91.50    9.56
   6  19   1  114.01   12.88
   6  19   1   95.63   11.30
  -6 -19   1   92.51   11.59
  -6  19  -1   97.25   11.97
   6 -19   3  139.72   14.23
  -6  19   3  152.58   12.05
  -6  19   3  124.10   14.68
   6 -19   3  152.10   13.39
   6  19  -3  153.86   13.34
  -6 -19  -3  150.98   12.68
   6 -19   3  107.80   15.04
  -6  19   3  153.71   14.61
   6 -19   3  140.17   11.74
   6 -19  -3  131.57    9.54
   6  19   3  140.28   14.28
  -6  19  -3  161.60   12.71
  -6 -19   3  158.67   14.60
   6  19   3  150.88   10.96
  -6 -19   3  157.22   15.38
   6 -19  -3  160.53   12.51
  -6 -19   3  149.73   12.20
   6  19   3  153.93   14.59
   6 -19   5   41.17   10.06
   6  19  -5   65.27    7.70
  -6  19   5   67.04   10.31
   6 -19   5   87.62   10.56
  -6  19   5   84.79   12.57
   6 -19   5   32.11    9.66
  -6 -19   5   52.18   10.57
  -6 -19   5   79.82   11.94
   6  19   5   27.63    9.45
   6  19   5   44.40   10.70
  -6  19  -5   51.39    7.44
  -6 -19   5   50.40    6.36
   6 -19  -5   83.47   10.02
   6  19  -7   39.94    7.33
   6 -19   7   -2.56    8.89
   6 -19   7   -2.65   10.73
  -6  19   7   23.96   10.19
  -6  19   7   21.20    9.40
   6 -19   7   18.22   10.08
  -6 -19   7   17.94    8.89
   6  19   7   -4.65    9.27
   6  19   7   13.06   10.80
   6 -19  -7    9.90    6.90
  -6 -19   7   16.12   10.25
   6  19   9   -2.53   10.08
  -6 -19   9   11.33    9.75
   7 -19   0   43.31    8.32
   7  19   0   39.66    7.27
   7  19   0   45.24    7.98
  -7 -19   0   30.44    6.92
   7 -19   0   38.00    7.57
  -7  19   0   42.49    7.00
   7 -19   0   39.14    6.60
  -7  19   2   46.70    8.94
   7 -19   2   46.71    8.87
   7 -19   2   46.63    7.01
   7 -19   2   44.81    9.19
  -7 -19  -2   40.41    7.61
  -7  19   2   39.55    6.85
   7 -19   2   43.92    9.15
   7  19  -2   46.53    8.19
  -7  19   2   54.17    9.20
   7  19   2   47.68    9.43
   7 -19  -2   47.54    7.13
  -7  19  -2   38.56    7.35
   7  19   2   53.79    8.78
   7 -19  -2   48.20    6.42
  -7 -19   2   52.12    8.86
   7  19   2   46.31    7.18
  -7 -19   2   55.59    9.48
  -7 -19   2   45.22    7.17
  -7  19   4    6.53    9.59
  -7  19   4    4.33    6.06
   7 -19   4   10.64    9.22
   7 -19   4    6.91    9.39
  -7  19   4    6.04    9.05
  -7 -19  -4   10.48    7.44
   7  19  -4    9.37    8.01
   7 -19   4    9.72    9.30
   7 -19   4    9.43    5.07
  -7 -19   4   16.47    8.42
   7  19   4    6.90    8.83
  -7 -19   4    0.31    9.57
  -7 -19   4    9.33    6.67
   7  19   4    9.69    5.82
   7 -19  -4   15.24    7.16
  -7  19  -4    7.17    6.87
   7  19   4    6.36    9.51
  -7 -19  -6   11.98    7.14
   7 -19   6    5.98   10.12
  -7  19   6    3.09    9.17
  -7  19   6    3.71    9.08
   7 -19   6    7.11    9.82
   7 -19   6    6.04    8.49
   7  19  -6   16.56    7.57
  -7 -19   6   15.65    7.63
   7 -19  -6    2.74    6.74
   7  19   6   -1.85    9.81
  -7 -19   6   13.15    9.49
   7  19   6    2.15    8.80
  -7  19  -6    0.68    6.33
  -7  19   8   -4.41   10.10
   7 -19   8   -6.17   10.91
   7 -19   8   -0.54    9.10
  -7  19   8   -6.35   10.00
   7  19   8    2.78    9.42
  -7 -19   8   12.14    7.65
  -7 -19   8    0.19   10.52
   7  19   8   13.55   11.06
   8  19  -1   96.40    9.46
  -8  19   1  111.21   12.01
  -8  19   1   97.21   12.76
   8 -19   1  103.13   12.39
  -8 -19  -1   93.37    9.10
   8 -19   1  108.08   14.04
   8 -19   1   98.25   11.78
   8 -19   1  116.76   11.69
  -8 -19   1   91.99    8.67
  -8  19  -1  122.49   12.03
   8  19   1  114.26   11.81
  -8 -19   1   97.47   12.18
   8  19   1  101.01   12.26
   8 -19  -1  108.08   11.43
   8 -19  -1   95.83   10.39
   8  19   1   99.13   12.80
  -8  19   3  122.40   13.69
   8 -19   3  101.62   14.60
   8 -19   3  105.09   12.70
   8 -19   3   94.61   13.31
   8  19  -3  128.32   13.88
  -8  19   3  117.75   11.31
   8 -19   3  108.45   11.25
  -8  19   3  124.03   14.42
  -8 -19  -3  117.24   12.25
   8  19   3  107.49   13.64
  -8 -19   3  119.22   11.91
   8 -19  -3  128.76   11.99
  -8 -19   3  132.07   13.51
   8  19   3  102.15   13.11
  -8 -19   3  134.81   14.13
  -8  19  -3  112.89   12.06
   8 -19  -3  109.89    8.87
  -8  19   5   76.49   10.40
  -8 -19  -5   62.10    8.27
   8 -19   5   70.59   10.46
  -8  19   5   76.09   10.67
   8  19  -5   72.95    8.86
  -8  19   5   71.07    8.49
  -8 -19   5   66.03   10.84
  -8 -19   5   55.12    7.17
   8 -19  -5   53.90    7.64
  -8 -19   5   85.92   11.76
   8  19   5   40.19   10.71
  -8  19   7   18.20   10.24
   8 -19   7  -10.87    8.59
   8 -19   7   -6.64   11.08
   8  19  -7   27.96    7.97
  -8  19   7   14.58    9.61
   8 -19   7   12.40   10.45
   8  19   7   12.52   10.66
  -8 -19   7   10.16   10.61
   8 -19  -7    3.90    6.73
  -8 -19   7   20.58    8.86
   8  19   7    0.01    9.01
   9  19   0   19.43    7.77
  -9 -19   0    5.52    6.97
   9 -19   0    5.73    7.85
   9 -19   0    1.36    7.67
  -9  19   0   18.16    6.59
   9 -19   0   13.93    6.44
   9  19   0    8.80    7.31
   9  19  -2   18.23    8.22
  -9  19   2   20.37    8.84
  -9  19   2   17.85    8.46
  -9  19   2   20.26    6.59
   9 -19   2   20.05    8.76
   9 -19   2   24.79    9.09
  -9 -19  -2   22.58    7.63
   9 -19   2   22.45    6.82
   9 -19   2   20.51    8.92
   9  19   2   24.49    8.82
   9  19   2   25.57    8.55
   9 -19  -2   25.22    6.88
  -9 -19   2   17.24    6.98
   9 -19  -2   25.92    6.68
  -9  19  -2   27.79    7.24
  -9 -19   2   21.37    9.11
  -9 -19   2   33.81    8.41
   9 -19   4   40.87    9.65
   9 -19   4   25.23    5.50
   9 -19   4   14.83    9.71
  -9  19   4   28.03    9.30
   9  19  -4   23.72    8.75
  -9  19   4   18.17    6.34
  -9  19   4   21.97   10.05
  -9 -19  -4   34.81    7.98
   9 -19   4   11.38    9.37
  -9 -19   4   22.87   10.32
  -9 -19   4   33.28    8.51
  -9  19  -4   21.70    7.07
   9  19   4   32.06    6.01
   9  19   4   19.17    9.93
   9 -19  -4   14.21    7.03
   9  19   4   26.40    9.13
  -9 -19   4   24.95    7.19
   9 -19   6   -2.71   10.88
  -9 -19  -6   23.91    7.35
   9 -19   6    6.14    8.90
   9 -19   6   21.52    9.93
  -9  19   6   -0.57    8.79
   9  19  -6   12.73    8.07
   9  19   6    4.02    9.14
  -9 -19   6   -2.30   10.26
  -9  19  -6   -7.25    6.24
  -9 -19   6   11.95    7.56
   9  19   6    2.27   10.09
   9 -19  -6   -4.24    6.91
   9 -19   8   -1.15   11.65
   9 -19   8   -8.01   11.91
  -9  19   8   -4.56    9.88
   9 -19   8   -0.69    9.00
  -9 -19   8    2.60   10.63
   9  19   8   11.08    9.73
   9  19   8   12.67   11.06
 -10 -19  -1   66.72    8.64
  10 -19   1   72.97    8.04
  10 -19   1   77.12   10.38
  10  19  -1   78.51    9.13
  10 -19   1   68.08   10.16
  10 -19   1   82.93    9.66
 -10  19   1   70.92    7.80
 -10  19   1   66.34    9.60
  10  19   1   94.69   11.06
  10  19   1   83.73   12.72
 -10 -19   1   75.37    8.47
 -10  19  -1   71.80    8.22
  10 -19  -1   70.41    7.94
 -10 -19   1   79.57   11.56
  10 -19  -1   80.21    8.62
  10  19   1   77.84   12.15
  10 -19   3   61.22   11.18
 -10  19   3   84.55   12.85
  10  19  -3  101.70   10.03
  10 -19   3   76.10    7.96
 -10 -19  -3  105.74   12.27
  10 -19   3   53.76   10.86
 -10  19   3   91.62   10.77
  10 -19   3   90.54   10.41
  10 -19  -3   93.46   11.03
 -10 -19   3   91.51   13.55
 -10  19  -3   68.71    8.54
  10 -19  -3   88.65    8.59
  10  19   3   87.90   12.14
 -10 -19   3  115.91   12.04
  10  19   3   93.74   12.70
 -10  19   5   46.80    6.27
  10 -19   5    5.46   10.68
  10 -19   5   49.13    9.87
  10  19  -5   46.49    8.73
 -10  19   5   45.29    9.45
 -10 -19  -5   41.05    7.94
  10  19   5   27.31    8.71
 -10 -19   5   34.38    7.05
  10  19   5   23.35   10.03
  10 -19  -5   26.93    7.33
 -10  19  -5   14.84    6.63
 -10 -19   5   43.90   10.17
  10 -19   7  -18.46   11.36
  10  19  -7   14.62    8.46
  10 -19   7  -13.82    8.70
  10 -19   7   11.74   10.37
 -10  19   7   10.24    9.58
  10 -19  -7    1.44    7.06
  10  19   7   12.03   10.66
  10  19   7    6.71    9.75
 -10 -19   7   11.63   10.48
  11 -19   0   30.09    8.93
 -11 -19   0   22.57    7.79
  11  19   0   41.52    7.77
  11 -19   0   38.13    8.53
  11  19   0   32.20    8.63
 -11  19   0   27.65    7.15
  11 -19   0   32.21    7.09
 -11 -19  -2    2.32    7.83
  11 -19   2    9.33    7.21
 -11  19   2   -6.16    8.77
  11 -19   2    3.68    8.82
  11  19  -2   10.18    8.36
  11 -19   2   11.44    9.04
  11 -19   2   -4.01    8.55
 -11  19   2    0.61    6.66
  11  19   2    7.38    9.00
  11 -19  -2    4.72    7.03
 -11  19  -2    3.30    7.19
 -11 -19   2    4.95    9.20
  11  19   2    0.93    8.80
  11 -19  -2    3.24    6.98
 -11 -19   2    1.67    7.28
 -11  19   4    7.46    6.23
  11 -19   4    6.12    9.26
 -11 -19  -4   20.37    7.90
 -11  19   4    9.90    8.55
  11 -19   4   16.67    5.26
  11  19  -4   13.46    8.57
  11 -19   4    2.16    9.00
  11 -19   4   13.12    9.25
 -11 -19   4    2.68    7.13
  11  19   4    6.91    5.99
  11  19   4   15.79    8.61
  11 -19  -4   10.27    5.15
 -11 -19   4    9.33    9.51
 -11  19  -4   10.02    6.77
  11 -19  -4    6.59    7.01
  11  19   4    9.77    9.31
  11 -19   6   -4.95   11.31
  11 -19   6   13.43   10.03
  11  19  -6   -5.66    8.44
 -11 -19  -6   21.50    7.69
 -11  19   6   -3.22    9.46
  11 -19   6   -5.59    8.88
  11  19   6    8.40    9.30
  11 -19  -6    1.20    7.04
 -11 -19   6    0.91   10.52
  11  19   6   15.74    9.94
 -11  19  -6  -14.87    6.16
  11 -19   8  -14.59   11.92
 -11  19   8   -3.65   10.12
  11 -19   8    6.75   11.71
  11 -19   8   -0.24    9.65
 -11 -19   8   -3.10   11.29
  11  19   8    7.78   10.15
  11  19   8   10.89   10.55
  12 -19   1   91.57   10.44
 -12 -19  -1   79.63    9.45
  12 -19   1   83.71   10.99
  12  19  -1  130.52   13.27
  12 -19   1   86.85    8.61
 -12  19   1   85.40    8.43
  12 -19  -1   86.94    8.55
  12 -19  -1   96.25   10.42
  12  19   1   98.04   13.10
 -12  19  -1   76.35    8.77
 -12 -19   1   92.26    9.01
  12  19  -3   48.80    8.86
 -12  19   3   32.85    8.75
 -12  19   3   36.34    6.97
  12 -19   3   28.21    9.91
  12 -19   3   37.27    7.09
  12 -19   3   46.38    9.58
  12 -19   3   35.10    9.95
 -12 -19  -3   44.41    8.50
  12 -19  -3   38.91    7.36
  12  19   3   37.30    7.53
  12 -19  -3   41.22    6.77
  12  19   3   40.94    9.93
 -12  19  -3   30.63    7.39
  12  19   3   38.92    9.35
 -12 -19   3   47.78   10.34
 -12 -19   3   43.24    7.98
 -12  19   5   29.40    6.44
 -12 -19  -5   33.87    8.14
 -12  19   5   30.76    9.67
  12  19  -5   34.29    8.83
  12 -19   5   32.07    9.96
  12  19   5   24.63    8.65
  12  19   5   24.89    9.84
  12 -19  -5   22.19    7.28
 -12  19  -5    9.16    6.61
 -12 -19   5   17.53    7.50
 -12 -19   5   30.42   10.06
 -12  19   7   -3.91   10.00
  12 -19   7  -22.64   11.66
  12 -19   7    6.01   10.74
  12 -19   7   -4.30    8.92
  12  19   7   18.68   10.06
 -12 -19   7   16.46   11.05
  12 -19  -7  -11.02    7.08
  12  19   7    5.08    9.50
  13 -19   0   14.41    7.24
 -13  19   0   10.12    7.10
 -13 -19   0   13.13    7.86
  13 -19   2   20.22    9.79
  13 -19   2   20.88    9.44
  13 -19   2   27.32    7.36
 -13  19   2   22.45    6.76
 -13 -19  -2   27.22    8.32
 -13  19  -2   24.51    7.34
  13  19   2   13.27    7.85
  13  19   2   24.68    9.53
 -13 -19   2   20.39    7.78
  13 -19  -2   21.76    7.04
  13 -19   4   14.30    9.64
  13  19  -4    0.22    8.52
  13 -19   4    6.99    9.35
 -13  19   4    5.49    6.31
 -13 -19  -4    8.16    7.92
  13 -19   4   13.75    5.60
  13 -19   4    2.54    9.38
 -13 -19   4   -6.95    9.38
 -13 -19   4    9.79    7.71
  13 -19  -4   10.81    5.54
 -13  19  -4    5.32    6.71
  13  19   4    7.39    9.51
  13 -19  -4   -4.27    6.86
  13  19   4   12.35    6.33
 -13  19   6   -5.69    9.62
  13 -19   6  -11.69   11.52
  13 -19   6   -4.86    9.22
  13 -19   6   15.59   10.11
 -13 -19  -6   10.73    7.84
  13  19   6   11.28    9.22
  13 -19  -6    1.78    7.13
  13  19   6    3.46    9.90
 -13 -19   6    3.55   10.72
 -13  19  -6  -12.82    6.36
 -14 -19  -1   26.99    8.32
  14 -19   1   20.99    7.34
 -14  19   1   27.97    7.01
  14 -19  -1   24.63    7.51
 -14  19  -1   20.95    7.28
 -14 -19   1   29.85    7.99
  14 -19   3   28.20    6.89
  14 -19   3   30.94    9.47
 -14 -19  -3   34.88    8.38
  14 -19   3   16.89    9.84
 -14  19   3   24.04    6.79
  14 -19  -3   25.97    7.27
 -14 -19   3   29.84    7.93
 -14  19  -3   16.61    7.10
  14  19   3   38.53    9.84
  14  19   3   30.14    7.50
 -14  19   5   23.00    6.61
 -14 -19  -5   32.74    8.25
  14 -19   5   25.75   10.06
  14 -19   5   -2.58    9.70
  14 -19  -5   21.19    7.10
  14  19   5   40.87   10.19
 -14  19  -5    1.60    6.68
 -14 -19   5   29.86    8.06
  14 -19   7   14.62   11.17
  14 -19   7  -18.33    9.41
  14 -19  -7   -4.61    7.41
  14  19   7   20.25   10.27
 -15  19   0   13.69    7.00
 -15 -19   0   10.13    7.89
  15 -19   0   15.53    7.18
  15 -19   2   11.97    9.75
  15 -19   2   22.02    7.47
 -15 -19  -2   11.99    8.38
 -15  19   2   11.70    6.68
 -15 -19   2   23.67    7.98
 -15  19  -2   13.42    7.25
  15  19   2   22.09    7.56
  15  19   2   31.37    9.31
  15 -19  -2    7.11    6.87
  15 -19   4   18.21    9.61
  15 -19   4   11.14    5.81
 -15 -19  -4   13.25    8.39
 -15  19   4   -0.16    6.68
  15 -19   4    4.51    9.53
  15  19   4   14.44    9.89
 -15 -19   4    6.64    7.89
  15  19   4    9.78    6.57
  15 -19  -4   -3.21    6.91
 -15  19  -4    7.00    6.81
  15 -19   6    6.74   10.43
  15 -19   6   -3.22    9.68
 -15 -19  -6   12.14    8.23
 -15  19  -6  -12.40    6.47
  15 -19  -6   -9.08    7.07
  15  19   6   20.40   10.23
 -16  19   1   12.03    6.82
  16 -19   1   22.03    7.40
 -16 -19  -1   32.91    8.39
  16  19   1   20.05    7.96
 -16 -19   1   19.13    7.86
 -16  19  -1   18.75    7.19
  16 -19  -1   16.92    7.18
  16 -19   3   15.53    7.19
 -16  19   3   15.48    6.64
  16 -19   3    7.27    9.73
  16 -19   3   22.53    9.61
 -16 -19  -3   23.95    8.64
 -16  19  -3    7.09    7.13
  16 -19  -3   10.28    7.15
  16  19   3   22.12    7.77
 -16 -19   3   24.40    8.15
  16  19   3   28.36    9.74
  16 -19   5   22.34   10.11
  16 -19   5   -6.76    9.35
 -16 -19  -5   27.15    8.72
 -16  19   5    9.44    6.77
 -16 -19   5    4.79    8.19
 -16  19  -5   -7.43    6.63
  16 -19  -5    3.59    6.98
  16  19   5   20.46   10.07
  16 -19   7   -7.01   10.54
  16  19   7   24.84   10.87
 -17 -19   0   18.66    8.23
 -17  19   0    9.50    7.01
  17 -19   0    6.50    7.28
  17  19   0   14.44    8.02
 -17  19   2   10.47    6.80
  17 -19   2   17.16    7.66
 -17 -19  -2   14.49    8.48
  17  19   2   27.79    8.20
 -17  19  -2   11.17    7.35
  17 -19  -2    5.34    7.06
 -17 -19   2   12.27    8.22
  17 -19   4   11.03    6.07
  17 -19   4   11.15   10.03
 -17 -19  -4   11.32    8.59
  17 -19   4   -7.42    9.68
 -17  19   4   -0.88    6.82
  17 -19  -4   -8.03    6.99
 -17  19  -4    2.67    7.01
 -17 -19   4   -3.21    8.36
  17  19   4   -4.12    6.75
  17  19   4   21.18    9.99
 -17 -19  -6   11.42    8.62
  17 -19   6    9.90   10.97
  17 -19   6    1.65   10.08
  17 -19  -6   -0.91    7.02
  17  19   6   11.32   10.46
 -17  19  -6   -9.43    6.87
  18 -19   1    9.73    7.64
 -18 -19  -1   13.72    8.61
  18  19  -1    1.05    8.31
 -18  19   1    1.09    6.86
  18  19   1   11.73    7.93
 -18 -19   1    4.20    8.20
 -18  19  -1    5.30    7.32
  18 -19  -1    4.21    7.12
 -18 -19  -3   -2.09    8.69
 -18  19   3    6.89    6.90
  18 -19   3    1.88    7.25
 -18  19  -3    1.62    7.20
  18 -19  -3    7.71    7.14
  18  19   3   13.31    8.05
 -18 -19   3   10.86    8.41
 -18 -19  -5   17.89    8.65
 -18  19   5    7.81    7.08
  18 -19   5   14.88   10.39
  18 -19   5   -4.06    9.83
  18 -19  -5    3.32    7.50
 -18  19  -5   -7.95    6.97
  18  19   5   26.06   10.34
 -18 -19   5  -12.38    8.65
  19  19   0    9.47    8.14
 -19 -19   0    9.09    8.89
  19 -19   0    5.18    7.54
 -19  19   0    1.92    7.12
  19 -19   2   12.83    7.82
 -19 -19  -2   19.14    9.08
  19  19  -2    7.68    8.77
 -19  19   2   -1.04    6.92
 -19  19  -2   -1.41    7.32
  19 -19  -2    3.25    7.27
 -19 -19   2   -1.33    8.51
  19  19   2    7.12    8.34
  19 -19   4   10.63   10.17
  19  19  -4   11.51   10.16
 -19  19   4   -3.75    7.13
 -19 -19  -4    9.03    8.96
 -19  19  -4   -0.50    7.28
 -19 -19   4    1.59    8.97
  19 -19  -4   -3.91    7.07
  20  19  -1    8.17    8.38
 -20  19   1   -1.44    7.23
  20 -19   1   12.38    8.02
 -20 -19  -1    8.75    9.02
  20 -19  -1   -3.44    7.29
  20  19   1    8.87    8.46
 -20 -19   1    0.99    8.81
 -20  19  -1   -1.76    7.32
  20 -19   3    0.87    7.53
 -20 -19  -3    5.34    9.29
 -20  19   3    4.60    7.16
  20  19  -3   15.00    9.45
  20  19   3    6.26    8.28
 -20 -19   3   -1.71    8.82
 -20  19  -3   -2.82    7.20
  20 -19  -3    3.04    7.26
 -20 -19  -5    3.85    9.44
  20  19  -5   13.02   11.01
 -20  19   5   -8.06    7.60
  20 -19   5    3.26   11.08
  20 -19  -5   -1.63    8.08
 -20 -19   5  -13.34    9.35
 -20  19  -5  -12.55    7.35
  21  19   0    5.06    8.65
  21 -19   0    0.09    7.81
 -21  19   0    0.92    7.41
 -21 -19   0   -1.58    9.03
 -21 -19  -2   10.40    9.60
 -21  19   2    0.54    7.27
  21 -19   2    6.19    8.18
  21  19  -2   10.91    8.93
  21  19   2   12.60    8.85
  21 -19  -2    1.41    7.50
 -21 -19   2    7.10    8.97
 -21  19  -2   -1.99    7.71
  21  19  -4   15.59   10.39
  21 -19   4    7.84   10.63
 -21 -19  -4    7.08    9.80
 -21  19   4   -5.68    7.43
  21 -19  -4   -1.16    7.78
 -21 -19   4   -2.79    9.64
 -21  19  -4   -3.14    7.90
 -22  19   1   -7.70    7.26
  22 -19   1   -4.20    8.37
 -22 -19  -1  -10.12    9.40
  22  19  -1    7.96    8.93
 -22  19  -1   -4.08    7.59
 -22 -19   1   -2.51    9.20
  22  19   1    8.54    8.95
  22 -19  -1   -3.40    7.62
 -22 -19  -3   -2.86   10.14
  22 -19   3   -4.75    7.91
 -22  19   3   -0.65    7.61
  22  19  -3    9.09    9.83
  22  19   3    0.67    8.78
 -22 -19   3  -21.29    9.43
 -22  19  -3   -0.87    8.13
  22 -19  -3   -6.81    7.58
 -23 -19   0    0.33    9.69
 -23  19   0   -5.52    7.76
  23 -19   0    1.63    8.35
  23  19   0   11.83    9.20
 -23 -19  -2    7.41   10.27
  23 -19   2    8.87    8.89
 -23  19   2    5.58    7.83
  23  19  -2   10.24    9.75
 -23 -19   2   -2.82    9.67
 -23  19  -2    3.66    8.06
  23 -19  -2    0.98    7.81
  23  19   2   20.42    9.68
 -24 -19  -1   -4.41   10.17
  24  19  -1    4.71    9.59
 -24  19   1   -3.97    7.93
  24 -19   1   -7.72    9.15
 -24  19  -1   -7.35    8.05
  24  19   1    3.93    9.67
  24 -19  -1  -10.44    8.14
 -24 -19   1   -1.66    9.80
   0  20   0   51.86    7.13
   0 -20   0   55.98    6.81
   0 -20   0   66.45    8.33
   0  20   0   57.99    8.92
   0  20  -2   49.30    8.09
   0 -20   2   57.25    6.88
   0  20   2   52.63    8.90
   0  20   2   45.82    6.86
   0 -20   2   68.27    9.28
   0 -20  -2   55.56    7.25
   0  20   2   60.05    9.27
   0 -20   2   60.69    9.66
   0  20   4    6.96    9.03
   0  20   4   17.62    9.54
   0 -20  -4   10.18    7.34
   0  20  -4   15.61    7.65
   0 -20   4   11.42    5.50
   0 -20   4   12.65    8.80
   0  20   4   17.40    5.46
   0 -20   4   12.14    9.90
   0 -20   6    6.18    9.17
   0  20   6   -1.00    9.83
   0 -20  -6    2.44    6.88
   0  20  -6   10.10    6.71
   0 -20   6    8.47    9.25
   0  20   6    4.54    8.55
   0 -20   8    8.03    9.49
   0 -20   8    4.50    9.51
   0  20   8   -4.14   10.49
   0  20   8    6.81    9.51
  -1 -20  -1  256.36   16.09
  -1  20   1  263.50   18.94
  -1  20   1  250.57   18.66
  -1  20   1  252.54   16.13
   1  20  -1  285.79   16.78
   1 -20   1  265.21   19.12
   1 -20   1  303.41   19.97
   1 -20   1  261.40   16.15
   1  20   1  255.52   16.36
   1  20   1  269.50   19.04
   1  20   1  285.83   19.60
  -1 -20   1  261.49   16.37
  -1 -20   1  251.73   18.94
  -1 -20   1  266.78   19.33
   1 -20  -1  254.32   16.37
  -1  20  -1  285.02   17.17
  -1 -20  -3  147.30   12.43
   1  20  -3  167.03   13.63
   1 -20   3  163.29   15.33
   1 -20   3  106.57   15.69
  -1  20   3  146.03   14.91
   1 -20   3  123.93   11.75
  -1  20   3  144.01   11.83
  -1  20   3  171.24   14.92
  -1 -20   3  153.99   11.96
  -1 -20   3  171.58   14.45
   1 -20  -3  162.52   12.43
  -1 -20   3  170.80   16.27
   1  20   3  131.05   14.45
   1  20   3  133.57   11.89
   1  20   3  112.50   14.93
  -1  20  -3  155.14   14.13
   1  20  -5   44.17    7.46
  -1  20   5   48.59   10.07
   1 -20   5   14.70   10.28
   1 -20   5   20.28    9.33
  -1  20   5   48.65   10.89
  -1 -20  -5   36.67    7.60
  -1 -20   5   36.82    9.46
  -1  20  -5   22.06    7.54
   1  20   5   30.80   10.76
  -1 -20   5   41.91   10.64
   1  20   5   25.08    9.80
   1 -20  -5   43.29    7.45
   1 -20   7    3.92    9.46
  -1  20   7    2.67   10.27
   1 -20   7   11.10    9.38
  -1  20   7   17.08    9.71
   1  20   7   15.16    8.86
  -1 -20   7   16.53    9.64
   1  20   7    5.15   10.50
  -1 -20   7    9.43    9.15
  -1  20   9   -7.78   10.87
   1 -20   9   -0.34   10.60
   1 -20   9   -8.89   10.22
  -1  20   9    4.73   10.10
   1  20   9   -1.30   11.37
   1  20   9    0.18    9.94
  -1 -20   9    3.21   10.54
  -1 -20   9    4.56   10.11
  -2 -20   0   68.07   10.56
   2 -20   0   74.79    8.86
  -2  20   0   65.14    7.46
   2  20   0   67.99    9.95
  -2  20   0   71.83   10.36
   2  20   0   58.86    7.41
   2 -20   0   58.58    6.96
  -2 -20   0   64.21    7.09
  -2 -20  -2   55.01    7.20
   2 -20   2   49.36    6.89
   2  20  -2   58.65    8.08
  -2  20   2   65.13    8.62
  -2  20   2   52.88    6.86
   2 -20   2   44.63    9.77
   2 -20   2   48.08    8.83
  -2  20   2   71.78    9.14
  -2 -20   2   64.81    9.04
   2  20   2   59.45    8.92
   2  20   2   43.09    6.89
  -2  20  -2   42.64    7.89
  -2 -20   2   51.75    6.91
   2  20   2   51.42    9.27
  -2 -20   2   75.16    9.76
   2 -20  -2   60.61    7.33
  -2  20   4   16.59    9.30
   2  20  -4    7.03    7.40
   2 -20   4   11.42    5.15
  -2  20   4   12.24    9.17
   2 -20   4   10.37    9.69
  -2 -20  -4   13.48    7.29
  -2  20   4   15.31    5.80
   2 -20   4   11.91    9.06
  -2  20  -4   11.91    7.49
   2 -20  -4    9.92    7.21
   2  20   4    7.95    5.29
   2  20   4   15.28    9.41
  -2 -20   4   13.21    5.51
  -2 -20   4   15.90    8.70
  -2 -20   4    9.25    9.81
   2  20   4    9.79   10.02
   2 -20   6   -0.59    9.65
   2  20  -6   16.80    6.41
  -2  20   6    4.78    8.68
  -2  20   6    0.95    9.37
   2 -20   6    3.36    9.29
  -2 -20  -6    6.36    7.00
  -2 -20   6    6.12    8.77
   2  20   6    1.31   10.38
  -2 -20   6   14.33    9.68
   2  20   6    6.67    8.89
   2 -20  -6   10.61    6.69
  -2  20  -6   13.12    6.75
  -2  20   8   -1.75    9.48
   2 -20   8   -1.09    9.55
   2 -20   8   -0.33   10.26
  -2  20   8   -6.33   10.13
  -2 -20   8    3.28   10.03
   2  20   8    8.55    9.70
  -2 -20   8   10.93    9.09
   2  20   8    3.13   11.20
   3 -20   1  264.56   16.39
  -3  20   1  269.30   16.72
   3 -20   1  267.46   16.16
   3 -20   1  295.84   20.36
  -3  20   1  265.56   19.62
   3 -20   1  256.40   19.13
  -3  20   1  272.04   19.53
   3  20  -1  282.02   17.46
  -3 -20  -1  270.56   16.34
  -3 -20   1  261.78   19.58
  -3  20  -1  290.58   17.44
  -3 -20   1  263.50   19.65
   3  20   1  266.62   19.12
   3  20   1  269.55   16.80
  -3 -20   1  258.58   16.35
   3  20   1  280.83   19.98
   3 -20  -1  264.81   16.32
   3  20  -3   97.80   12.24
  -3  20   3   89.56   13.73
   3 -20   3  121.76   13.56
  -3  20   3  106.40   12.97
   3 -20   3   99.71   14.18
   3 -20   3  106.29   10.71
  -3  20   3  107.20   10.78
  -3 -20  -3  102.38   11.26
   3 -20   3  103.48   12.45
   3  20   3   96.23   10.18
   3  20   3  112.19   13.29
  -3  20  -3  109.42   12.06
  -3 -20   3  106.17   13.79
   3 -20  -3  122.21   11.83
  -3 -20   3  106.90   11.07
   3  20   3   95.52   13.36
  -3 -20   3  113.45   14.68
  -3 -20  -5   56.15    7.98
   3 -20   5   31.46   10.17
   3  20  -5   55.61    7.86
   3 -20   5   33.74    9.99
  -3  20   5   55.78   10.56
  -3  20   5   73.58    6.86
  -3  20   5   55.82    9.98
  -3 -20   5   49.72    9.29
   3 -20  -5   50.34    7.54
   3  20   5   29.11    9.85
   3  20   5   32.78   10.82
  -3  20  -5   29.50    7.57
  -3 -20   5   52.11   10.75
   3 -20   7    0.45   10.31
   3 -20   7   -1.39    9.38
  -3  20   7   12.36   10.25
  -3  20   7    9.88    9.59
  -3 -20   7   19.23   10.04
  -3 -20   7   16.50    9.22
   3 -20  -7    5.62    6.77
   3  20   7    4.76    9.69
   3  20   7    3.13   11.13
  -3  20   9  -11.30   10.50
   3 -20   9    2.09   10.30
   3 -20   9   -1.46   11.30
  -3  20   9   -7.37   10.12
  -3 -20   9    0.42   10.45
  -3 -20   9   12.12    8.31
   3  20   9    0.20   10.09
   3  20   9   -4.98   11.64
  -4 -20   0  149.30   13.55
   4 -20   0  129.09   11.52
   4  20   0  149.44   12.78
  -4  20   0  145.40   13.54
   4 -20   0  136.08   12.38
   4 -20   0  163.13   14.52
   4  20   0  146.22   13.31
  -4 -20   0  143.16   12.30
  -4  20   0  147.67   13.03
  -4 -20  -2   20.75    6.78
   4  20  -2    8.30    7.53
  -4  20   2   19.05    6.36
  -4  20   2   25.61    8.55
   4 -20   2   27.84    8.38
  -4  20   2   16.64    8.20
   4 -20   2   20.94    6.57
   4 -20   2   13.09    8.48
   4 -20   2   29.77    9.22
  -4 -20   2   20.86    6.47
   4  20   2   14.31    6.43
   4  20   2   26.91    8.33
  -4  20  -2   20.16    7.28
  -4 -20   2   31.23    9.41
   4 -20  -2   18.80    6.73
   4  20   2   26.77    8.64
  -4 -20   2   24.99    7.86
  -4 -20  -4   10.47    7.24
   4 -20   4    6.77    9.14
  -4  20   4    6.03    9.06
   4 -20   4   12.11    9.93
   4  20  -4    2.08    7.68
  -4  20   4   10.43    9.51
  -4  20   4    9.86    5.77
   4 -20   4   11.65    9.54
   4 -20   4   13.08    5.23
   4  20   4    9.11    9.55
   4  20   4    3.77    9.11
  -4 -20   4   11.18    8.66
  -4  20  -4   11.40    7.23
  -4 -20   4   12.34    6.01
  -4 -20   4   15.04    9.90
   4 -20  -4   20.41    7.12
  -4  20   6    5.65    9.52
   4  20  -6   22.55    6.69
  -4  20   6   -2.34    8.73
   4 -20   6   11.86    9.09
  -4 -20  -6    8.40    6.98
   4 -20   6    0.98    9.99
   4 -20  -6    0.04    6.66
   4  20   6    6.59    9.32
  -4 -20   6    6.08    9.64
   4  20   6    2.97   10.28
  -4 -20   6    6.55    8.70
  -4  20  -6   -4.56    6.45
   4 -20   8   -1.44    9.64
   4 -20   8    3.85   10.73
  -4  20   8   -2.68    9.58
  -4  20   8   -2.94   10.04
   4  20   8   10.41   10.08
  -4 -20   8   11.80    9.01
   4  20   8   -5.28   11.02
  -4 -20   8   -5.18    9.84
   5 -20   1  120.74   12.88
  -5 -20  -1  116.77   12.30
  -5  20   1  109.63   11.54
  -5  20   1  101.11   12.78
   5 -20   1  116.02   11.18
   5 -20   1  137.90   14.67
   5 -20   1  117.00   11.82
   5  20  -1  100.33    9.46
   5 -20  -1  100.49    9.97
   5  20   1  105.39   11.74
  -5 -20   1  101.07   12.11
   5  20   1  120.51   12.45
   5 -20  -1  112.21   11.36
  -5  20  -1  130.70   12.73
   5  20   1  131.78   13.61
  -5 -20   1  106.58   12.16
   5 -20   3   97.22   13.16
  -5  20   3  116.49   13.12
   5  20  -3   96.21    9.58
  -5  20   3  102.82   10.79
   5 -20   3   68.71   11.56
  -5 -20  -3  108.02   11.40
  -5  20   3  100.30   13.52
   5 -20   3  101.84   10.86
   5 -20   3   98.31   10.78
   5  20   3   93.35   10.31
   5  20   3  106.18   13.59
   5  20   3   89.66   12.21
  -5 -20   3  110.80   12.92
   5 -20  -3  108.73   11.32
  -5 -20   3  105.53   11.41
  -5  20  -3   99.61   12.28
  -5 -20   3  102.26   13.67
   5 -20   5   61.93   10.48
  -5  20   5   78.64   10.81
  -5 -20  -5   61.38    8.34
  -5  20   5   91.23    8.41
   5  20  -5   76.35    8.29
  -5  20   5   73.59   10.89
  -5 -20   5   53.18    6.56
  -5 -20   5   71.07   11.33
  -5 -20   5   66.01    9.69
   5 -20  -5   60.97    8.07
   5  20   5   40.31   11.18
   5 -20   7   -4.21   10.45
   5 -20   7    8.23    9.42
  -5  20   7   16.87   10.25
  -5  20   7   15.30    9.79
   5  20  -7   35.80    6.27
  -5 -20   7   17.09    9.07
   5  20   7   -4.37   10.40
  -5 -20   7   17.47    9.35
   5  20   7   -0.46    9.64
   5 -20  -7    4.30    7.07
   5  20   9    3.18   10.73
   6 -20   0   43.66    6.82
   6 -20   0   47.46    8.85
   6  20   0   30.90    7.27
  -6 -20   0   37.87    7.04
  -6  20   0   41.92    7.11
   6  20   0   44.21    8.09
   6 -20   0   46.25    7.67
   6 -20   2   23.67    8.47
   6  20  -2   21.98    7.76
  -6  20   2   17.35    8.44
   6 -20   2   20.18    9.39
   6 -20   2   17.83    8.67
   6 -20   2   17.40    6.64
  -6  20   2   20.61    8.43
  -6 -20  -2   19.70    7.30
  -6  20   2   24.80    6.57
  -6 -20   2   16.93    6.73
  -6 -20   2   27.08    9.09
   6  20   2   27.09    8.92
   6  20   2   19.82    6.91
  -6  20  -2   20.90    7.49
   6 -20  -2   32.32    6.78
   6 -20  -2   22.59    5.97
   6  20   2   24.11    8.89
  -6 -20   2   28.30    8.42
   6 -20   4    1.36    9.21
   6  20  -4   -4.62    7.37
  -6  20   4    3.74    9.31
   6 -20   4   -0.57    9.02
   6 -20   4   -1.27    5.24
  -6 -20  -4    6.61    7.47
  -6  20   4    2.68    9.17
   6 -20   4    2.50    9.28
  -6  20   4    2.85    6.02
  -6 -20   4   -2.66    9.63
   6 -20  -4    8.45    7.14
   6  20   4   -7.65    8.94
  -6 -20   4   -4.77    6.32
   6  20   4    4.64    9.37
  -6  20  -4    8.21    7.26
  -6 -20   4    3.06    8.58
   6 -20   6    6.38    9.16
   6 -20   6   18.55   10.09
  -6  20   6   25.40    9.85
  -6 -20  -6   20.58    7.12
   6 -20   6   10.57   10.66
   6  20  -6   27.38    7.40
  -6  20   6   13.91    9.09
   6  20   6    4.21    9.24
   6 -20  -6   11.95    6.94
  -6 -20   6   23.21    8.13
  -6 -20   6   13.79    9.93
  -6  20  -6   -0.42    6.47
   6  20   6    5.40   10.28
   6 -20   8    2.51    9.65
   6 -20   8   -0.49   11.17
  -6  20   8   -4.72   10.30
  -6  20   8   -9.06    9.89
  -6 -20   8   16.25    7.99
   6  20   8    3.58    9.92
  -6 -20   8    8.58   10.53
   6  20   8    1.07   11.08
   7 -20   1   97.56   11.93
   7 -20   1  107.76   11.73
   7  20  -1   97.50    9.41
  -7  20   1  113.64   12.18
  -7  20   1   93.03   12.64
  -7 -20  -1   98.67    9.17
   7 -20   1   98.48   12.33
   7 -20   1  115.72   14.56
  -7 -20   1  108.21   12.12
   7 -20  -1  108.74   11.46
   7 -20  -1  100.27   10.14
   7  20   1   99.57    9.03
   7  20   1  108.03   12.39
  -7  20  -1  109.14   12.53
   7  20   1  107.74   13.42
  -7 -20   1  106.06   12.61
  -7  20   3  113.51   14.95
   7 -20   3  111.33   15.11
  -7  20   3  144.18   14.49
  -7  20   3  144.37   11.94
  -7 -20  -3  147.48   12.86
   7 -20   3  139.51   13.51
   7 -20   3  126.78   14.38
   7  20  -3  141.46   14.77
   7 -20   3  136.78   11.53
   7  20   3  134.84   14.06
  -7 -20   3  137.43   14.66
  -7 -20   3  132.99   12.16
  -7  20  -3  143.15   12.73
   7 -20  -3  143.21   12.19
   7 -20  -3  119.73    9.38
  -7 -20   3  154.68   14.54
   7  20   3  137.69   13.90
   7 -20   5   68.47   10.35
  -7  20   5   74.70   10.89
  -7  20   5   82.00    8.50
  -7  20   5   79.61   11.07
   7  20  -5   78.00    8.85
  -7 -20  -5   66.48    8.40
   7 -20  -5   53.90    7.93
  -7 -20   5   49.76    6.98
   7  20   5   43.81   10.84
  -7 -20   5   67.33    9.58
  -7 -20   5   72.14   10.88
  -7  20   7   12.98   10.22
   7 -20   7   -9.61   10.74
   7 -20   7   17.05   10.42
   7 -20   7   -1.29    9.30
   7  20  -7   35.36    7.76
  -7  20   7   20.19   10.21
   7  20   7    0.77    9.65
   7  20   7    3.84   10.62
  -7 -20   7   20.84    9.24
  -7 -20   7   19.19   10.53
   7 -20  -7    5.53    7.03
   8  20   0    7.84    7.81
  -8  20   0    9.89    6.82
  -8 -20   0    1.91    7.08
   8  20   0   -2.40    7.26
   8 -20   0   10.19    6.67
   8 -20   0    6.53    8.21
   8 -20   0    5.15    7.62
  -8 -20  -2   15.14    7.54
   8 -20   2   26.88    9.07
   8  20  -2    8.07    8.05
   8 -20   2   24.52    6.99
   8 -20   2   24.68    8.91
   8 -20   2   12.09    8.77
  -8  20   2   11.46    6.47
  -8  20   2   17.24    8.81
  -8  20   2   12.65    8.58
  -8  20  -2   26.56    7.24
   8 -20  -2   15.82    6.37
  -8 -20   2   25.14    8.35
   8 -20  -2   22.43    6.91
   8  20   2   19.16    9.01
  -8 -20   2   12.08    9.44
  -8 -20   2   14.49    7.11
   8  20   2   19.14    8.64
   8  20   2   25.34    6.83
   8  20  -4   24.35    8.52
   8 -20   4    7.20    9.64
   8 -20   4   22.99    5.54
  -8  20   4   30.06    9.81
   8 -20   4   10.47    9.89
  -8  20   4   24.83    6.35
  -8 -20  -4   21.39    7.89
  -8  20   4   29.83    9.55
   8 -20   4   23.97    9.40
  -8  20  -4   16.43    7.06
   8  20   4   15.82    9.89
  -8 -20   4   14.91    7.05
   8  20   4   23.20    6.24
  -8 -20   4   11.10    9.88
   8 -20  -4   18.00    7.33
  -8 -20   4   30.51    8.76
   8  20   4   20.43    9.20
  -8 -20  -6   26.69    7.62
   8 -20   6   10.00   10.14
  -8  20   6   -1.77    9.29
  -8  20   6    0.36    9.56
   8  20  -6   15.15    7.89
   8 -20   6   -1.09   11.13
   8 -20   6    3.73    9.06
   8  20   6   -1.52    9.97
   8 -20  -6    7.00    7.12
   8  20   6   14.02    9.43
  -8 -20   6   21.80    7.86
  -8 -20   6    5.73   10.52
  -8  20  -6    1.05    6.53
   8 -20   8   -0.49    9.50
  -8  20   8  -11.34   10.48
   8 -20   8   -9.96   12.02
  -8 -20   8   -0.04   10.98
   8  20   8    1.35    9.79
   8  20   8    9.40   11.13
   9 -20   1   84.41   10.54
  -9  20   1   80.74   10.28
  -9 -20  -1   66.99    8.65
   9 -20   1   70.27   10.28
   9  20  -1   76.88    9.16
  -9  20   1   66.78    7.99
   9 -20   1   84.66    9.56
   9 -20   1   73.16    8.17
   9  20   1   79.29   10.21
  -9 -20   1   80.71   10.50
  -9  20  -1   68.46    8.29
   9 -20  -1   85.43    8.56
  -9 -20   1   66.13    8.28
   9  20   1   85.77    8.48
   9  20   1   83.45   12.64
   9 -20  -1   73.48    7.99
  -9  20   3  100.64   10.99
   9  20  -3  102.78   10.36
  -9  20   3   99.00   13.40
   9 -20   3   66.94   11.66
  -9 -20  -3  102.58   12.37
   9 -20   3   85.80   13.66
   9 -20   3   88.19   10.69
   9 -20   3  102.30   10.90
   9 -20  -3   92.80    8.68
   9 -20  -3  116.40   11.86
   9  20   3  111.46   13.84
  -9  20  -3   92.09   11.49
   9  20   3   97.83   12.81
  -9 -20   3  106.84   11.85
  -9 -20   3  121.86   14.21
   9 -20   5   56.96   10.11
  -9  20   5   53.25   10.13
  -9 -20  -5   57.32    8.20
  -9  20   5   59.66    6.48
   9  20  -5   62.85    9.09
   9  20   5   38.28   10.65
  -9 -20   5   49.07    7.18
   9  20   5   27.81    9.45
  -9 -20   5   54.37   10.65
   9 -20  -5   43.74    7.44
   9 -20   7   -5.77    9.08
  -9  20   7   14.18    9.94
   9  20  -7   13.84    8.21
   9 -20   7  -17.17   11.64
   9 -20   7    5.32   10.49
   9  20   7    8.87    9.39
   9  20   7    8.24   10.54
  -9 -20   7   16.36   10.83
   9 -20  -7    0.41    6.89
  10 -20   0    3.21    8.23
 -10 -20   0   -0.43    7.35
  10 -20   0   14.63    6.80
  10  20   0   15.88    8.18
  10 -20   0    4.40    7.99
  10  20   0   15.09    7.74
 -10  20   0   18.74    6.89
 -10  20   2   11.74    9.03
  10 -20   2   12.19    8.85
  10  20  -2   17.79    8.49
 -10  20   2    7.46    6.70
  10 -20   2   23.53    9.43
 -10 -20  -2   10.62    7.91
  10 -20   2   17.32    7.02
  10 -20   2   15.03    9.14
  10 -20  -2   14.10    7.03
  10  20   2   16.29    8.72
 -10 -20   2   14.08    7.19
 -10 -20   2   13.60    9.42
  10  20   2   20.90    9.07
  10 -20  -2   14.36    6.90
 -10  20  -2   21.75    7.38
 -10  20   4   25.26    6.49
 -10 -20  -4   39.06    8.09
  10 -20   4   17.72    9.36
  10  20  -4   23.65    8.71
  10 -20   4   33.39    5.75
 -10  20   4   26.96    9.24
  10 -20   4   25.27    9.59
  10 -20   4   37.76    9.60
  10 -20  -4   28.68    7.14
  10  20   4   23.95    9.76
  10 -20  -4   26.78    4.95
 -10 -20   4   31.80    7.50
 -10 -20   4   32.17   10.18
  10  20   4   32.94    6.23
 -10  20  -4   19.63    7.06
  10  20   4   33.40    9.15
  10  20  -6    5.78    8.09
  10 -20   6   -6.37   11.30
 -10  20   6    0.44    9.19
  10 -20   6    8.15    9.23
 -10 -20  -6   20.72    7.79
  10 -20   6    8.40   10.17
  10  20   6    9.66    9.54
 -10  20  -6   -5.68    6.45
  10  20   6   14.06   10.14
 -10 -20   6   -1.31   10.44
  10 -20  -6   -4.34    6.83
 -10  20   8  -11.31   10.24
  10 -20   8   -9.67   12.05
  10 -20   8   19.31   11.76
  10 -20   8   -1.06    9.46
  10  20   8    9.01   10.12
 -10 -20   8    1.99   11.32
  10  20   8    9.57   10.82
 -11 -20  -1   78.52    9.24
 -11  20   1   74.32    8.21
  11 -20   1   97.19   10.12
  11  20  -1   90.96    9.64
  11 -20   1   90.45   14.22
  11 -20   1  108.74   12.14
 -11 -20   1   87.97    9.07
  11 -20  -1   88.76   10.29
 -11  20  -1   85.35    8.87
  11  20   1   94.53   12.74
  11 -20  -1   88.47    8.64
  11 -20   3   24.45   10.01
 -11  20   3   28.66    9.51
 -11 -20  -3   27.98    8.35
  11  20  -3   28.40    8.93
 -11  20   3   20.97    6.77
  11 -20   3   33.82    9.80
  11 -20   3   38.32    9.46
  11 -20   3   33.03    7.10
 -11  20  -3   35.10    7.46
  11 -20  -3   31.50    6.47
 -11 -20   3   28.87    9.97
  11 -20  -3   35.86    7.40
 -11 -20   3   27.54    7.56
  11  20   3   32.25    9.35
  11  20   3   28.74    9.69
  11  20   3   33.32    7.61
  11  20  -5   39.18    9.09
  11 -20   5   -1.49   11.04
 -11  20   5   45.27    9.68
  11 -20   5   30.52    9.94
 -11  20   5   39.74    6.49
 -11 -20  -5   55.53    8.25
  11  20   5   26.62    9.90
  11 -20  -5   32.70    7.46
 -11 -20   5   40.59   10.05
 -11  20  -5   12.98    6.74
  11  20   5   22.91    9.43
 -11 -20   5   33.29    7.49
  11 -20   7   12.28   10.55
 -11  20   7    5.23    9.87
  11 -20   7  -11.48    9.19
  11  20  -7  -10.14    8.60
  11 -20   7  -27.82   11.68
  11  20   7   12.34   10.24
  11 -20  -7   -4.50    7.16
  11  20   7   11.06    9.95
 -11 -20   7   17.84   11.14
 -12 -20   0   10.70    7.92
 -12  20   0    7.86    7.05
  12 -20   0   10.68    7.14
  12 -20   0   14.10    8.61
  12  20  -2   27.69    8.53
 -12 -20  -2   29.94    8.35
 -12  20   2   23.27    7.02
  12 -20   2   20.31    9.31
  12 -20   2   22.82    7.48
  12 -20   2   19.91    9.40
 -12  20  -2   17.90    7.47
 -12 -20   2   20.96    7.76
  12 -20  -2   31.67    7.40
  12 -20  -2   23.89    7.35
  12  20   2   34.47    9.60
  12 -20   4    7.16    9.64
 -12 -20  -4   16.25    8.01
  12  20  -4    8.46    8.58
  12 -20   4   14.69    9.30
  12 -20   4   21.80    5.73
 -12  20   4   11.60    6.39
  12 -20   4   11.82    9.28
 -12  20   4    1.61    8.86
 -12 -20   4    9.57    9.61
  12  20   4   12.59    6.35
  12 -20  -4    2.92    6.90
  12 -20  -4   10.91    5.37
  12  20   4   15.62    8.80
 -12  20  -4    9.78    6.84
  12  20   4   11.83    9.54
 -12 -20   4    5.10    7.49
  12 -20   6   -1.26    9.22
 -12 -20  -6   28.15    8.02
  12 -20   6    1.36   11.71
 -12  20   6   -6.08    9.40
  12  20  -6   -8.49    8.66
  12 -20   6   19.23   10.15
  12  20   6   10.91    8.54
  12 -20  -6    0.77    7.24
  12  20   6   10.12    9.90
 -12  20  -6   -2.52    6.44
 -12 -20   6   12.42   11.03
  12  20   8    1.98   10.47
  13 -20   1   26.71    7.54
 -13  20   1   29.71    7.32
 -13 -20  -1   34.89    8.50
  13 -20   1   32.36    9.34
  13  20   1   50.98    9.73
  13 -20  -1   41.27    8.36
 -13  20  -1   33.27    7.64
  13 -20  -1   29.21    7.51
 -13 -20   1   42.18    8.08
 -13 -20  -3   57.24    8.68
  13  20  -3   56.41    9.03
  13 -20   3   33.60    9.89
  13 -20   3   57.84    9.71
 -13  20   3   38.89    7.13
  13 -20   3   46.78    7.36
  13  20   3   47.61    9.95
  13 -20  -3   44.95    7.38
  13  20   3   49.50    7.73
  13 -20  -3   65.86    7.00
 -13  20  -3   37.63    7.50
 -13 -20   3   41.99    8.16
 -13 -20  -5   39.86    8.47
  13 -20   5   37.01   10.12
 -13  20   5   30.83    6.76
  13  20  -5   16.45    8.86
 -13 -20   5   33.59   10.26
 -13 -20   5   29.34    7.92
  13  20   5   39.93   10.31
  13 -20  -5   22.13    7.49
 -13  20   7  -10.93   10.11
  13 -20   7    8.16   11.02
  13 -20   7  -12.75    9.27
  13  20   7   14.45   10.13
  13  20   7   24.88   10.46
 -13 -20   7   16.59   10.19
  13 -20  -7   -8.83    7.62
 -14  20   0   14.60    7.04
  14 -20   0   17.67    7.26
 -14 -20   0   22.97    8.07
 -14 -20  -2   35.90    8.49
  14 -20   2   32.25    9.36
  14 -20   2   19.20    9.74
 -14  20   2   27.38    6.89
  14 -20   2   37.25    7.51
  14  20   2   43.34    9.83
  14 -20  -2   20.73    7.16
 -14  20  -2   26.61    7.36
  14  20   2   31.99    7.89
 -14 -20   2   30.76    7.84
  14 -20   4    9.75    5.45
  14 -20   4   -2.98    9.53
 -14 -20  -4    0.12    8.21
  14 -20   4    7.30    9.33
 -14  20   4    7.43    6.54
  14  20   4   14.88    9.63
 -14  20  -4    3.85    6.86
  14 -20  -4    6.17    5.68
  14  20   4    9.51    6.68
 -14 -20   4    4.45    7.91
  14 -20  -4   -6.86    7.08
  14 -20   6    3.73   10.27
  14 -20   6   -3.89    9.45
 -14 -20  -6    7.95    8.01
  14  20   6    6.57    9.99
 -14  20  -6  -11.45    6.49
  14 -20  -6   -6.70    7.31
 -15  20   1   36.17    7.18
 -15 -20  -1   46.32    8.48
  15 -20   1   38.52    7.67
  15  20   1   38.55    8.37
 -15 -20   1   48.58    8.32
  15 -20  -1   41.37    7.47
 -15  20  -1   38.34    7.54
 -15 -20  -3   38.37    8.73
  15 -20   3   23.68    7.06
  15 -20   3   17.76    9.82
  15 -20   3   31.00    9.53
 -15  20   3   22.50    7.00
 -15 -20   3   27.87    8.20
  15 -20  -3   22.16    7.34
  15  20   3   33.80    7.84
  15  20   3   34.32    9.99
 -15  20  -3   13.29    7.18
 -15 -20  -5   23.90    8.54
  15 -20   5  -11.17    9.58
 -15  20   5   16.48    6.84
  15 -20   5   27.00   10.16
  15 -20  -5   17.74    7.44
 -15 -20   5   14.69    8.25
 -15  20  -5   -1.41    6.72
  15  20   5   34.86   10.38
  15 -20   7    8.34   11.27
  15 -20   7   -2.82    9.97
  15 -20  -7    0.31    7.85
  15  20   7   16.80   10.63
  16 -20   0   15.96    7.33
 -16 -20   0   13.33    8.08
 -16  20   0   18.44    7.24
  16 -20   2   21.24    9.27
 -16 -20  -2   23.02    8.54
  16 -20   2   11.86    7.53
 -16  20   2   15.09    6.84
  16 -20  -2    7.51    6.99
 -16  20  -2    9.30    7.22
  16  20   2   20.67    7.82
 -16 -20   2   16.07    8.19
  16 -20   4    3.67    5.77
  16 -20   4   15.67    9.67
 -16  20   4    0.10    6.88
  16 -20   4   -6.67    9.98
 -16 -20  -4   14.43    8.86
  16 -20  -4   -0.34    7.24
 -16  20  -4   -5.93    7.03
 -16 -20   4   -3.48    8.14
  16  20   4   12.61    9.95
  16  20   4    7.63    6.87
  16 -20   6   11.77   10.83
 -16 -20  -6   15.57    8.67
  16 -20   6   -3.39   10.18
 -16  20  -6   -8.22    6.75
  16  20   6   24.83   10.71
  16 -20  -6   -4.78    7.51
  17 -20   1   16.03    7.70
 -17  20   1    6.21    6.93
 -17 -20  -1   23.99    8.49
 -17 -20   1   19.62    8.32
  17 -20  -1   13.88    7.48
  17  20   1   23.62    8.19
 -17  20  -1    8.15    7.26
  17 -20   3   17.41    9.78
 -17 -20  -3   14.74    8.70
  17 -20   3   10.62    7.45
 -17  20   3   20.61    6.81
  17  20   3   24.50    8.06
 -17 -20   3   21.58    8.58
 -17  20  -3    6.53    7.19
  17 -20  -3   10.97    7.29
 -17  20   5   13.90    6.99
  17 -20   5   10.04   10.21
 -17 -20  -5   24.43    8.93
  17 -20   5  -11.36    9.98
  17  20   5   35.52   10.49
 -17  20  -5    0.53    6.93
  17 -20  -5    5.94    7.34
 -17 -20   5   -3.22    8.47
  18  20   0   14.62    8.25
 -18 -20   0   12.64    8.35
  18 -20   0    7.51    7.58
 -18  20   0    8.25    7.27
  18 -20   2   12.02    7.99
 -18 -20  -2   22.62    8.99
 -18  20   2    8.77    7.07
  18  20   2   19.79    8.40
  18 -20  -2    5.55    7.11
 -18 -20   2   17.14    8.56
 -18  20  -2    9.36    7.46
 -18  20   4    1.35    7.07
  18 -20   4    4.73    9.98
 -18 -20  -4    5.23    8.70
  18 -20  -4    3.32    7.55
 -18  20  -4   -7.95    6.92
 -18 -20   4    5.29    8.73
  18  20   4    5.70    7.13
  18 -20   6   22.21   11.37
  18 -20   6   -7.30   11.09
  18  20   6   15.77   10.91
 -19  20   1   -0.52    6.99
  19 -20   1    3.44    7.78
 -19 -20  -1    5.60    8.72
  19  20  -1    8.68    8.43
 -19  20  -1    1.43    7.38
 -19 -20   1    6.76    8.57
  19  20   1    2.97    8.23
  19 -20  -1    4.39    7.57
  19 -20   3    9.95    9.82
 -19 -20  -3    9.54    9.05
 -19  20   3   -0.91    7.08
  19 -20   3   -3.05    7.44
  19  20  -3   19.91    9.73
  19  20   3    9.11    8.20
  19 -20  -3    0.20    7.38
 -19 -20   3    1.01    8.68
 -19  20  -3   -9.69    7.18
  19  20  -5   15.99   11.17
 -19  20   5   -0.76    7.38
 -19 -20  -5   19.63    9.28
  19 -20   5   15.02   10.77
 -19  20  -5  -15.64    7.15
 -19 -20   5   -7.24    9.14
  19 -20  -5   -6.82    7.46
 -20  20   0    0.81    7.27
  20  20   0    3.86    8.28
  20 -20   0    3.69    7.79
 -20 -20   0    3.32    8.99
  20 -20   2    8.67    8.06
 -20  20   2    3.08    7.13
 -20 -20  -2   15.86    9.27
  20  20  -2   14.73    9.05
 -20 -20   2    5.96    9.00
  20  20   2   18.60    8.72
  20 -20  -2    2.90    7.29
 -20  20  -2   -1.68    7.50
  20  20  -4   14.26   10.58
 -20 -20  -4    7.10    9.54
 -20  20   4   -1.99    7.63
  20 -20   4   15.27   10.67
 -20 -20   4    0.02    9.47
 -20  20  -4   -1.46    7.63
  20 -20  -4    2.09    7.91
  21  20  -1    4.30    8.56
 -21 -20  -1    3.75    9.48
 -21  20   1   -6.40    7.23
  21 -20   1    3.27    8.17
  21  20   1    2.57    8.69
  21 -20  -1   -4.98    7.73
 -21 -20   1    2.00    8.95
 -21  20  -1   -6.70    7.57
  21  20  -3   12.44    9.84
  21 -20   3   -2.91    7.95
 -21 -20  -3    7.02    9.71
 -21  20   3    0.55    7.47
 -21  20  -3   -7.64    7.71
 -21 -20   3    1.96    9.40
  21 -20  -3    4.59    7.64
  21  20   3    4.72    8.61
 -22  20   0    4.15    7.59
  22 -20   0    7.91    8.19
 -22 -20   0    7.14    9.42
  22  20   0   13.11    9.04
 -22  20   2    3.88    7.41
 -22 -20  -2   12.76   10.28
  22  20  -2    9.74    9.42
  22 -20   2    8.43    8.64
  22 -20  -2    5.46    7.64
  22  20   2    8.63    9.21
 -22  20  -2   -4.17    8.06
 -22 -20   2   -1.24    9.32
 -23  20   1   -1.96    7.69
  23  20  -1   20.18    9.64
 -23 -20  -1   -6.72   10.15
  23 -20   1   -9.88    8.87
 -23  20  -1  -12.48    7.90
 -23 -20   1   -1.53    9.88
  23 -20  -1   -8.61    8.22
  23  20   1   -6.23    9.39
 -24 -20   0   -0.75   10.23
  24  20   0   -3.04    9.60
 -24  20   0   -3.93    7.90
   0 -21   1  211.52   16.95
   0 -21   1  191.95   13.92
   0  21  -1  205.40   15.05
   0 -21   1  206.19   16.17
   0  21   1  179.22   14.38
   0  21   1  193.76   15.50
   0 -21  -1  196.88   14.08
   0  21   1  205.99   16.13
   0 -21  -3  142.67   12.31
   0  21   3  128.11   11.88
   0 -21   3  130.63   15.48
   0  21   3  133.36   15.24
   0  21   3  155.19   15.27
   0 -21   3  132.41   14.48
   0  21  -3  137.92   13.78
   0 -21   3  127.62   11.92
   0 -21   5   10.28    8.76
   0 -21   5   15.11   10.16
   0 -21  -5   25.32    7.63
   0  21   5   18.83    9.35
   0  21  -5   15.70    7.53
   0  21   5   19.93   10.01
   0  21   7    5.35   10.80
   0 -21   7   11.95    9.85
   0  21   7   11.95   10.08
   0 -21   7    2.77    9.71
   0  21   9   -1.16   10.04
   0 -21   9    7.46   10.40
   0 -21   9    4.07   10.56
   1  21   0   24.10    7.31
  -1 -21   0   22.86    7.71
   1 -21   0   13.50    6.07
  -1  21   0   21.64    7.42
  -1 -21   0   15.47    6.15
  -1  21   0   25.28    6.97
   1  21   0    7.94    6.66
   1 -21   0   20.17    7.38
   1 -21   2   63.09   10.33
   1 -21   2   57.08    7.34
  -1 -21  -2   58.96    7.64
  -1  21   2   71.53    9.93
   1 -21   2   63.76    9.57
  -1  21   2   64.17    9.77
   1  21  -2   56.03    8.26
  -1  21   2   51.77    7.17
  -1 -21   2   73.95   10.31
  -1 -21   2   51.18    7.17
  -1  21  -2   52.70    8.45
  -1 -21   2   69.01    9.64
   1  21   2   49.13    7.30
   1  21   2   64.04    9.83
   1  21   2   61.16    9.59
   1 -21  -2   55.74    7.52
  -1 -21  -4   11.48    7.40
   1 -21   4   12.47    5.63
   1 -21   4   15.92   10.37
   1 -21   4   23.04    9.39
  -1  21   4   10.53    5.89
  -1  21   4    6.07    9.66
   1  21  -4   10.53    7.43
  -1  21   4    7.47    9.66
  -1 -21   4   11.96    9.10
  -1 -21   4    7.80    9.98
   1 -21  -4   16.09    7.48
  -1  21  -4   13.21    7.90
  -1 -21   4   13.11    5.89
   1  21   4   16.14    5.86
   1  21   4   18.24   10.55
   1  21   4   22.20    9.78
  -1  21   6    4.21   10.18
   1  21  -6   11.39    6.66
  -1 -21  -6    4.63    6.97
  -1  21   6   11.89    9.21
   1 -21   6    4.89    9.49
   1 -21   6    3.82    9.73
   1  21   6    7.94    8.80
   1  21   6    5.31   10.37
  -1  21  -6   14.34    7.02
   1 -21  -6    4.51    6.92
  -1 -21   6   12.21    9.37
  -1 -21   6   15.91    9.45
   1 -21   8    6.32   10.26
  -1  21   8    1.80    9.67
   1 -21   8    3.93    9.82
  -1  21   8   -7.26   10.61
  -1 -21   8    5.03    9.83
   1  21   8   -1.75   11.15
   1  21   8   -4.33   10.18
  -1 -21   8    5.44    9.59
  -2 -21  -1  173.93   13.83
  -2  21   1  170.45   15.39
  -2  21   1  157.24   13.84
   2 -21   1  175.72   15.15
   2 -21   1  171.70   13.56
   2 -21   1  195.21   16.30
   2  21  -1  163.93   14.35
  -2  21   1  168.66   15.23
  -2 -21   1  168.33   15.31
   2 -21  -1  171.87   13.67
  -2  21  -1  196.32   14.37
   2  21   1  167.90   13.74
  -2 -21   1  141.08   13.51
  -2 -21   1  170.12   15.69
   2  21   1  186.53   15.17
   2  21   1  183.93   14.95
  -2  21   3   99.74   12.89
   2 -21   3   80.95    7.98
  -2  21   3   93.78   10.45
   2  21  -3  110.61   13.00
   2 -21   3   87.78   12.82
  -2  21   3   89.56   13.32
  -2 -21  -3   93.91   11.42
   2 -21   3   81.03   11.95
   2 -21  -3  110.72   11.45
   2  21   3   74.17   11.36
  -2 -21   3  111.52   13.79
  -2 -21   3  113.23   13.18
  -2  21  -3  101.46   12.57
   2  21   3   93.44   10.14
   2  21   3   93.36   12.78
  -2 -21   3   92.89   11.07
   2  21  -5   43.72    7.57
  -2  21   5   39.17    9.74
   2 -21   5   30.90   10.52
  -2  21   5   48.52   10.68
   2 -21   5   36.49    9.77
  -2 -21  -5   39.99    7.86
  -2  21  -5   35.37    7.74
   2  21   5   27.21   10.05
   2  21   5   26.59   10.79
  -2 -21   5   46.01    9.31
   2 -21  -5   48.76    7.74
  -2 -21   5   44.63   10.44
   2 -21   7   -5.86   10.18
   2 -21   7    0.91    9.63
  -2  21   7   14.06    9.53
  -2  21   7    9.72   10.23
  -2 -21   7   21.06    9.99
  -2 -21   7   17.00    9.20
   2  21   7    4.75   11.39
   2  21   7    7.39   10.05
   2 -21  -7    0.19    7.06
  -2  21   9   -1.47   10.39
   2 -21   9   -2.90   10.42
  -2 -21   9    0.75   10.77
   2  21   9   -3.58   10.69
  -3 -21   0   59.41    8.73
   3 -21   0   54.02    7.12
   3 -21   0   67.98    9.23
  -3 -21   0   46.52    7.23
   3  21   0   48.13    7.60
  -3  21   0   51.77    7.57
   3  21   0   54.81    8.64
  -3  21   0   66.32    8.86
  -3  21   2   20.71    8.30
   3 -21   2   31.42    8.54
   3 -21   2   33.55    8.73
  -3 -21  -2   30.06    7.29
   3 -21   2   34.20    9.62
  -3  21   2   31.40    8.87
   3  21  -2   22.93    7.90
   3 -21   2   30.51    6.80
  -3  21   2   26.85    6.65
  -3  21  -2   32.46    7.81
  -3 -21   2   26.25    6.74
  -3 -21   2   32.10    9.24
   3  21   2   35.12    9.05
   3 -21  -2   29.06    7.03
   3  21   2   26.41    6.70
   3  21   2   38.64    9.03
  -3 -21   2   30.87    8.49
   3 -21   4   18.67   10.11
   3 -21   4   14.36    9.56
  -3  21   4   18.18    6.02
  -3  21   4    7.48    9.43
   3 -21   4   14.25    5.49
   3  21  -4   12.45    7.80
  -3 -21  -4   10.86    7.48
  -3  21   4   25.70    9.66
   3  21   4   19.52    5.87
  -3 -21   4   22.37    6.00
  -3  21  -4   14.57    7.64
   3  21   4   14.03    9.66
   3 -21  -4   15.04    7.36
  -3 -21   4   14.73   10.35
  -3 -21   4   17.25    8.69
   3  21   4   15.42   10.31
  -3 -21  -6   12.55    7.36
   3  21  -6   21.77    6.92
  -3  21   6   11.36    8.81
   3 -21   6   10.10    9.48
   3 -21   6   14.37   10.42
  -3  21   6   13.54    9.74
   3  21   6    9.09    9.90
   3  21   6   10.80   10.87
  -3 -21   6   22.37    9.21
   3 -21  -6    3.52    6.84
  -3 -21   6   11.25    9.73
  -3  21  -6   13.08    6.96
   3 -21   8    0.68    9.92
   3 -21   8   -1.72   10.99
  -3  21   8    0.27   10.38
  -3  21   8   -6.85    9.79
   3  21   8    8.24   10.13
  -3 -21   8    3.45    9.95
  -3 -21   8    9.59    9.29
   3  21   8    8.50   11.30
  -4  21   1  182.24   13.78
   4 -21   1  162.24   13.14
   4 -21   1  172.46   13.14
   4 -21   1  167.15   14.96
   4 -21   1  190.16   16.49
   4  21  -1  183.94   14.31
  -4  21   1  161.41   14.97
  -4 -21  -1  161.16   13.45
   4 -21  -1  139.68   11.42
   4  21   1  178.88   15.91
   4  21   1  151.60   13.88
  -4  21  -1  170.18   14.53
  -4 -21   1  181.25   15.62
   4  21   1  159.69   14.06
   4 -21  -1  165.90   13.79
  -4 -21   1  174.90   13.84
  -4 -21  -3  101.00   11.85
  -4  21   3   94.57   10.86
   4 -21   3  107.67   13.87
   4 -21   3   75.61   12.12
   4 -21   3  103.12   10.89
   4  21  -3  101.62   12.81
  -4  21   3  109.11   13.00
   4 -21   3  102.30   10.99
  -4  21   3  110.80   14.21
   4  21   3  106.17   12.79
   4  21   3   98.60   13.66
   4 -21  -3  100.62   11.55
  -4 -21   3  115.34   15.10
  -4 -21   3   93.05   11.60
   4  21   3  102.50   10.39
  -4 -21   3  117.10   13.84
  -4  21  -3  105.11   12.81
  -4  21   5   73.97   10.38
   4 -21   5   30.78   10.09
  -4  21   5   69.49   10.81
   4  21  -5   69.53    8.10
   4 -21   5   28.08   10.43
  -4 -21  -5   57.46    8.00
  -4  21  -5   41.32    7.73
  -4 -21   5   58.25    9.51
   4  21   5   26.36    9.94
   4 -21  -5   52.00    7.57
   4  21   5   33.74   10.84
  -4 -21   5   71.13   11.48
  -4 -21   5   48.11    6.07
  -4  21   7   13.81    9.89
   4  21  -7   36.36    6.77
   4 -21   7   -5.94    9.39
  -4  21   7   11.23   10.33
   4 -21   7   -4.90   10.45
  -4 -21   7   19.85    8.14
   4  21   7    5.72   11.20
  -4 -21   7   16.39    9.97
   4  21   7    8.24   10.06
   4 -21  -7    0.07    6.89
  -5  21   0  116.61   12.14
  -5 -21   0  103.01   12.35
   5  21   0  108.51   11.95
  -5 -21   0   93.04    8.67
   5 -21   0   94.84   11.30
   5 -21   0  108.98   12.66
   5 -21   0   98.27   10.94
   5  21   0   93.43    8.94
   5 -21   2   71.14   10.87
  -5 -21  -2   57.35    8.21
  -5  21   2   56.45    7.59
  -5  21   2   73.52    9.87
   5 -21   2   67.08   10.09
   5 -21   2   63.44    7.86
   5  21  -2   66.38    8.90
   5 -21   2   83.09    9.85
  -5  21   2   80.08   10.17
  -5 -21   2   63.12    7.79
   5  21   2   69.50   10.11
  -5  21  -2   70.69    8.56
  -5 -21   2   82.71   12.44
   5  21   2   62.26    7.83
  -5 -21   2   78.52   10.72
   5 -21  -2   65.28    7.90
   5  21   2   70.93   10.11
  -5  21   4   11.18    9.54
   5 -21   4   21.87    9.85
  -5  21   4   29.22    9.41
  -5 -21  -4    4.88    7.59
   5 -21   4   17.58    5.59
  -5  21   4   24.82    6.32
   5  21  -4   13.62    7.98
   5 -21   4   15.97    9.70
   5 -21   4   10.37    9.82
  -5 -21   4   18.35    6.49
  -5  21  -4   17.42    7.57
  -5 -21   4   18.03   10.36
  -5 -21   4   22.00    8.95
   5 -21  -4   16.94    7.20
   5  21   4    6.24    9.21
   5  21   4   14.78    9.93
  -5  21   6    7.33    9.06
   5  21  -6   28.68    6.96
   5 -21   6    2.43   10.63
  -5 -21  -6   19.10    7.50
   5 -21   6    9.79    9.74
  -5  21   6    6.51   10.06
  -5 -21   6    5.78    9.77
   5 -21  -6   11.46    6.92
   5  21   6   14.62    9.69
  -5 -21   6   13.42    8.13
   5  21   6    2.25   10.60
  -5  21  -6    0.51    6.76
   5 -21   8    1.79   11.17
   5 -21   8    3.50    9.87
  -5  21   8    1.72   10.41
  -5  21   8   -1.43   10.44
   5  21   8    8.67   11.41
   5  21   8    8.88   10.35
  -5 -21   8    1.76   10.33
  -5 -21   8   14.37    9.44
   6  21  -1   72.80    8.84
  -6  21   1   81.84   12.25
   6 -21   1   78.99   10.33
   6 -21   1   76.42    8.13
   6 -21   1   88.23    9.43
  -6 -21  -1   67.52    8.36
   6 -21   1   84.57   12.89
  -6  21   1   69.63    8.03
   6  21   1   79.88    8.36
   6  21   1   88.21   10.14
   6 -21  -1   70.37    7.95
  -6 -21   1   69.41    8.18
   6 -21  -1   84.83    7.96
  -6  21  -1   97.38   11.83
  -6 -21   1   83.24   12.62
   6  21   1   80.99   11.78
   6 -21   3   67.37   11.14
  -6 -21  -3   75.87    8.81
  -6  21   3   63.91   10.43
  -6  21   3   87.03   12.59
   6 -21   3   88.45   10.03
   6  21  -3   68.46    8.91
   6 -21   3   72.35   10.62
  -6  21   3   72.64    7.68
   6 -21   3   79.99    7.79
   6 -21  -3  101.42   11.20
  -6 -21   3   73.13    7.99
   6  21   3   64.21   10.55
   6  21   3   76.61    7.71
   6  21   3   88.95   13.40
  -6 -21   3   87.16   12.72
  -6 -21   3   79.60   11.35
  -6  21  -3   72.74    8.79
   6 -21   5   64.01   10.18
   6  21  -5   45.76    7.34
   6 -21   5   26.31    9.49
  -6  21   5   50.05   10.40
  -6 -21  -5   47.97    7.79
  -6  21   5   47.43    9.90
   6 -21   5   22.46    9.96
  -6  21   5   72.18    7.93
   6 -21  -5   44.76    7.58
   6  21   5   29.10   10.29
  -6 -21   5   44.18    8.95
  -6 -21   5   33.85    6.41
  -6  21  -5   30.25    7.27
  -6 -21   5   42.99   10.16
   6  21   5   25.89    9.25
  -6  21   7   18.12   10.65
  -6  21   7   26.48    9.55
   6  21  -7   42.13    7.63
   6 -21   7   -6.56   10.99
   6 -21   7   -1.43    9.86
  -6 -21   7   16.77   10.49
   6  21   7    2.74   10.73
   6  21   7    1.57    9.81
   6 -21  -7    2.81    7.18
  -6 -21   7   29.07    9.41
   7  21   0   51.74    8.68
  -7  21   0   49.83    7.58
   7  21   0   42.43    7.93
   7 -21   0   47.78    8.18
   7 -21   0   42.41    7.32
   7 -21   0   49.17    9.32
  -7 -21   0   45.30    7.67
  -7  21   2   64.47    9.87
   7 -21   2   62.45    9.47
   7 -21   2   48.28   10.19
  -7  21   2   52.48    7.44
   7 -21   2   56.87    9.95
  -7 -21  -2   55.14    8.26
   7 -21   2   58.86    7.76
   7  21  -2   57.99    8.83
  -7  21   2   71.19    9.90
   7 -21  -2   58.52    7.66
  -7  21  -2   48.18    8.19
   7  21   2   52.15    9.95
   7 -21  -2   61.80    6.86
   7  21   2   56.67    7.93
  -7 -21   2   49.89    7.72
   7  21   2   60.55    9.98
  -7 -21   2   65.95    9.18
  -7 -21   2   69.36   10.55
  -7  21   4    5.84    9.62
   7 -21   4   13.84    9.60
   7 -21   4   11.45    9.54
  -7  21   4   14.10    6.30
   7 -21   4   12.53    9.34
  -7  21   4   13.07    9.35
   7 -21   4   14.40    5.59
  -7 -21  -4   13.86    7.83
   7  21  -4    9.64    8.22
   7  21   4   12.91    9.55
  -7 -21   4   12.19    6.76
  -7  21  -4   12.66    7.40
   7 -21  -4   13.08    7.32
  -7 -21   4   14.85    8.68
  -7 -21   4   13.52    9.91
   7  21   4   14.35    9.09
   7 -21   6   18.81   10.13
  -7  21   6    5.43    9.60
   7  21  -6   23.47    7.79
  -7 -21  -6   20.21    7.64
   7 -21   6    3.76    9.42
  -7  21   6    9.46    9.79
   7 -21   6   -3.53   10.61
  -7 -21   6   11.48   10.51
   7  21   6    2.29   10.31
  -7  21  -6    0.92    6.70
  -7 -21   6   13.06    9.02
   7 -21  -6    0.91    7.09
   7  21   6    8.27    9.81
  -7  21   8  -14.41   10.64
   7 -21   8   -7.16   11.83
   7 -21   8    1.34   10.02
  -7 -21   8   -8.42   10.77
   7  21   8    2.58   11.13
   7  21   8    2.16   10.38
  -8  21   1   62.53    7.97
  -8  21   1   76.06    9.87
   8 -21   1   76.34    9.50
  -8 -21  -1   68.25    8.65
   8 -21   1   80.21    8.15
   8 -21   1   76.78   10.32
   8  21  -1   67.96    8.98
   8 -21   1   68.05   10.16
   8 -21  -1   68.27    7.94
   8 -21  -1   78.93    8.36
   8  21   1   77.59   10.02
   8  21   1   70.45    8.34
  -8 -21   1   66.87    8.19
  -8  21  -1   71.32    8.60
   8  21   1   81.69   10.22
  -8 -21   1   85.83   10.55
   8 -21   3   60.43   10.74
  -8  21   3   57.07    7.52
  -8  21   3   64.05   10.52
  -8  21   3   68.02   10.77
   8 -21   3   68.84   10.09
   8 -21   3   60.78   10.90
   8  21  -3   65.52    9.46
   8 -21   3   68.34    7.81
  -8 -21  -3   68.06    8.85
   8 -21  -3   63.30    7.65
  -8  21  -3   67.07    8.23
   8  21   3   82.09   12.35
  -8 -21   3   60.99    8.01
   8  21   3   63.35   11.02
  -8 -21   3   67.47   11.17
   8 -21  -3   57.54    8.11
  -8 -21   3   88.33   12.32
   8  21  -5   36.28    8.46
   8 -21   5   37.70    9.61
  -8 -21  -5   41.97    7.98
  -8  21   5   45.60    6.17
  -8  21   5   35.42    9.99
   8 -21  -5   29.98    7.33
   8  21   5   17.33   10.08
  -8 -21   5   25.31    6.72
   8  21   5   13.65    8.78
  -8 -21   5   40.67    8.75
  -8 -21   5   41.12   10.08
  -8  21  -5   10.93    7.01
   8  21  -7   31.47    8.33
   8 -21   7   18.02   10.81
   8 -21   7   -8.90    9.64
  -8  21   7    6.44   10.23
   8 -21   7   -7.22   11.52
   8 -21  -7    0.57    7.17
   8  21   7    4.45   10.05
  -8 -21   7   23.17    9.95
   9 -21   0   23.79    8.83
   9  21   0   22.99    7.81
   9 -21   0   19.82    7.12
  -9 -21   0   11.14    7.53
   9 -21   0   18.24    8.14
   9  21   0   37.11    8.46
  -9  21   0   26.23    7.38
  -9 -21  -2   25.11    7.99
   9  21  -2   27.79    8.83
   9 -21   2   28.48    9.28
  -9  21   2   22.16    6.80
   9 -21   2   30.87    7.34
   9 -21   2   34.61    9.12
   9 -21   2   28.46    9.62
  -9  21   2   20.57    9.11
   9 -21  -2   27.46    7.24
  -9  21  -2   34.42    7.62
   9 -21  -2   26.20    6.84
  -9 -21   2   21.37    7.51
  -9 -21   2   25.22    9.78
   9  21   2   33.95    9.19
   9  21   2   33.09    9.07
   9 -21   4   20.67   10.01
   9  21  -4   49.07    8.81
   9 -21   4    6.18    9.70
  -9  21   4   39.89    6.67
  -9 -21  -4   48.51    8.23
   9 -21   4   37.78    5.98
  -9  21   4   41.54    9.65
   9 -21   4   42.85    9.68
  -9 -21   4   36.93    7.46
  -9  21  -4   12.83    7.13
   9 -21  -4   31.13    7.41
  -9 -21   4   39.49   10.46
   9  21   4   36.49   10.01
   9 -21  -4   34.62    4.93
   9  21   4   30.78    6.54
   9  21   4   34.10    9.47
   9 -21   6   -1.61   11.42
   9  21  -6   14.78    8.33
  -9  21   6    1.17    9.66
   9 -21   6   12.99    9.94
  -9 -21  -6   22.45    7.88
   9 -21   6    3.53    9.34
  -9  21  -6  -12.84    6.41
   9  21   6   13.95    9.54
  -9 -21   6   -0.68   10.70
   9  21   6    7.38   10.27
   9 -21  -6    2.88    7.29
   9 -21   8    2.62   11.55
  -9  21   8   -4.83   10.88
   9 -21   8  -12.59   12.42
   9 -21   8  -13.70    9.93
   9  21   8    9.97   10.33
  -9 -21   8    1.22   11.27
   9  21   8   -0.10   11.26
  10 -21   1   55.11   10.20
 -10  21   1   48.22    7.69
  10  21  -1   65.80    8.95
  10 -21   1   56.69    9.32
  10 -21   1   59.24    8.09
 -10 -21  -1   45.57    8.47
 -10 -21   1   56.58    8.38
  10  21   1   65.68   10.03
 -10  21  -1   59.25    8.20
  10 -21  -1   61.24    7.83
  10  21   1   66.54    8.21
  10 -21  -1   63.12    8.31
  10  21  -3   46.01    9.17
  10 -21   3   48.68    7.34
 -10  21   3   40.19    9.21
 -10  21   3   37.63    7.10
  10 -21   3   47.30    9.73
 -10 -21  -3   50.80    8.67
  10 -21   3   47.74   10.57
  10 -21   3   46.47   10.21
 -10  21  -3   50.22    7.92
  10  21   3   57.47   10.02
  10 -21  -3   33.61    7.61
 -10 -21   3   45.30    7.97
 -10 -21   3   39.04   10.52
  10 -21  -3   46.91    6.51
  10  21   3   44.82   10.06
  10 -21   5    7.66   11.26
  10  21  -5   44.85    9.04
 -10  21   5   46.34   10.33
  10 -21   5   39.70    9.96
 -10  21   5   45.51    6.59
 -10 -21  -5   49.02    8.31
  10  21   5   28.62   10.03
 -10 -21   5   45.37   10.57
  10 -21  -5   35.19    7.61
  10  21   5   26.11   10.35
 -10 -21   5   42.13    7.34
 -10  21   7   -4.82   10.16
  10 -21   7  -19.99   11.86
  10 -21   7  -10.70    9.17
  10  21  -7   -1.76    8.70
  10 -21   7   13.34   10.71
  10  21   7   14.10   10.80
  10 -21  -7   -6.77    7.22
 -10 -21   7   11.30   11.00
  10  21   7    9.40    9.66
  11  21   0   46.40    8.22
 -11 -21   0   29.60    8.01
 -11  21   0   37.69    7.54
  11 -21   0   37.89    8.71
  11 -21   0   33.49    7.43
 -11  21   2   33.13    7.18
  11 -21   2   26.32    9.32
  11 -21   2   26.64    7.43
 -11 -21  -2   26.37    8.31
  11  21  -2   35.99    9.18
  11 -21   2   19.84    9.80
 -11 -21   2   22.91    7.71
  11 -21  -2   35.46    7.39
 -11  21  -2   25.09    7.60
  11  21   2   41.51    9.91
  11 -21  -2   31.52    7.46
 -11  21   4   10.97    6.34
  11 -21   4   15.80    9.17
 -11  21   4    3.68    9.16
  11  21  -4    9.53    8.40
 -11 -21  -4   14.21    8.05
  11 -21   4   -0.93    9.37
  11 -21   4    3.64    9.42
  11 -21   4   19.59    5.63
  11 -21  -4   11.47    4.94
 -11 -21   4    7.78    7.45
 -11  21  -4   -2.34    6.81
 -11 -21   4    7.98    9.45
  11 -21  -4    2.03    6.96
  11  21   4   18.64    6.35
  11  21   4   11.84    8.74
  11  21   4   13.41    9.23
  11 -21   6   18.68   10.15
 -11 -21  -6   24.76    7.97
  11  21  -6   15.71    8.96
  11 -21   6   -9.29   11.31
 -11  21   6    2.54    9.53
  11 -21   6   -5.31    9.30
  11  21   6   14.13    9.81
 -11 -21   6   17.23    9.87
  11 -21  -6   -0.80    6.96
  11  21   6   13.28   10.09
  11 -21   8   -1.64    9.89
 -11 -21   8   -7.43   11.95
  11  21   8   19.19   10.86
  11  21   8   11.92   10.35
 -12 -21  -1   75.41    9.38
 -12  21   1   70.45    8.16
  12 -21   1   75.07   11.19
  12 -21   1   71.03    9.98
  12  21  -1  100.06    9.63
  12 -21   1   71.42    8.71
  12  21   1   98.44   13.04
  12 -21  -1   83.18   10.24
 -12  21  -1   69.51    8.59
  12 -21  -1   75.19    8.53
 -12 -21   1   84.18    9.03
  12  21  -3   40.69    9.11
 -12  21   3   32.37    6.90
  12 -21   3   28.24    9.74
 -12 -21  -3   46.62    8.50
  12 -21   3   40.97    7.19
  12 -21   3   38.54    9.48
  12  21   3   33.82    7.70
  12  21   3   40.96   10.11
 -12  21  -3   25.88    7.37
 -12 -21   3   47.07    7.87
  12 -21  -3   34.60    7.51
  12 -21  -3   45.91    6.68
 -12 -21  -5   33.02    8.37
 -12  21   5   27.40    6.57
  12 -21   5   -8.41   11.36
 -12  21   5   21.50    9.77
  12 -21   5    3.33    9.42
  12 -21   5   26.08    9.90
  12  21  -5   18.69    8.98
 -12 -21   5   30.24   10.27
 -12  21  -5    3.00    6.73
 -12 -21   5   23.84    7.69
  12  21   5   26.17   10.00
  12 -21  -5    9.67    7.06
  12 -21   7  -26.17   12.10
  12 -21   7   -2.19    9.56
  12 -21   7    7.30   10.78
  12  21  -7  -20.02    8.92
 -12  21   7   -4.12   10.18
  12  21   7    9.61   10.30
  12 -21  -7    3.71    7.20
  12  21   7   21.13   10.40
 -12 -21   7   18.69   11.69
  13 -21   0    8.75    8.52
 -13  21   0   11.90    7.20
 -13 -21   0   20.04    8.16
  13 -21   0    8.64    7.30
 -13  21   2   23.02    6.92
  13 -21   2   24.35    9.10
  13  21  -2   32.60    8.50
  13 -21   2   27.43    7.50
  13 -21   2   24.97    9.52
 -13 -21  -2   22.65    8.23
 -13 -21   2   24.33    7.83
  13  21   2   33.28    9.56
  13 -21  -2   18.47    7.20
 -13  21  -2   28.66    7.49
  13 -21  -2   27.51    7.29
  13  21  -4   -1.35    8.64
  13 -21   4    7.10    5.94
 -13  21   4    2.25    6.54
  13 -21   4   12.52    9.40
 -13 -21  -4   12.16    8.31
  13 -21   4   -7.19    9.30
  13  21   4    7.94    9.55
 -13 -21   4    2.61    7.80
  13 -21  -4   -7.51    6.88
  13  21   4    6.65    6.68
  13 -21  -4    2.58    5.52
 -13  21  -4   -2.72    6.85
 -13 -21  -6   27.38    8.34
  13  21  -6  -13.10    8.96
  13 -21   6   17.23   10.20
  13 -21   6   -3.31    9.23
  13  21   6    9.65   10.20
 -13  21  -6   -5.88    6.56
  13 -21  -6    5.93    7.53
 -14  21   1   27.19    7.05
 -14 -21  -1   33.35    8.49
  14 -21   1   23.12    7.41
  14 -21   1   34.01    9.11
 -14  21  -1   19.61    7.37
 -14 -21   1   37.18    8.13
  14 -21  -1   38.22    8.13
  14 -21  -1   29.93    7.27
 -14 -21  -3   33.71    8.54
 -14  21   3   26.17    6.92
  14 -21   3   27.41    9.36
  14 -21   3   21.18    9.84
  14 -21   3   27.12    7.22
 -14 -21   3   29.29    8.16
 -14  21  -3   19.49    7.33
  14 -21  -3   39.00    6.78
  14  21   3   32.27    7.71
  14 -21  -3   28.75    7.32
  14  21   3   40.73    9.95
  14 -21   5   19.95   10.02
  14 -21   5   -3.35    9.53
 -14 -21  -5   34.40    8.46
 -14  21   5   27.54    6.87
  14  21   5   24.55    9.97
 -14  21  -5   -2.92    6.73
 -14 -21   5   13.66    7.99
  14 -21  -5   11.12    7.49
  14 -21   7   -4.26    9.99
  14 -21   7    9.93   11.13
  14  21   7   25.96   11.04
  14 -21  -7   -3.85    7.87
 -15  21   0   15.41    7.01
  15 -21   0   11.56    7.31
  15 -21   0   24.19    8.44
 -15 -21   0   16.99    7.92
 -15  21   2    8.51    6.58
  15 -21   2   24.42    7.50
  15 -21   2   16.40    9.10
 -15 -21  -2   10.54    8.53
  15 -21  -2   25.60    7.29
 -15  21  -2    9.02    7.25
  15  21   2   24.53    8.11
 -15 -21   2   10.74    7.91
  15 -21  -2    9.74    7.30
  15 -21   4    6.47    9.99
  15 -21   4   10.00    9.42
  15 -21   4   14.29    6.04
 -15  21   4   -0.72    6.81
 -15 -21  -4   18.32    8.61
  15  21   4   17.87   10.05
 -15 -21   4    5.62    8.15
  15  21   4   11.18    6.95
 -15  21  -4   -0.85    7.04
  15 -21  -4    0.18    7.33
  15 -21  -4    7.50    5.84
  15 -21   6  -10.06    9.62
 -15 -21  -6   14.43    8.49
  15 -21   6   13.34   10.54
 -15  21  -6  -18.16    6.65
  15 -21  -6   -1.50    7.69
  15  21   6   18.51   10.34
  16 -21   1   19.72    7.54
  16 -21   1   24.94    8.98
 -16  21   1   16.37    6.98
 -16 -21  -1   23.72    8.29
  16 -21  -1   25.35    7.23
 -16 -21   1   16.16    8.11
 -16  21  -1   20.22    7.38
  16  21   1   21.63    8.21
  16 -21   3   11.58    9.41
  16 -21   3   13.08    7.13
 -16  21   3    8.68    6.96
 -16 -21  -3   16.42    8.85
 -16  21  -3    1.88    7.21
  16  21   3   16.69    7.99
  16 -21  -3   17.59    6.69
  16 -21  -3   10.46    7.12
 -16 -21   3   14.39    8.33
 -16  21   5   10.48    6.87
  16 -21   5   -4.69    9.97
  16 -21   5   12.32   10.05
 -16 -21  -5   23.16    8.93
  16 -21  -5   10.83    7.75
 -16 -21   5   -1.28    8.42
 -16  21  -5   -2.73    6.79
  16  21   5   34.30   10.54
 -17  21   0    9.28    7.29
  17  21   0   20.16    8.55
 -17 -21   0   30.34    8.63
  17 -21   0   11.18    7.45
  17 -21   2   12.12    7.70
 -17 -21  -2   11.62    8.58
  17 -21   2   19.51    9.38
 -17  21   2   10.08    6.94
 -17 -21   2   14.99    8.35
 -17  21  -2    7.62    7.31
  17 -21  -2    6.21    7.23
  17  21   2   15.70    8.10
  17 -21   4   11.64    6.26
 -17  21   4   -1.59    7.04
  17 -21   4   13.04    9.75
 -17 -21  -4    5.47    8.92
  17 -21  -4   -6.62    7.42
 -17 -21   4    0.63    8.52
  17  21   4    6.14    7.17
 -17  21  -4   -3.77    6.96
  17 -21   6    4.40   10.95
  17 -21   6   -4.96   10.88
 -17 -21  -6    9.31    9.09
  17  21   6   18.38   11.02
  17 -21  -6   10.34    8.23
 -17  21  -6   -8.60    7.02
 -18 -21  -1    6.25    8.74
  18 -21   1    9.86    7.79
  18  21  -1   13.08    8.76
 -18  21   1    0.10    6.93
 -18 -21   1    6.18    8.50
  18 -21  -1   11.28    7.39
 -18  21  -1    2.07    7.25
  18  21   1   11.56    8.25
  18 -21   3   16.78    9.86
 -18  21   3    6.45    6.89
  18 -21   3    5.60    7.50
 -18 -21  -3   12.02    8.77
  18 -21  -3    2.23    7.31
 -18 -21   3   12.70    8.73
  18  21   3   11.63    8.16
 -18  21  -3   -2.83    7.28
  18 -21   5    4.97   10.53
 -18 -21  -5   24.03    9.17
 -18  21   5    5.73    7.12
 -18 -21   5    1.18    8.99
  18 -21  -5    4.36    8.08
 -18  21  -5   -7.94    7.01
  19  21   0   11.56    8.44
 -19  21   0    2.85    7.26
  19 -21   0    6.60    7.74
 -19 -21   0    3.68    8.65
  19  21  -2    9.44    9.37
  19 -21   2   -0.61    8.06
 -19  21   2    1.36    7.00
 -19 -21  -2   12.26    9.15
  19  21   2   11.46    8.65
  19 -21  -2    3.41    7.14
 -19 -21   2    7.95    8.69
 -19  21  -2   -1.92    7.42
 -19  21   4    0.33    7.34
  19 -21   4    3.10   10.13
 -19 -21  -4   14.43    9.34
 -19 -21   4    3.98    9.18
  19 -21  -4   -4.63    7.53
 -19  21  -4    3.97    7.19
  20 -21   1   -0.06    8.09
 -20  21   1   -1.88    7.09
  20  21  -1    9.38    8.74
 -20 -21  -1    7.99    8.96
 -20 -21   1    0.83    8.71
  20  21   1   10.61    8.67
 -20  21  -1   -3.88    7.36
  20 -21  -1    0.52    7.54
 -20 -21  -3    9.45    9.48
  20 -21   3   -1.35    9.97
  20  21  -3   12.59    9.74
 -20  21   3    0.02    7.18
  20 -21   3   -1.99    7.84
 -20 -21   3    4.98    9.07
  20  21   3   11.73    8.62
 -20  21  -3   -4.34    7.59
  20 -21  -3    8.44    7.40
  21 -21   0    5.58    8.12
  21  21   0   12.35    8.85
 -21  21   0    1.60    7.42
 -21 -21   0   11.75    9.14
 -21  21   2    1.18    7.29
 -21 -21  -2    7.51    9.52
  21  21  -2    9.31    9.28
  21 -21   2    1.42    8.54
 -21  21  -2   -1.74    7.64
  21  21   2   10.29    9.09
  21 -21  -2   -4.67    7.37
 -21 -21   2   -3.63    9.34
 -21  21   4   -2.61    7.91
 -21 -21  -4   18.58   10.30
  21 -21   4   12.75   11.02
  21  21  -4   13.66   10.96
 -21  21  -4   -2.31    7.52
 -21 -21   4  -15.65    9.99
  21 -21  -4   -4.20    8.03
 -22 -21  -1   -0.71    9.89
 -22  21   1  -11.81    7.30
  22  21  -1    6.08    9.12
  22 -21   1   -6.20    8.61
 -22 -21   1    0.48    9.34
  22  21   1    3.46    9.25
  22 -21  -1   -6.27    7.98
 -22  21  -1   -4.70    7.74
 -22  21   3   -1.16    7.78
 -22 -21  -3    9.17   10.31
  22 -21   3    6.04   10.47
  22 -21   3   11.50    8.42
  22  21  -3    8.89   10.13
 -22 -21   3   -1.89    9.99
 -22  21  -3   -2.95    8.28
  22  21   3    5.98    8.95
  22 -21  -3   -2.00    7.75
 -23 -21   0   -2.01    9.74
  23  21   0   -2.26    9.53
 -23  21   0    3.80    7.87
  23 -21   0    2.86    8.65
 -23 -21  -2    8.10   10.73
  23  21  -2    7.19    9.81
  23 -21   2    6.36    9.14
 -23  21   2   -0.18    7.85
 -23  21  -2    0.76    8.00
  23  21   2   10.68    9.88
  23 -21  -2   -0.57    7.90
   0  22   0   55.42    8.73
   0 -22   0   62.00    8.95
   0 -22   0   49.92    7.30
   0  22   0   47.89    7.71
   0 -22   2   67.39   10.77
   0 -22   2   71.55   10.20
   0  22   2   67.58    9.89
   0  22  -2   63.40    8.83
   0  22   2   75.51   10.30
   0 -22  -2   64.73    8.01
   0 -22   2   56.26    7.70
   0  22   2   47.25    7.45
   0 -22   4   18.60    9.59
   0 -22   4   21.25    6.08
   0  22   4   14.55    9.67
   0  22   4   25.53   10.53
   0 -22   4   16.34   10.61
   0  22   4   20.39    6.06
   0  22  -4   27.43    8.27
   0 -22  -4   14.64    7.41
   0 -22   6    9.41    9.86
   0  22   6    6.43    9.31
   0  22   6   10.15   10.47
   0 -22  -6   15.02    7.58
   0 -22   6   14.09    9.63
   0  22  -6   19.42    6.83
   0 -22   8   10.28   10.26
   0 -22   8    4.58   10.08
   0  22   8   -5.25    9.82
   0  22   8    1.93   11.29
   1  22  -1  160.86   14.72
  -1  22   1  149.27   14.69
   1 -22   1  156.05   13.17
  -1 -22  -1  148.17   13.38
   1 -22   1  154.81   14.55
  -1  22   1  146.49   12.99
  -1  22   1  141.99   15.18
   1 -22   1  177.30   15.69
  -1 -22   1  153.80   15.26
   1  22   1  150.56   13.48
  -1  22  -1  167.41   14.55
   1 -22  -1  145.27   13.53
  -1 -22   1  132.42   14.72
   1  22   1  158.78   14.32
   1  22   1  162.16   14.31
  -1 -22   1  141.66   13.49
   1  22  -3   88.05    9.17
   1 -22   3   62.70   11.69
   1 -22   3   67.75    7.69
  -1  22   3   89.22   10.21
   1 -22   3   84.25   12.96
  -1  22   3   99.09   12.86
  -1 -22  -3   72.84    8.67
  -1  22   3   85.28   13.36
  -1  22  -3   63.60    9.16
  -1 -22   3   98.89   12.91
  -1 -22   3   77.45    7.84
   1  22   3   69.52    7.68
  -1 -22   3  100.89   14.13
   1  22   3   61.13   10.83
   1  22   3   82.49   12.83
   1 -22  -3   94.01   11.56
  -1  22   5   12.55    9.86
   1 -22   5   31.42    9.63
   1 -22   5   17.41   10.30
  -1  22   5   14.57   10.20
   1  22  -5   24.24    7.47
  -1 -22  -5   23.52    7.60
  -1  22  -5   23.23    7.69
  -1 -22   5   22.04    9.05
   1  22   5   21.30    9.54
   1 -22  -5   21.99    7.60
   1  22   5   23.58   10.74
  -1 -22   5   17.64   10.33
  -1  22   7    3.80    9.87
   1 -22   7    3.86   10.56
  -1  22   7    8.38   10.96
   1 -22   7   13.94    9.88
   1  22   7    3.13   11.17
  -1 -22   7   10.16    9.80
  -1 -22   7   15.16   10.18
   1  22   7    7.51    9.86
  -2 -22   0   48.65    7.50
   2 -22   0   48.11    7.23
  -2 -22   0   57.95    8.76
   2  22   0   48.52    7.80
  -2  22   0   47.81    7.82
  -2  22   0   54.17    8.27
   2  22   0   55.83    8.41
   2 -22   0   59.60    9.12
  -2  22   2   81.07    8.19
  -2 -22  -2   79.97    8.45
  -2  22   2   84.27   12.75
   2 -22   2   89.58   12.66
   2 -22   2   98.96   14.64
   2 -22   2   81.30    8.24
  -2  22   2   83.91   10.65
   2  22  -2   78.26    9.14
  -2  22  -2   77.66    9.29
  -2 -22   2   75.93    8.12
  -2 -22   2   85.36   12.83
   2  22   2   93.98   13.67
   2 -22  -2   82.35    8.30
   2  22   2   95.19   12.27
  -2 -22   2   96.63   13.85
   2  22   2   79.12    8.19
  -2  22   4   14.50   10.09
  -2  22   4    6.71    6.17
  -2 -22  -4    5.45    7.74
   2 -22   4    7.67   10.56
   2 -22   4    7.60    5.82
   2  22  -4   13.10    7.81
  -2  22   4    2.16    9.45
   2 -22   4   12.40    9.68
   2  22   4   16.61   10.00
  -2 -22   4   -1.40   10.21
   2  22   4    8.49    5.91
   2 -22  -4    1.60    7.43
  -2  22  -4    7.55    7.92
  -2 -22   4   13.63    9.06
   2  22   4   10.32   10.45
  -2 -22   4    6.73    6.19
  -2  22   6    6.39    9.39
  -2  22   6    4.13   10.37
   2 -22   6    9.55   10.05
   2  22  -6   21.11    6.93
   2 -22   6    4.29   10.43
  -2 -22  -6   14.90    7.59
  -2 -22   6   10.14    9.84
   2 -22  -6   -1.07    7.22
  -2  22  -6    5.57    7.06
   2  22   6    4.29    9.96
  -2 -22   6   13.13    9.44
   2  22   6    9.41   10.96
  -2  22   8    4.60   11.15
  -2  22   8   -7.24    9.97
   2 -22   8    4.30   10.96
   2 -22   8    2.78   10.25
  -2 -22   8   14.03    9.89
   2  22   8   12.38   10.21
  -2 -22   8    9.66   10.23
   2  22   8    3.77   11.61
   3 -22   1   94.29   12.66
  -3 -22  -1  110.79   12.49
   3  22  -1   98.46    9.58
   3 -22   1  115.41   12.01
   3 -22   1  130.59   14.69
  -3  22   1   99.82   13.12
  -3  22   1   94.43   11.84
   3  22   1  122.40   14.12
  -3  22  -1  116.64   12.86
   3  22   1  108.87   12.54
   3  22   1  101.37    8.99
  -3 -22   1   83.61    8.78
  -3 -22   1  104.44   13.50
   3 -22  -1   96.01   12.20
   3 -22   3   81.38   12.55
   3  22  -3   79.97    9.22
   3 -22   3   58.87   11.48
  -3  22   3   83.43   12.58
  -3 -22  -3   73.32    8.47
   3 -22   3   74.95    7.77
  -3  22   3   74.27    7.73
  -3  22   3   72.84   10.58
  -3 -22   3   71.72    7.75
   3  22   3   67.26   10.80
   3 -22  -3   78.67    8.33
   3  22   3   69.03    7.69
  -3  22  -3   66.03    9.13
   3  22   3   85.19   12.14
  -3 -22   3   89.46   11.61
  -3 -22   3   95.90   12.91
   3 -22   5   30.58    9.84
  -3  22   5   30.94   10.12
  -3  22   5   61.28    7.06
  -3  22   5   25.86    9.51
  -3 -22  -5   37.73    7.79
   3  22  -5   31.97    7.73
   3 -22   5   34.03   10.30
  -3  22  -5   36.36    7.78
  -3 -22   5   31.60    9.02
   3  22   5   30.80    9.99
   3 -22  -5   28.95    7.43
  -3 -22   5   34.77   10.44
   3  22   5   34.04   11.12
  -3  22   7    8.86    9.94
  -3  22   7    3.04   10.11
   3  22  -7   29.80    6.81
   3 -22   7    4.29   11.06
   3 -22   7   -5.40    9.97
   3 -22  -7   -3.83    7.05
   3  22   7   -0.05   10.31
   3  22   7   -0.35   11.23
  -3 -22   7   13.46    9.31
  -3 -22   7    6.85   10.12
   4 -22   0   83.51   10.14
   4 -22   0   70.50    8.01
   4  22   0   62.90    8.44
  -4  22   0   71.08    8.46
   4 -22   0   81.47    8.52
  -4 -22   0   81.47    9.85
   4  22   0   80.15   11.50
  -4 -22   0   71.05    8.10
  -4  22   2   25.00    7.03
  -4  22   2   27.56    8.95
   4 -22   2   32.89    9.35
   4 -22   2   40.43    8.85
  -4  22   2   39.76    9.39
  -4 -22  -2   34.07    7.58
   4  22  -2   18.36    8.20
   4 -22   2   30.64    7.14
   4 -22   2   46.56   10.03
  -4 -22   2   35.17    7.23
   4  22   2   39.11    7.11
   4 -22  -2   29.62    7.31
   4  22   2   40.12    9.47
  -4 -22   2   36.69   10.06
  -4 -22   2   34.85    9.05
  -4  22  -2   39.20    8.14
   4  22   2   41.42    9.21
   4 -22   4    6.20    5.71
  -4  22   4    5.67    9.02
   4  22  -4   -3.82    7.90
  -4  22   4    5.84    6.14
   4 -22   4   11.82    9.52
  -4 -22  -4    8.26    7.87
   4 -22   4    7.65    9.58
   4 -22   4   -3.70   10.19
  -4  22   4    5.44    9.38
   4  22   4    6.83    9.77
   4  22   4    8.44    9.60
  -4 -22   4    4.13   10.63
  -4  22  -4   -0.15    7.68
   4  22   4    6.82    5.80
  -4 -22   4   14.52    8.75
  -4 -22   4    9.46    6.30
   4 -22  -4    9.05    7.35
   4 -22   6    6.11    9.77
  -4 -22  -6   18.63    7.48
   4 -22   6    4.11   10.68
   4  22  -6   31.21    7.00
  -4  22   6   16.11   10.39
  -4  22   6   11.65    9.33
   4  22   6    1.30   10.93
  -4 -22   6   22.54    8.51
   4  22   6    9.62   10.08
  -4  22  -6    7.40    7.05
  -4 -22   6   21.63   10.19
   4 -22  -6   15.44    7.09
  -4  22   8   -6.94   10.17
   4 -22   8    2.10   10.44
  -4  22   8    7.04   10.73
   4 -22   8   -6.22   11.07
   4  22   8    0.74   10.63
  -4 -22   8   13.99   10.72
  -4 -22   8   17.07    9.92
   4  22   8    4.00   11.80
  -5  22   1   96.93    8.82
  -5 -22  -1   90.99    8.97
   5 -22   1   89.81   12.97
  -5  22   1  103.49   12.86
   5  22  -1   96.08    9.58
   5 -22   1   83.51    8.69
   5 -22   1  100.07   14.48
   5 -22   1  105.04   10.01
   5 -22  -1   98.25   10.22
  -5 -22   1   88.06    8.83
   5 -22  -1  101.14   12.28
  -5 -22   1  109.88   13.43
  -5  22  -1  111.80   12.71
   5  22   1  103.21   13.84
   5  22   1   91.78    8.89
   5  22   1   91.38   12.57
  -5  22   3   77.03   10.70
   5 -22   3   62.30    7.62
  -5 -22  -3   67.45    8.53
   5 -22   3   55.74   10.21
  -5  22   3   64.44    7.50
   5 -22   3   68.67   10.31
   5 -22   3   53.56   11.64
  -5  22   3   83.48   10.29
   5  22  -3   70.15    9.10
  -5 -22   3   70.37    7.90
  -5 -22   3   88.33   11.37
   5  22   3   63.43   10.52
  -5 -22   3   86.23   12.59
   5  22   3   64.62    7.58
  -5  22  -3   52.15    8.57
   5 -22  -3   69.96    8.06
   5  22   3   53.92   10.61
  -5  22   5   43.16   10.53
   5 -22   5   17.11    9.72
  -5 -22  -5   38.83    8.08
  -5  22   5   70.03    8.17
   5 -22   5   43.35    9.91
  -5  22   5   51.64   10.07
   5  22  -5   65.78    8.09
   5 -22   5   13.59   10.52
   5  22   5   21.60    9.69
   5 -22  -5   41.20    7.37
  -5 -22   5   42.66   10.66
   5  22   5   30.59   10.74
  -5 -22   5   42.73    6.30
  -5 -22   5   54.22    9.28
  -5  22  -5   28.08    7.47
   5 -22   7    2.17   10.94
   5 -22   7    2.95    9.84
  -5  22   7   -1.94   10.37
   5  22  -7   33.41    6.39
  -5  22   7   10.19    9.97
   5  22   7    8.78   10.23
  -5 -22   7    6.76   10.44
   5  22   7    8.47   11.38
  -5 -22   7   12.88    9.32
   5 -22  -7   -4.42    7.01
  -6 -22   0   34.32    7.48
   6 -22   0   40.25    9.06
   6 -22   0   41.34    7.96
   6 -22   0   37.04    7.35
   6  22   0   40.68    8.52
  -6  22   0   47.95    7.75
   6  22   0   37.61    7.83
   6 -22   2   37.41    7.27
   6  22  -2   31.69    8.34
  -6  22   2   39.77    9.31
   6 -22   2   43.36   10.20
  -6  22   2   34.39    7.16
  -6 -22  -2   40.16    8.02
   6 -22   2   45.90    9.91
   6 -22   2   44.14    9.00
  -6  22   2   37.39    9.20
   6 -22  -2   45.95    6.55
  -6 -22   2   39.32    7.34
   6 -22  -2   38.89    7.50
   6  22   2   33.00    7.51
  -6 -22   2   54.50    9.30
   6  22   2   44.12    9.49
  -6 -22   2   55.89   10.05
   6  22   2   46.49    9.57
  -6  22  -2   40.14    8.10
   6 -22   4    8.51    9.41
   6  22  -4   11.72    7.63
  -6  22   4    5.75    9.37
   6 -22   4   21.15    9.73
  -6  22   4   19.14    9.48
   6 -22   4   13.89    5.79
  -6  22   4   15.08    6.27
  -6 -22  -4   10.60    7.90
   6 -22   4   13.26   10.08
  -6 -22   4   17.67   10.20
  -6  22  -4   14.09    7.57
  -6 -22   4   16.57    8.80
   6 -22  -4   15.84    7.23
  -6 -22   4   13.32    6.69
   6  22   4    6.68    9.28
   6  22   4   15.17    9.58
   6 -22   6   28.27   10.18
   6  22  -6   42.34    7.89
   6 -22   6    1.33   10.09
  -6  22   6   26.54   10.49
  -6 -22  -6   21.30    7.63
  -6  22   6   17.20    9.45
   6 -22   6   -9.80   10.90
   6 -22  -6   12.09    7.11
   6  22   6   -1.81    9.84
  -6  22  -6    0.86    6.81
  -6 -22   6   30.15    8.50
   6  22   6   11.06   10.47
  -6 -22   6   20.54    9.58
   6 -22   8    7.13   10.24
   6 -22   8   -6.88   11.54
  -6  22   8  -10.97   10.88
   6  22   8    9.41   11.15
   6  22   8    5.76   10.64
  -6 -22   8    8.69   10.98
   7  22  -1  117.60   14.19
   7 -22   1  115.31   15.24
   7 -22   1   99.83   12.34
  -7 -22  -1  106.10   12.97
  -7  22   1  102.00   12.66
   7 -22   1   94.97   13.19
  -7  22   1  117.58   12.78
   7 -22   1  117.83   12.60
   7  22   1  111.78   12.97
  -7 -22   1  123.11   13.90
   7 -22  -1  107.65   10.68
   7  22   1  119.88   13.01
   7  22   1  110.17   14.06
   7 -22  -1  124.60   12.44
  -7  22  -1  116.47   13.31
  -7 -22   1  100.14    9.40
   7 -22   3   87.66   13.41
   7 -22   3   90.81   10.59
   7 -22   3   86.85   11.02
  -7  22   3   88.35   11.64
   7 -22   3   64.70   11.75
   7  22  -3   89.83    9.96
  -7  22   3   91.11   13.24
  -7  22   3   97.02   11.29
  -7 -22  -3   85.13    9.37
   7  22   3   99.18   14.09
  -7 -22   3   97.66   13.11
   7  22   3   94.60   10.05
  -7 -22   3   95.80   11.67
   7 -22  -3   99.34   11.67
   7  22   3   87.46   13.33
   7 -22  -3   76.02    7.96
  -7 -22   3   97.65   13.61
  -7  22  -3   99.09   12.13
   7 -22   5   45.81    9.92
   7 -22   5   15.14   10.09
   7 -22   5   12.42   10.90
  -7  22   5   21.34    9.98
  -7  22   5   23.74    9.92
   7  22  -5   37.12    8.28
  -7 -22  -5   33.84    7.94
   7  22   5   20.66   10.11
  -7 -22   5   31.30    8.65
   7  22   5   17.85    9.22
  -7 -22   5   29.75    9.87
   7 -22  -5   26.60    7.37
  -7  22  -5   17.24    7.25
  -7 -22   5   17.74    6.57
   7 -22   7    2.59    9.78
   7 -22   7   -1.17   11.35
   7  22  -7   27.54    8.06
  -7  22   7    4.93   10.56
   7 -22   7   16.07   10.35
   7  22   7    7.95   10.62
   7 -22  -7   -6.60    7.25
  -7 -22   7   12.14   10.73
   7  22   7    5.93   10.03
   8 -22   0   16.42    7.97
   8 -22   0   11.00    8.66
   8 -22   0   20.22    7.03
  -8 -22   0   12.11    7.43
   8  22   0   20.52    8.28
  -8  22   0   15.08    7.38
   8  22   0    7.13    7.98
  -8  22   2   29.30    8.84
   8 -22   2   44.83    9.36
   8 -22   2   43.17    9.88
   8 -22   2   46.89   10.03
   8 -22   2   36.12    7.60
  -8  22   2   29.66    7.12
   8  22  -2   28.40    8.84
  -8 -22  -2   34.34    8.09
  -8 -22   2   38.86   10.10
   8  22   2   49.36    9.78
  -8 -22   2   30.75    7.67
   8  22   2   49.06    7.69
   8 -22  -2   37.04    6.88
  -8  22  -2   37.01    8.14
   8  22   2   44.20    9.58
   8 -22  -2   30.74    7.37
  -8  22   4   41.55   10.21
  -8 -22  -4   41.36    8.24
   8  22  -4   47.93    8.69
   8 -22   4   52.90    9.87
  -8  22   4   50.74    6.81
   8 -22   4   37.76    6.03
   8 -22   4   14.91    9.90
   8 -22   4   21.33   10.27
  -8 -22   4   45.81    7.24
   8  22   4   27.93    9.39
  -8  22  -4   24.88    7.60
   8  22   4   36.82   10.26
  -8 -22   4   46.77   10.56
   8 -22  -4   33.19    7.55
   8 -22   6   -2.29   11.46
  -8 -22  -6   27.98    7.99
   8  22  -6   27.35    8.22
   8 -22   6    1.86    9.62
  -8  22   6    8.83    9.83
   8 -22   6   18.74   10.19
  -8 -22   6   15.85    9.80
  -8  22  -6   -4.08    6.91
   8 -22  -6    6.70    7.35
   8  22   6   10.78    9.89
   8  22   6   14.97   10.33
   8 -22   8   -8.53   12.81
  -8  22   8  -13.80   10.85
   8 -22   8    3.34   10.76
   8  22   8   14.86   11.52
   8  22   8    7.23   10.56
  -8 -22   8    7.71   11.38
   9  22  -1   97.06   10.06
  -9  22   1   98.93   12.10
   9 -22   1  106.24   10.40
   9 -22   1   97.36   14.52
   9 -22   1   85.33    9.08
  -9 -22  -1   81.97    9.41
   9 -22  -1  120.45   12.36
  -9 -22   1   88.41    9.09
  -9 -22   1  104.79   13.57
   9 -22  -1  103.26   10.74
  -9  22  -1   82.60    9.27
   9  22   1   91.07    9.43
   9  22   1  105.61   12.84
   9 -22   3   27.60   10.34
  -9  22   3   52.34    7.29
   9 -22   3   50.29    9.76
   9 -22   3   31.58   10.44
  -9 -22  -3   48.60    8.62
  -9  22   3   59.49   10.36
   9 -22   3   47.05    7.58
   9  22  -3   49.69    9.24
   9  22   3   45.96   10.45
  -9  22  -3   35.72    7.75
   9 -22  -3   51.31    6.28
  -9 -22   3   51.06    7.93
   9  22   3   57.18    9.99
   9 -22  -3   55.85    7.87
  -9 -22   3   66.49   11.17
   9  22  -5   48.08    8.89
  -9 -22  -5   48.92    8.28
  -9  22   5   45.08    6.33
   9 -22   5    2.78    9.56
   9 -22   5   38.90    9.86
   9 -22   5   -2.57   11.19
  -9  22   5   33.98   10.15
  -9 -22   5   37.38   10.33
   9 -22  -5   20.31    7.38
  -9 -22   5   25.14    7.15
   9  22   5   20.34   10.22
   9  22   5   24.39    9.60
  -9  22  -5   15.54    7.07
   9 -22   7  -24.33   11.94
   9  22  -7   15.22    8.52
   9 -22   7   -8.04    9.74
   9 -22   7   13.97   10.79
  -9  22   7   -6.58   10.29
   9 -22  -7   -7.45    7.26
   9  22   7   15.79   10.74
  -9 -22   7   11.94   11.07
   9  22   7    4.10   10.12
  10 -22   0   23.21    8.44
  10 -22   0   26.77    7.43
 -10  22   0   23.78    7.57
 -10 -22   0   15.48    7.79
  10  22   0   28.13    8.40
  10  22  -2   34.03    9.07
  10 -22   2   26.79    7.62
 -10 -22  -2   29.71    8.27
 -10  22   2   26.38    7.15
  10 -22   2   29.15    9.98
  10 -22   2   34.61    9.38
  10 -22  -2   21.53    7.35
 -10 -22   2   33.72   10.20
  10  22   2   36.58    9.64
  10 -22  -2   38.68    7.22
 -10  22  -2   26.66    7.73
 -10 -22   2   24.68    7.73
 -10  22   4   14.24    9.38
 -10  22   4   13.34    6.40
  10 -22   4   27.96    5.88
 -10 -22  -4   20.44    8.05
  10  22  -4   13.32    8.58
  10 -22   4   19.62    9.28
  10 -22   4    4.52    9.34
  10 -22   4    3.35    9.53
 -10  22  -4   13.82    7.08
  10 -22  -4   15.26    7.14
 -10 -22   4   15.89    7.32
 -10 -22   4   28.35   10.22
  10  22   4   24.84    9.69
  10  22   4   22.80    9.25
  10 -22  -4   13.42    4.83
  10  22   4   26.17    6.66
  10 -22   6   15.97    9.92
  10  22  -6   17.52    8.84
  10 -22   6  -18.80   11.69
  10 -22   6   -5.99    9.40
 -10  22   6    7.57   10.30
 -10 -22  -6   34.01    8.16
  10  22   6   11.64    9.78
  10  22   6   14.88   10.50
 -10  22  -6   -9.17    6.55
  10 -22  -6    0.29    7.46
 -10 -22   6   11.37   11.07
  10 -22   8   -1.93   10.63
  10  22   8   20.98   11.42
 -10 -22   8    9.74   11.70
  10  22   8    6.26   10.99
 -11 -22  -1   95.89    9.88
  11 -22   1  103.62   12.64
 -11  22   1  115.72   12.69
  11 -22   1   92.44   11.88
  11  22  -1  109.59   10.39
  11 -22   1  100.93   12.12
 -11  22  -1  111.79   12.45
  11 -22  -1   98.03   10.80
  11 -22  -1   87.34    8.98
  11  22   1  101.09   12.46
 -11 -22   1   92.67    9.72
  11 -22   3   25.73    9.90
 -11 -22  -3   28.60    8.28
  11 -22   3   35.53    7.11
  11 -22   3   34.78    9.28
  11  22  -3   25.55    8.68
 -11  22   3   24.34    6.77
  11 -22  -3   26.40    7.31
  11  22   3   35.05    9.75
  11 -22  -3   35.61    6.31
 -11 -22   3   29.42    7.66
 -11  22  -3   24.72    7.44
  11 -22   5    0.28    9.75
  11 -22   5   27.33    9.81
  11 -22   5   -5.41   11.11
 -11 -22  -5   39.85    8.34
  11  22  -5   28.69    8.78
 -11  22   5   19.69   10.21
 -11  22   5   38.12    6.57
  11  22   5   17.12    9.82
 -11  22  -5    4.06    6.90
  11 -22  -5   20.09    7.55
 -11 -22   5   21.27    7.43
 -11 -22   5   21.70   11.10
  11  22   5   20.58    9.15
  11 -22   7    6.19   11.10
  11 -22   7  -26.33   11.89
 -11  22   7   -9.65   10.54
  11  22  -7  -17.85    8.92
  11 -22   7   -6.92    9.51
 -11 -22   7    7.94   11.28
  11  22   7   11.21   10.04
  11  22   7   15.43   10.58
  11 -22  -7   -2.96    7.52
  12  22   0   23.30    8.27
 -12  22   0   11.89    7.18
  12 -22   0   10.50    8.47
  12 -22   0   10.83    7.14
 -12 -22   0    3.59    7.90
 -12  22   2   16.53    6.96
 -12 -22  -2   19.47    8.23
  12 -22   2   13.60    9.77
  12 -22   2   20.99    9.21
  12  22  -2   18.18    8.67
  12 -22   2   14.56    7.36
 -12 -22   2   25.10    7.68
  12  22   2   36.37    9.67
  12 -22  -2   25.71    7.18
 -12  22  -2   23.92    7.47
  12 -22  -2   27.14    7.29
  12 -22   4   12.42    5.81
  12  22  -4   15.46    9.09
  12 -22   4    5.28    9.76
 -12  22   4   12.51    6.54
  12 -22   4   10.00    9.27
 -12 -22  -4   20.52    8.28
 -12 -22   4   11.88    7.84
 -12  22  -4    4.54    7.01
  12  22   4   18.86    9.49
  12 -22  -4    3.55    7.26
  12  22   4   16.70    6.74
  12 -22  -4    8.10    5.23
 -12 -22  -6   29.88    8.32
  12 -22   6   -5.55    9.63
  12  22  -6  -12.80    8.94
  12 -22   6   13.15   10.15
  12  22   6   15.18   10.01
 -12 -22   6   11.04   11.20
 -12  22  -6   -8.82    6.65
  12 -22  -6    4.17    7.21
  13 -22   1   21.18    8.86
 -13 -22  -1   25.77    8.28
 -13  22   1   18.50    6.83
  13  22  -1   33.01    8.60
  13 -22   1   13.97    7.48
  13 -22  -1   27.81    7.84
  13 -22  -1   26.25    7.21
 -13  22  -1   23.44    7.45
 -13 -22   1   25.07    7.84
  13  22  -3   25.02    8.82
  13 -22   3   27.99    7.35
  13 -22   3   31.03    9.37
 -13  22   3   22.71    6.82
 -13 -22  -3   31.83    8.49
  13 -22   3   16.85    9.88
  13  22   3   29.82    9.86
  13  22   3   36.18    7.94
 -13  22  -3   19.23    7.28
  13 -22  -3   26.94    7.41
  13 -22  -3   33.56    6.60
 -13 -22   3   34.25    8.06
  13 -22   5   -0.67    9.77
  13  22  -5    8.09    8.96
 -13  22   5   24.44    6.77
  13 -22   5   29.18    9.96
 -13 -22  -5   28.55    8.45
  13 -22  -5   15.93    7.20
  13  22   5   24.75   10.03
 -13 -22   5   18.43    7.94
 -13  22  -5   -3.50    6.81
  13 -22   7    4.48   11.06
  13 -22   7   -3.85   10.03
  13  22   7   19.98   10.77
  13 -22  -7   -3.84    7.46
  14 -22   0   24.79    7.38
 -14  22   0   28.37    7.35
 -14 -22   0   34.42    8.20
  14 -22   0   27.18    8.46
  14 -22   2   24.74    9.18
  14 -22   2   15.07    7.53
 -14 -22  -2   22.68    8.42
 -14  22   2   28.40    7.12
  14 -22  -2   32.52    7.32
  14 -22  -2   20.43    7.25
  14  22   2   19.55    8.14
 -14  22  -2   18.50    7.34
 -14 -22   2   18.89    7.88
 -14 -22  -4    6.83    8.41
  14  22  -4   10.87    9.23
  14 -22   4   13.68    6.25
 -14  22   4   -2.66    6.59
  14 -22   4    7.46    9.42
  14 -22   4   -0.10    9.61
  14  22   4    9.49    6.96
 -14  22  -4    1.84    7.12
  14 -22  -4    3.25    7.09
 -14 -22   4    1.06    8.24
  14  22   4    5.10    9.46
 -14 -22  -6   26.81    8.60
  14 -22   6  -15.20    9.76
  14 -22   6   13.51   10.47
  14  22   6   17.54   10.28
  14 -22  -6   -2.04    7.28
 -14  22  -6  -11.42    6.77
  15 -22   1   17.57    7.53
 -15  22   1   16.59    6.99
 -15 -22  -1   20.91    8.35
  15 -22   1   21.82    8.86
  15 -22  -1   13.41    7.16
 -15  22  -1   21.74    7.44
 -15 -22   1   14.85    7.98
  15 -22  -1   23.72    7.86
 -15 -22  -3   14.63    8.68
  15 -22   3   13.31    9.08
  15 -22   3    8.03    7.24
 -15  22   3    2.62    6.80
  15 -22  -3    9.56    6.52
 -15  22  -3   -1.83    7.15
  15  22   3   27.84    7.89
 -15 -22   3   15.75    8.22
  15 -22  -3    8.17    7.35
 -15  22   5   22.91    6.98
  15 -22   5   -3.47    9.81
 -15 -22  -5   23.65    8.74
  15 -22   5   17.98   10.09
 -15  22  -5   -2.54    6.89
  15  22   5   32.38   10.41
  15 -22  -5   10.93    7.29
 -15 -22   5   14.41    8.31
 -16  22   0   19.26    7.19
 -16 -22   0   24.19    8.35
  16 -22   0   25.05    8.56
  16 -22   0   14.17    7.43
 -16  22   2    5.09    6.68
  16 -22   2    7.18    9.17
 -16 -22  -2    9.57    8.68
  16 -22   2   11.71    7.82
  16 -22  -2   11.45    7.19
 -16 -22   2    0.20    8.15
  16  22   2    7.79    8.11
  16 -22  -2    7.66    7.21
 -16  22  -2    7.61    7.39
 -16 -22  -4    7.83    8.85
  16 -22   4    3.09    9.56
 -16  22   4    2.17    6.90
  16 -22   4    7.61    5.93
 -16 -22   4   -1.65    8.51
  16  22   4    1.52    7.24
  16 -22  -4   -0.43    7.14
 -16  22  -4   -6.23    7.06
  16 -22   6   -8.14   10.39
 -16 -22  -6   16.93    9.02
  16 -22   6   18.82   10.93
  16  22   6   20.32   11.05
  16 -22  -6   -1.50    8.03
 -16  22  -6   -9.24    6.98
 -17  22   1    7.44    7.08
  17 -22   1   16.75    9.00
  17 -22   1    0.32    7.57
 -17 -22  -1   26.50    8.66
 -17  22  -1    5.03    7.30
  17 -22  -1   12.47    7.46
  17  22   1   15.48    8.36
 -17 -22   1    7.52    8.12
  17 -22   3    0.48    7.29
 -17  22   3    5.80    7.06
  17 -22   3    7.81    9.47
 -17 -22  -3   16.00    8.92
  17 -22  -3   12.61    6.70
  17  22   3    8.74    8.13
 -17 -22   3    8.13    8.46
  17 -22  -3   -0.09    7.21
 -17  22  -3   -4.35    7.18
 -17 -22  -5   20.13    9.38
  17 -22   5    8.65   10.21
 -17  22   5    0.31    7.03
 -17  22  -5   -5.60    7.04
 -17 -22   5    3.84    8.90
  17 -22  -5    1.39    7.77
 -18  22   0    7.06    7.34
  18 -22   0   10.66    7.79
  18  22   0   12.66    8.57
 -18 -22   0   14.13    8.75
 -18 -22  -2    2.81    8.91
 -18  22   2    5.77    7.04
  18 -22   2   -0.04    7.89
  18 -22   2   14.58    9.41
 -18 -22   2    6.72    8.59
  18  22   2   12.93    8.48
 -18  22  -2   -0.92    7.38
  18 -22  -2   -1.64    7.46
 -18  22   4   -5.43    7.14
 -18 -22  -4   11.72    9.10
  18 -22   4   15.05    9.73
 -18 -22   4   -3.47    8.97
  18 -22  -4   -1.32    7.43
  18  22   4    0.69    7.39
 -18  22  -4   -5.73    7.23
 -19  22   1   11.13    7.18
 -19 -22  -1   12.21    8.99
  19 -22   1    6.18    7.97
  19  22  -1   17.10    9.08
  19  22   1   12.91    8.50
  19 -22  -1    4.46    7.50
 -19 -22   1    2.81    8.77
 -19  22  -1    0.31    7.50
 -19  22   3    6.89    7.15
  19 -22   3   -0.52    7.64
  19 -22   3    2.49    9.81
 -19 -22  -3   10.27    9.28
  19  22   3   13.12    8.54
 -19  22  -3   -8.67    7.37
 -19 -22   3    1.97    9.06
  19 -22  -3    0.36    7.36
  19 -22   5    9.27   10.81
 -19 -22  -5   16.38    9.45
 -19  22   5   -1.12    7.50
 -19 -22   5  -11.57    9.38
 -19  22  -5  -11.72    7.28
  19 -22  -5    3.30    8.51
  20 -22   0   -4.44    7.75
  20  22   0    6.39    8.61
 -20 -22   0    0.45    9.06
 -20  22   0    3.95    7.42
  20  22  -2    0.05    9.26
 -20 -22  -2    2.83    9.36
 -20  22   2    1.81    7.24
  20 -22   2   10.04    9.50
  20 -22   2    0.95    8.34
 -20  22  -2   -5.16    7.50
  20 -22  -2   -4.55    7.57
  20  22   2    9.77    8.88
 -20 -22   2   -6.97    8.87
 -20  22   4    2.52    7.72
  20 -22   4   10.16   10.40
 -20 -22  -4   20.88    9.99
  20  22  -4    6.75   11.04
  20 -22  -4    2.93    7.73
 -20  22  -4   -0.51    7.38
 -20 -22   4   -3.68    9.68
  21  22  -1    9.35    9.10
 -21 -22  -1    1.24    9.54
 -21  22   1    1.87    7.39
  21 -22   1   -4.15    8.28
  21  22   1   10.18    9.09
  21 -22  -1    2.16    7.73
 -21  22  -1   -1.33    7.63
 -21 -22   1    4.82    9.35
  21  22  -3   22.00   10.23
 -21  22   3    0.05    7.45
  21 -22   3   -4.11    8.28
  21 -22   3    5.07   10.33
 -21 -22  -3    7.06   10.06
  21 -22  -3   -4.47    7.45
 -21 -22   3    7.86    9.70
  21  22   3    7.11    8.97
 -21  22  -3    0.21    7.92
 -22  22   0   -4.72    7.61
  22  22   0    7.44    9.47
 -22 -22   0    4.82    9.77
  22 -22   0   -2.59    8.34
 -22 -22  -2   -0.61   10.26
  22  22  -2   18.12    9.78
 -22  22   2    3.12    7.71
  22 -22   2    2.80    9.20
  22 -22   2   16.64   10.26
  22 -22  -2   -9.41    7.98
 -22 -22   2    3.49    9.94
 -22  22  -2    3.90    7.90
  22  22   2   14.45    9.72
  23 -22   1   -8.79    9.10
 -23 -22  -1   -2.20   10.27
 -23  22   1   -3.65    7.89
  23  22  -1    6.17    9.79
 -23  22  -1  -11.74    8.01
  23 -22  -1   -5.61    8.27
  23  22   1    6.32    9.83
 -23 -22   1    3.86   10.23
   0  23   1   98.78   12.31
   0 -23   1  102.31   12.53
   0  23   1   93.64   11.57
   0 -23   1  112.65   14.09
   0 -23  -1  101.11   11.79
   0 -23   1   90.75   12.79
   0  23  -1   97.39    9.74
   0 -23  -3   31.85    7.86
   0  23   3   42.99   10.36
   0  23   3   31.26    6.95
   0  23  -3   30.58    8.55
   0 -23   3   30.39    9.86
   0  23   3   34.93    9.91
   0 -23   3   37.94   10.82
   0  23   5   12.95   10.67
   0 -23   5   13.76   10.22
   0 -23   5   11.48    9.02
   0 -23  -5   15.60    7.40
   0  23  -5   12.36    7.61
   0  23   5   17.62    9.48
   0 -23   7    2.66    9.87
   0 -23   7   13.70   10.30
   0  23   7   12.47   11.27
   0  23   7   13.17   10.47
   1 -23   0  127.44   14.28
   1 -23   0  116.14   12.95
  -1 -23   0  129.36   13.96
   1  23   0  120.95   12.91
  -1 -23   0  121.87   13.09
  -1  23   0  121.28   12.23
  -1  23   0  132.36   13.82
   1  23   0  121.49   12.91
   1 -23   2   84.58   12.80
   1 -23   2   74.21    8.30
  -1 -23  -2   68.78    8.51
  -1  23   2   78.29   12.39
   1 -23   2   93.86   14.40
   1  23  -2   79.82    9.44
  -1  23   2   72.45    8.03
  -1  23   2   89.60   11.01
   1  23   2   73.52   10.58
   1 -23  -2   75.98    8.57
   1  23   2   86.11   12.55
  -1  23  -2   77.29    9.46
  -1 -23   2   71.46    8.16
  -1 -23   2   87.79   11.40
  -1 -23   2   83.62   12.92
   1  23   2   68.51    8.21
  -1  23   4   16.15   10.11
   1  23  -4    4.36    7.92
   1 -23   4   15.12   10.71
  -1  23   4    6.28    6.17
  -1 -23  -4   18.63    7.89
  -1  23   4   10.28   10.05
   1 -23   4   11.86    9.70
   1 -23   4   11.08    5.99
  -1  23  -4    6.05    8.11
   1  23   4   13.29    9.62
   1  23   4    8.86    5.99
  -1 -23   4    6.51    6.29
   1 -23  -4    8.36    7.76
  -1 -23   4    7.01   10.48
  -1 -23   4    9.38    9.43
   1  23   4   14.63   10.52
  -1  23   6    7.60   10.66
   1 -23   6   14.52   10.67
  -1 -23  -6   20.92    7.66
   1 -23   6   12.07   10.11
  -1  23   6   10.76   10.07
   1  23  -6   24.82    7.14
   1  23   6    6.55   11.26
  -1 -23   6   19.70   10.01
  -1  23  -6   17.39    7.45
   1  23   6    5.15   10.19
   1 -23  -6   20.31    7.57
  -1 -23   6   12.41   10.01
   1 -23   8    4.27   10.36
  -1  23   8    0.79    9.97
   1 -23   8   -0.44   11.16
  -1  23   8    2.91   11.34
   1  23   8   -6.82   10.82
  -1 -23   8    4.55   10.13
  -1 -23   8    1.36   10.23
   1  23   8    2.62   12.03
  -2  23   1   61.55    8.21
   2 -23   1   65.52    8.17
   2  23  -1   61.78    8.72
   2 -23   1   81.51   10.06
  -2 -23  -1   72.07    8.22
  -2  23   1   64.99    9.64
   2 -23   1   90.28   10.94
  -2  23  -1   79.90    9.06
   2  23   1   94.39   13.08
  -2 -23   1   61.24    8.14
   2 -23  -1   61.20    8.11
  -2 -23   1   72.12   10.43
   2  23   1   82.66   10.86
   2  23   1   73.33    8.34
   2  23  -3   46.65    8.74
   2 -23   3   29.32   10.88
  -2  23   3   43.67    7.08
  -2  23   3   57.49   10.56
   2 -23   3   41.25   10.11
   2 -23   3   36.52    7.14
  -2  23   3   56.04    9.97
  -2 -23  -3   38.24    7.93
   2  23   3   40.84   10.20
  -2  23  -3   27.35    8.64
  -2 -23   3   44.13    7.29
   2  23   3   33.81    7.07
   2 -23  -3   49.24    8.09
  -2 -23   3   59.00   11.14
   2  23   3   30.75   10.37
  -2 -23   3   56.61   10.00
  -2  23   5   24.77   10.54
   2  23  -5   25.72    7.52
  -2 -23  -5   27.38    7.86
  -2  23   5   41.28    5.50
   2 -23   5   31.31    9.80
  -2  23   5   20.32    9.64
   2 -23   5   28.68   10.64
  -2 -23   5   19.42   10.50
   2  23   5   24.25   10.02
  -2  23  -5   31.85    7.91
   2  23   5   36.85   11.17
  -2 -23   5   24.00    9.15
   2 -23  -5   25.75    7.47
   2 -23   7    3.79   10.93
   2 -23   7   -1.93    9.88
  -2  23   7    4.24   10.99
  -2  23   7   12.12    9.84
  -2 -23   7   14.05   10.15
   2 -23  -7    2.78    7.22
   2  23   7   -1.36   11.57
   2  23   7    4.69   10.13
  -2 -23   7   12.06    9.85
   3 -23   0   95.87   11.93
   3 -23   0   87.19   13.51
   3  23   0   89.16   11.78
  -3  23   0   82.57    8.94
  -3 -23   0   79.44    8.70
  -3 -23   0   87.06   12.57
   3  23   0   86.87    8.98
   3 -23   2   68.82    8.28
  -3  23   2   82.09   11.75
   3 -23   2   79.32   11.71
  -3  23   2   70.62    8.04
  -3  23   2   78.12   10.24
  -3 -23  -2   74.56    8.73
   3  23  -2   83.69    9.45
   3 -23   2   82.52   11.61
   3  23   2   75.87   10.98
  -3 -23   2   84.13   10.64
  -3  23  -2   64.43    9.25
  -3 -23   2   79.88    8.33
   3  23   2   79.89   12.14
  -3 -23   2   88.38   13.58
   3 -23  -2   75.84    8.53
   3  23   2   71.64    8.13
  -3 -23  -4   18.19    7.77
   3 -23   4   10.34    9.81
  -3  23   4   17.74    6.35
  -3  23   4   11.99    9.47
  -3  23   4   16.20   10.07
   3 -23   4   14.80    6.00
   3  23  -4   15.83    8.15
   3 -23   4    2.32   10.42
  -3 -23   4   26.90    9.50
   3  23   4   19.03   10.40
  -3 -23   4   22.70   10.59
   3  23   4   16.46   10.04
   3  23   4    8.54    5.99
  -3 -23   4   16.22    6.55
   3 -23  -4   17.28    7.44
  -3  23  -4    9.15    7.99
  -3  23   6   16.80    9.16
  -3  23   6   19.70   10.66
   3  23  -6   37.67    7.34
  -3 -23  -6   21.37    7.74
   3 -23   6   17.19   11.16
   3 -23   6    8.06   10.27
   3  23   6    1.47   10.31
   3  23   6    7.85   11.67
   3 -23  -6    7.85    7.45
  -3 -23   6   17.11   10.25
  -3 -23   6   17.57    8.56
  -3  23  -6   10.01    7.43
  -3  23   8   -5.66   10.26
   3 -23   8    2.01   10.48
  -3  23   8   -5.47   11.31
   3 -23   8    0.00   11.58
  -3 -23   8   14.75    8.59
  -3 -23   8    7.55   10.46
   3  23   8    4.87   10.61
   3  23   8    7.79   12.28
  -4 -23  -1   66.95    8.51
  -4  23   1   81.09   10.45
  -4  23   1   62.85    8.25
   4 -23   1   86.72   10.98
   4  23  -1   63.82    9.03
   4 -23   1   78.85   10.20
   4 -23   1   67.28    8.20
   4 -23   1   83.84    9.39
  -4  23  -1   78.47    8.99
   4  23   1   78.49   10.22
   4 -23  -1   59.46    7.97
   4  23   1   65.83    8.30
  -4 -23   1   60.11    8.25
   4  23   1   83.47   10.47
  -4 -23   1   80.79   10.64
   4  23  -3   37.61    8.66
  -4 -23  -3   27.54    8.09
  -4  23   3   47.92   10.30
   4 -23   3   30.21    7.18
   4 -23   3   37.79    9.80
   4 -23   3   25.89    9.83
  -4  23   3   41.80    9.81
  -4  23   3   41.27    6.99
   4 -23   3   22.49   10.66
  -4 -23   3   39.60   10.98
  -4  23  -3   17.12    8.24
   4  23   3   35.05   10.11
   4  23   3   38.16   10.04
  -4 -23   3   32.42    7.29
   4 -23  -3   35.37    7.62
   4  23   3   26.83    7.25
  -4 -23   3   45.83    9.73
   4 -23   5   19.62    9.76
   4  23  -5   47.33    7.84
  -4  23   5   44.13   10.36
  -4  23   5   38.07    9.96
  -4 -23  -5   33.15    7.88
   4 -23   5   17.61   10.36
  -4  23  -5   18.88    7.60
   4 -23  -5   32.14    7.33
  -4 -23   5   33.34    8.89
   4  23   5   15.74    9.54
   4  23   5   25.74   10.45
  -4 -23   5   33.26    6.07
  -4 -23   5   35.78   10.86
   4 -23   7   -6.76   10.82
  -4  23   7    8.26   10.56
   4 -23   7    0.61   10.02
  -4  23   7    4.73   10.03
   4  23   7    5.36   11.18
   4 -23  -7   -5.91    7.05
   4  23   7   -0.37   10.66
  -4 -23   7   16.00    8.37
  -4 -23   7   10.94   10.07
   5  23   0   96.63   12.29
   5 -23   0  102.57   13.97
  -5  23   0   97.51    9.21
  -5 -23   0   89.74    9.02
   5 -23   0  102.84   12.55
   5  23   0   83.17    9.17
   5 -23   0   94.63   11.17
   5  23  -2   61.87    9.24
  -5  23   2   73.65   10.40
  -5  23   2   69.56   10.07
   5 -23   2   57.27    8.18
   5 -23   2   67.69   11.01
  -5 -23  -2   54.85    8.49
   5 -23   2   67.96   10.18
   5 -23   2   64.45    9.91
  -5  23   2   60.30    7.84
   5 -23  -2   48.10    7.91
   5  23   2   65.83   10.45
   5  23   2   69.55   10.52
  -5 -23   2   82.85   10.20
   5  23   2   60.26    7.92
  -5  23  -2   63.69    8.93
  -5 -23   2   55.54    8.04
  -5 -23   2   72.34   11.00
   5 -23   4   29.43   10.12
  -5 -23  -4   14.81    7.79
   5 -23   4   18.22   10.71
   5 -23   4   12.95    9.67
  -5  23   4    9.67    9.57
   5 -23   4   25.71    6.00
  -5  23   4   20.52    6.29
   5  23  -4   13.43    7.99
  -5  23   4    7.18    9.62
  -5  23  -4   11.04    7.81
   5 -23  -4   18.45    7.28
   5  23   4   19.05    9.98
  -5 -23   4   22.16    8.97
  -5 -23   4   24.04    6.71
   5  23   4   11.38    9.73
  -5 -23   4   17.94   10.47
   5 -23   6   -4.46    9.68
  -5 -23  -6   18.34    7.96
   5  23  -6   39.45    7.42
  -5  23   6   14.45   10.51
   5 -23   6   -2.55   11.14
  -5  23   6   16.57    9.40
   5  23   6    2.81   10.17
   5  23   6   10.99   11.11
  -5  23  -6   -0.85    7.11
  -5 -23   6   22.42    8.51
   5 -23  -6   10.26    7.17
  -5 -23   6   11.28   10.13
  -5  23   8   -3.40   11.13
   5 -23   8  -10.42   11.92
   5 -23   8    3.16   10.65
   5  23   8    0.49   10.93
   5  23   8    1.99   11.87
  -5 -23   8   17.90   10.00
   6 -23   1   56.38   10.28
   6 -23   1   46.96    9.13
   6  23  -1   34.15    8.46
   6 -23   1   44.08    7.83
  -6  23   1   34.30    7.53
  -6  23   1   42.35    9.30
  -6 -23  -1   46.12    8.05
   6 -23   1   46.43    9.73
  -6  23  -1   44.27    8.24
  -6 -23   1   47.73    9.75
   6  23   1   53.32    9.56
   6 -23  -1   40.53    7.58
   6  23   1   47.16    9.55
   6 -23  -1   46.16    7.65
  -6 -23   1   41.34    7.87
   6  23   1   44.68    8.04
   6 -23   3   23.99    9.98
  -6  23   3   18.38    6.94
   6 -23   3   32.89    9.67
  -6  23   3   22.38    9.62
  -6 -23  -3   26.99    8.21
   6  23  -3   17.64    8.29
  -6  23   3   27.20    9.22
   6 -23   3   20.66    7.26
   6 -23   3   14.60   10.65
   6  23   3   20.86    9.63
  -6 -23   3   35.51    9.21
  -6 -23   3   23.56    7.46
   6  23   3   26.66    9.95
  -6  23  -3   26.06    8.17
   6  23   3   31.24    7.17
   6 -23  -3   24.26    7.36
  -6 -23   3   24.83   10.44
  -6  23   5   40.83    5.97
   6  23  -5   33.97    7.33
   6 -23   5   18.35   10.63
   6 -23   5    5.62   10.36
   6 -23   5   39.44   10.06
  -6  23   5   34.25   10.16
  -6  23   5   14.75    9.59
  -6 -23  -5   37.31    8.03
   6  23   5   15.13    9.39
  -6 -23   5   37.94    8.92
   6  23   5    5.29    9.84
  -6 -23   5   25.37    6.48
   6 -23  -5   25.54    7.33
  -6 -23   5   16.81    9.90
  -6  23  -5   14.47    7.29
  -6  23   7   -0.99   10.45
   6 -23   7    4.95    9.80
   6  23  -7   34.05    7.92
   6 -23   7   -7.35   11.21
  -6 -23   7   14.60   10.82
   6  23   7    3.55   10.33
   6  23   7    5.47   10.95
   6 -23  -7   -5.24    7.10
   7 -23   0   54.37    8.01
  -7  23   0   56.66    8.08
   7  23   0   62.45    9.18
   7  23   0   45.13    8.56
   7 -23   0   54.70    9.96
   7 -23   0   59.45    8.64
  -7 -23   0   54.91    8.33
  -7 -23  -2   21.20    8.05
   7 -23   2   27.49    9.16
  -7  23   2   22.84    7.07
   7  23  -2   17.73    8.55
  -7  23   2   22.82    8.41
   7 -23   2   19.43    9.97
   7 -23   2   16.51    7.33
   7 -23   2   18.92    9.47
   7  23   2   23.49    9.27
   7 -23  -2   22.88    6.55
   7  23   2   21.54    9.46
  -7  23  -2   13.15    7.93
  -7 -23   2   29.21    9.56
   7 -23  -2   27.85    7.31
  -7 -23   2    7.86    7.36
   7  23   2   12.82    7.31
   7 -23   4   10.35    9.65
   7  23  -4   16.77    8.21
  -7 -23  -4   14.33    8.02
  -7  23   4   19.52    6.35
   7 -23   4   17.62    5.89
   7 -23   4   24.13    9.66
  -7  23   4   12.27    9.14
   7 -23   4    4.17    9.83
  -7  23  -4   18.07    7.55
  -7 -23   4   19.48    9.87
   7  23   4   18.61    9.74
  -7 -23   4   15.25    6.90
   7 -23  -4   14.43    7.15
   7  23   4   13.44    9.21
   7 -23   6    7.54    9.85
   7  23  -6   33.74    8.24
   7 -23   6   16.16   10.33
  -7 -23  -6   25.44    8.01
   7 -23   6   -9.03   11.35
  -7  23   6   13.26   10.48
  -7 -23   6   26.08   10.02
   7  23   6    2.55   10.02
   7 -23  -6    4.80    7.19
  -7  23  -6   -0.11    6.92
   7  23   6   12.00   10.45
   7 -23   8  -15.15   12.53
   7 -23   8    2.35   10.62
  -7  23   8    2.91   11.28
   7  23   8   10.98   11.63
   7  23   8    7.35   10.97
  -7 -23   8   15.12   11.61
   8 -23   1   29.75    9.80
   8  23  -1   21.10    8.50
  -8 -23  -1   27.85    8.03
  -8  23   1   31.96    7.40
   8 -23   1   44.35    8.94
   8 -23   1   31.66    7.59
   8 -23  -1   38.82    7.71
  -8  23  -1   33.46    8.08
   8  23   1   37.24    9.14
  -8 -23   1   39.14    9.64
  -8 -23   1   29.39    7.80
   8  23   1   34.51    8.13
   8 -23  -1   36.93    7.56
   8 -23   3   30.54    7.36
   8 -23   3   30.37   10.50
   8 -23   3   27.03    9.69
  -8  23   3   35.83    9.86
   8 -23   3   22.86   10.19
   8  23  -3   26.69    8.86
  -8 -23  -3   23.49    8.29
  -8  23   3   28.14    6.97
   8 -23  -3   38.50    7.60
  -8 -23   3   37.74   10.44
   8 -23  -3   30.58    5.77
  -8 -23   3   38.23    7.47
   8  23   3   32.52    9.95
  -8  23  -3   31.38    8.01
   8  23   3   29.92   10.25
  -8  23   5   29.66    6.27
   8 -23   5    2.24    9.90
   8 -23   5    1.12   11.40
  -8  23   5   20.71   10.30
  -8 -23  -5   21.48    8.10
   8 -23   5   25.34   10.01
   8  23  -5   32.94    8.61
  -8 -23   5   11.14    6.82
   8 -23  -5   13.88    7.48
   8  23   5   15.10    9.96
  -8  23  -5   10.88    7.23
  -8 -23   5   21.40   10.00
   8  23   5   17.26   10.11
   8 -23   7   -3.67   12.23
   8  23  -7   28.10    8.53
   8 -23   7   -6.86    9.87
  -8  23   7   -2.31   10.77
   8 -23   7   24.18   10.71
   8  23   7    1.54   10.11
   8 -23  -7    3.00    7.49
  -8 -23   7    5.85   11.11
   8  23   7   10.00   10.82
  -9  23   0   20.97    7.54
   9 -23   0   23.98    8.36
   9  23   0   17.24    8.33
  -9 -23   0   17.04    7.78
   9 -23   0   25.63    7.26
   9  23  -2   25.36    8.97
  -9  23   2   19.25    7.17
  -9 -23  -2   23.71    8.18
   9 -23   2   30.02    7.80
   9 -23   2   23.93    9.32
   9 -23   2   33.18    9.98
   9  23   2   36.60    7.60
  -9 -23   2   23.50    7.92
  -9 -23   2   30.05   10.21
   9  23   2   33.33    9.51
  -9  23  -2   33.79    8.18
   9 -23  -2   31.58    7.46
   9 -23  -2   24.53    6.88
  -9  23   4   25.03    6.56
   9 -23   4   24.40    9.53
  -9 -23  -4   27.89    8.15
  -9  23   4   14.27    9.68
   9 -23   4    8.04    9.75
   9 -23   4    2.13    9.53
   9 -23   4   27.41    6.10
   9  23  -4   22.44    8.52
   9  23   4   14.49    8.99
  -9 -23   4   22.25    7.32
   9  23   4   12.99    9.79
  -9 -23   4   21.92   10.00
  -9  23  -4   11.81    7.39
   9 -23  -4   13.81    7.26
   9  23  -6   28.12    8.79
   9 -23   6  -13.43   11.84
  -9  23   6    7.32   10.13
  -9 -23  -6   17.46    8.15
   9 -23   6   -3.38    9.51
   9 -23   6   22.21   10.24
   9  23   6    8.39   10.24
  -9 -23   6   16.08   10.12
  -9  23  -6   -3.82    6.90
   9 -23  -6   -2.23    7.38
   9  23   6   16.06   10.67
   9 -23   8  -15.88   13.15
   9 -23   8    4.72   10.99
  -9 -23   8    7.63   11.99
   9  23   8    8.81   10.96
   9  23   8   14.36   11.57
 -10  23   1   23.64    7.30
  10 -23   1   28.09    9.12
  10 -23   1   19.16    9.40
  10 -23   1   21.07    7.79
 -10 -23  -1   20.30    8.16
  10  23  -1   24.91    8.83
  10 -23  -1   21.49    7.23
  10  23   1   33.23    9.46
  10 -23  -1   26.00    7.89
 -10  23  -1   28.74    7.95
  10  23   1   35.69    8.08
 -10 -23   1   16.67    7.93
 -10  23   3   11.23    6.53
  10 -23   3    6.56    8.99
  10 -23   3   24.66    9.89
  10  23  -3    8.30    8.69
 -10 -23  -3   16.13    8.04
  10 -23   3   17.86    6.79
  10  23   3   13.82    9.01
  10 -23  -3   11.46    7.13
  10 -23  -3   10.58    5.76
 -10  23  -3   10.40    7.20
 -10 -23   3   10.10    9.86
 -10 -23   3   17.17    7.45
 -10  23   5   25.15   10.04
  10 -23   5   34.95   10.03
  10 -23   5   -5.47   11.56
 -10  23   5   30.50    6.53
  10 -23   5    5.92    9.84
 -10 -23  -5   39.49    8.36
  10  23  -5   32.89    9.04
 -10 -23   5   22.97   10.17
  10  23   5   22.74    9.00
  10  23   5   27.68   10.38
 -10 -23   5   16.04    7.45
 -10  23  -5    9.72    6.98
  10 -23  -5   22.75    7.50
  10 -23   7  -26.55   12.66
  10 -23   7    6.38   10.87
 -10  23   7   -9.98   10.52
  10  23  -7    0.29    8.63
  10 -23   7    2.80   10.10
  10  23   7   13.77   10.93
 -10 -23   7   14.32   10.30
  10 -23  -7   -3.27    7.49
  10  23   7    2.96   10.40
 -11 -23   0   13.09    8.00
  11 -23   0   13.58    8.64
  11  23   0   14.77    8.24
  11 -23   0   21.56    7.55
 -11  23   0    6.57    7.39
 -11 -23  -2   42.50    8.52
  11 -23   2   25.87    9.98
  11  23  -2   46.95    8.99
  11 -23   2   32.32    7.78
 -11  23   2   39.43    7.29
  11 -23   2   41.20    9.59
  11  23   2   49.62    9.87
  11 -23  -2   42.27    7.53
 -11 -23   2   41.99    8.06
 -11  23  -2   24.87    7.68
  11 -23  -2   49.92    7.40
 -11 -23  -4   25.08    8.41
 -11  23   4   15.63    6.64
  11  23  -4   12.26    8.82
  11 -23   4   24.29    6.16
  11 -23   4    9.89    9.93
  11 -23   4   25.46    9.34
 -11 -23   4   11.56    7.73
 -11  23  -4   11.12    7.18
  11 -23  -4    4.26    7.21
  11  23   4   21.98    9.46
  11  23   4   29.60    6.83
  11 -23   6   14.39    9.98
 -11 -23  -6   31.71    8.29
  11 -23   6   -1.17    9.81
 -11  23   6    0.89   10.22
  11  23  -6    8.91    9.02
 -11 -23   6   15.14    9.95
 -11  23  -6   -4.79    6.70
  11 -23  -6    0.20    7.42
  11  23   6   21.91   10.30
  12 -23   1   13.84    7.47
 -12 -23  -1   14.68    8.00
  12 -23   1   11.77    8.80
 -12  23   1   15.00    7.00
  12  23  -1   22.69    8.43
  12 -23  -1   18.22    7.76
 -12 -23   1   21.55    7.90
  12 -23  -1    8.14    7.05
 -12  23  -1    8.23    7.36
  12 -23   3   21.04    9.32
 -12 -23  -3   23.71    8.42
  12 -23   3   12.41   10.01
  12  23  -3   22.36    9.14
 -12  23   3   11.59    6.63
  12 -23   3   31.64    7.21
  12 -23  -3   18.71    7.21
  12 -23  -3   29.53    6.31
  12  23   3   25.54    9.65
  12  23   3   26.00    7.85
 -12 -23   3   21.35    7.72
 -12  23  -3   12.94    7.36
  12 -23   5   -6.75    9.70
 -12  23   5   19.56    6.68
 -12 -23  -5   27.42    8.48
  12  23  -5    6.54    9.18
  12 -23   5   26.24    9.89
 -12 -23   5   15.63    7.67
  12  23   5   22.75    9.83
  12 -23  -5   11.12    7.65
 -12  23  -5   -1.67    6.94
  12  23  -7  -20.03    9.30
  12 -23   7    4.69   11.22
  12 -23   7  -10.24   10.01
  12 -23  -7   -8.03    7.81
  12  23   7   22.51   10.67
 -13 -23   0   40.10    8.52
  13 -23   0   35.39    7.48
  13 -23   0   33.77    8.47
 -13  23   0   33.41    7.40
  13  23  -2   26.16    8.69
 -13  23   2   21.34    6.93
  13 -23   2   25.57    9.11
 -13 -23  -2   31.57    8.40
  13 -23   2   33.20    7.54
 -13 -23   2   22.91    7.82
 -13  23  -2   16.30    7.55
  13 -23  -2   26.51    7.21
  13 -23  -2   28.23    7.29
  13 -23   4    6.78    9.84
  13 -23   4   12.04    5.92
  13  23  -4    1.48    9.10
  13 -23   4   15.24    9.47
 -13 -23  -4   10.34    8.61
 -13  23   4    6.41    6.65
 -13 -23   4    6.56    8.03
  13 -23  -4    4.85    7.36
  13  23   4   18.33    7.07
  13  23   4   15.44    9.95
 -13  23  -4    0.75    7.14
  13 -23   6   13.56   10.41
  13 -23   6   -3.73   10.09
 -13 -23  -6   24.38    8.63
  13  23  -6  -19.21    9.12
  13 -23  -6   -5.64    7.51
 -13  23  -6  -12.89    6.85
  13  23   6    7.64   10.15
  14 -23   1   19.46    8.64
 -14  23   1   10.55    6.74
 -14 -23  -1   18.71    8.30
  14 -23   1   17.82    7.53
 -14  23  -1   13.62    7.38
  14 -23  -1   23.46    7.64
  14 -23  -1   10.46    7.07
 -14 -23   1   13.48    7.83
  14 -23   3   11.64    7.33
 -14 -23  -3   19.64    8.47
 -14  23   3    8.37    6.75
  14 -23   3   14.04    9.23
  14  23  -3   -0.84    9.11
  14 -23   3    5.69    9.98
  14 -23  -3    7.09    7.26
  14  23   3   19.23    9.73
  14  23   3   17.90    7.84
 -14 -23   3   14.57    8.22
  14 -23  -3   15.90    6.50
 -14  23  -3    4.56    7.23
 -14 -23  -5   29.70    8.74
  14 -23   5   12.22    9.95
  14  23  -5    0.15    9.44
  14 -23   5   -7.37    9.87
 -14  23   5   12.55    6.90
 -14 -23   5    4.08    8.17
  14 -23  -5    9.08    7.56
 -14  23  -5    1.76    6.93
  14  23   5   24.25   10.32
  14  23   7   24.79   11.34
  15 -23   0   35.54    8.54
 -15  23   0   25.40    7.44
  15 -23   0   27.29    7.57
 -15 -23   0   24.26    8.20
  15 -23   2   17.01    7.81
  15 -23   2   15.27    9.09
 -15 -23  -2   17.06    8.77
 -15  23   2   17.69    7.14
 -15  23  -2    8.06    7.39
 -15 -23   2   20.70    8.15
  15 -23  -2   27.06    7.32
  15 -23  -2   16.96    7.34
  15  23   2   23.02    8.39
  15 -23   4   -1.60    9.77
  15 -23   4   12.52    6.36
 -15 -23  -4   10.54    8.82
 -15  23   4    2.94    6.83
  15 -23   4    6.44    9.43
  15 -23  -4   -4.34    7.44
 -15 -23   4    4.28    8.43
  15  23   4    9.68    7.25
 -15  23  -4    0.28    7.04
  15  23   4   15.35   10.08
  15 -23   6   12.37   10.76
 -15 -23  -6   22.55    9.03
  15 -23   6   -7.35   10.49
  15  23   6   10.97   10.56
 -15  23  -6  -12.11    6.94
  15 -23  -6   -3.97    7.50
  16 -23   1   18.24    8.83
 -16 -23  -1   13.66    8.39
 -16  23   1    6.08    7.01
  16 -23   1   12.97    7.78
 -16 -23   1   18.87    8.23
 -16  23  -1   -0.52    7.27
  16  23   1   14.45    8.52
  16 -23  -1   10.68    7.82
  16 -23  -1    2.14    7.13
 -16 -23  -3   14.65    8.97
  16 -23   3    3.07    7.39
  16 -23   3    3.26    9.12
 -16  23   3    3.02    6.96
  16 -23  -3   14.44    6.61
  16 -23  -3   -1.44    7.47
 -16  23  -3    1.15    7.32
 -16 -23   3    6.65    8.49
  16  23   3   16.70    8.14
 -16 -23  -5   18.09    9.08
 -16  23   5    9.54    6.92
  16 -23   5   -2.81   10.09
  16 -23   5   18.89   10.27
 -16 -23   5   -8.82    8.62
  16  23   5   28.88   10.71
 -16  23  -5   -3.38    7.05
  16 -23  -5   -1.60    7.55
  17 -23   0   30.71    8.79
  17 -23   0   21.14    7.76
 -17  23   0   14.79    7.53
 -17 -23   0   30.88    8.77
  17 -23   2    7.11    9.24
 -17  23   2    8.72    6.81
  17 -23   2    3.65    8.01
 -17 -23  -2    5.12    8.73
 -17  23  -2    0.72    7.37
  17  23   2   13.92    8.43
  17 -23  -2    3.08    7.28
  17 -23  -2   13.10    7.34
 -17 -23   2    7.24    8.58
 -17 -23  -4   20.90    9.37
  17 -23   4    5.65    9.65
 -17  23   4    2.11    7.17
  17 -23   4    9.31    6.18
  17  23   4    8.39    7.51
 -17 -23   4   -0.24    8.72
  17 -23  -4    0.44    7.48
 -17  23  -4   -1.88    7.25
  17  23   6   31.98   11.62
  18 -23   1    1.44    7.78
 -18 -23  -1    4.00    8.89
 -18  23   1   -6.71    7.04
  18 -23   1   13.75    8.93
  18  23   1   15.48    8.65
  18 -23  -1    3.52    7.43
  18 -23  -1    1.13    7.82
 -18 -23   1    8.23    8.50
 -18  23  -1   -3.95    7.36
 -18 -23  -3    3.43    8.97
 -18  23   3    4.55    7.24
  18 -23   3    3.91    7.64
  18 -23   3   11.36    9.41
  18  23   3   14.73    8.49
 -18  23  -3    0.12    7.44
 -18 -23   3   10.00    8.91
  18 -23  -3   -4.29    7.42
  18 -23  -3   18.17    6.92
 -18 -23  -5   10.85    9.54
  18 -23   5    8.22   10.62
 -18  23   5   -2.05    7.39
 -18  23  -5  -14.07    7.36
  18 -23  -5   -4.88    7.61
 -18 -23   5   -3.38    9.30
  19  23   0    8.01    8.75
 -19 -23   0   14.10    8.76
  19 -23   0    6.52    7.73
 -19  23   0   -1.65    7.17
  19 -23   0   13.03    8.57
  19 -23   2    8.18    9.56
 -19  23   2    2.24    7.14
  19 -23   2    0.34    8.04
 -19 -23  -2    8.02    9.15
  19 -23  -2    9.65    7.40
  19 -23  -2    4.83    7.53
  19  23   2   15.61    8.94
 -19 -23   2   11.28    9.13
 -19  23  -2   -0.39    7.65
 -19  23   4    5.23    7.60
  19 -23   4    8.39    9.88
 -19 -23  -4    1.16    9.39
  19 -23  -4   -7.24    7.56
 -19  23  -4   -5.85    7.39
 -19 -23   4    2.87    9.65
 -20 -23  -1    7.76    9.28
 -20  23   1   -4.62    7.31
  20 -23   1    0.41    8.16
  20 -23   1    9.08    9.31
  20  23  -1    9.40    9.07
  20 -23  -1   -2.92    7.73
 -20 -23   1   13.09    9.19
  20  23   1    8.29    8.79
 -20  23  -1   -2.15    7.57
  20 -23   3    6.19    7.92
  20  23  -3   11.11   10.34
 -20  23   3   -0.63    7.51
  20 -23   3    2.41    9.80
 -20 -23  -3   -0.71    9.67
  20 -23  -3   -0.04    7.92
 -20 -23   3    0.64    9.53
  20 -23  -3   12.87    7.11
  20  23   3   11.53    8.95
 -20  23  -3   -9.92    7.79
  21  23   0   12.66    9.05
 -21  23   0    0.14    7.62
  21 -23   0    2.20    8.19
 -21 -23   0    9.12    9.46
 -21 -23  -2   16.84   10.00
  21 -23   2   -3.80    8.57
  21 -23   2    7.40    9.87
  21  23  -2    8.62    9.84
 -21  23   2    1.23    7.52
 -21 -23   2   -4.78    9.49
 -21  23  -2  -14.54    7.61
  21 -23  -2    4.77    7.88
  21  23   2   11.19    9.36
  22  23  -1   10.46    9.71
  22 -23   1    6.53    9.47
 -22 -23  -1    2.61   10.29
 -22  23   1    1.15    7.71
  22 -23   1  -11.31    8.73
  22 -23  -1   -0.49    8.17
 -22  23  -1   -6.73    7.89
 -22 -23   1   -7.32    9.55
  22  23   1    5.39    9.63
  23  23   0    7.29    9.95
   0 -24   0  131.99   13.74
   0  24   0  129.11   13.87
   0  24   0  136.02   13.97
   0 -24   0  147.55   14.62
   0  24  -2   63.01    9.37
   0  24   2   66.34    8.10
   0 -24   2   81.60   11.69
   0 -24   2   63.63    8.30
   0 -24   2   71.00   10.74
   0  24   2   69.75   10.91
   0 -24  -2   66.07    8.59
   0  24   2   75.46   10.82
   0  24   4   45.70   11.48
   0  24   4   27.50   10.32
   0  24   4   40.50    6.65
   0 -24   4   30.11   11.39
   0 -24   4   52.45   10.39
   0  24  -4   40.92    8.70
   0 -24   4   40.04    6.71
   0 -24  -4   48.87    8.34
   0  24   6   18.69   10.64
   0 -24   6   25.50   10.53
   0  24  -6   29.38    7.33
   0  24   6   13.86   11.46
   0 -24   6   22.51    9.34
   0 -24  -6   20.65    7.83
   0  24   8    6.64   10.95
   0 -24   8    6.36   11.09
   0  24   8   -4.56   12.10
   0 -24   8    6.26   10.88
  -1  24   1   78.72    8.87
   1 -24   1  107.69   14.44
  -1  24   1   99.37   11.85
   1 -24   1   93.84   10.87
  -1 -24  -1   93.74    9.01
   1  24  -1   83.49    9.60
   1 -24   1   84.97    8.75
   1  24   1   96.54   11.68
   1  24   1   90.23    8.96
   1 -24  -1   78.85    8.81
  -1  24  -1   94.45    9.75
  -1 -24   1   85.24   12.68
  -1 -24   1   81.47    8.91
   1 -24   3    4.10   10.39
  -1 -24  -3   17.95    7.85
  -1  24   3   13.24    9.95
   1  24  -3   15.70    8.43
  -1  24   3   18.20   10.22
   1 -24   3   11.82    9.65
   1 -24   3    7.53    6.92
  -1  24   3   16.07    6.77
   1  24   3   10.91    9.71
   1 -24  -3   17.27    7.65
  -1 -24   3   14.25    7.13
   1  24   3   12.41   10.15
   1  24   3   11.19    6.82
  -1 -24   3   23.29   10.63
  -1 -24   3   23.38    9.66
  -1  24  -3   10.63    8.58
  -1  24   5    2.72    9.63
  -1  24   5   12.08   10.50
  -1 -24  -5   15.92    7.83
   1 -24   5   23.41    9.61
   1  24  -5    3.29    7.57
  -1  24   5   19.47    5.54
   1 -24   5   30.84   10.44
  -1 -24   5   10.71    9.01
   1  24   5   16.41    9.67
  -1  24  -5   22.25    8.02
   1  24   5   15.27   11.08
  -1 -24   5   13.84   10.36
   1 -24  -5   18.77    7.83
   1 -24   7    6.90   10.26
  -1  24   7   -2.25   10.21
   1 -24   7    2.05   10.96
  -1  24   7    1.60   10.96
   1  24   7   -4.17   10.54
   1 -24  -7    0.24    7.77
   1  24   7    5.06   11.87
  -1 -24   7   11.05    8.55
  -1 -24   7    9.77   10.46
  -2  24   0  135.32   14.09
   2  24   0  143.26   14.43
   2  24   0  145.43   13.94
  -2 -24   0  140.00   14.27
   2 -24   0  125.91   13.57
  -2  24   0  134.63   13.06
  -2 -24   0  132.05   13.94
   2 -24   0  137.01   15.24
   2 -24   2   84.48    8.98
  -2  24   2  106.97   13.83
  -2  24   2  104.98   14.28
   2 -24   2  111.88   15.47
   2 -24   2   97.49   13.49
   2  24  -2  114.07   13.83
  -2  24   2  105.06   12.13
  -2 -24  -2  109.41   12.96
   2  24   2   87.80    8.94
  -2 -24   2   90.12    8.98
  -2  24  -2   88.08   10.08
  -2 -24   2  105.44   12.80
   2 -24  -2  102.49   12.63
   2  24   2  103.64   14.16
   2  24   2  110.43   13.21
  -2 -24   2   97.64   13.61
   2 -24   4   19.13   10.00
   2 -24   4   32.21   11.30
  -2  24   4   10.88    9.85
   2  24  -4   21.12    8.08
  -2 -24  -4   26.01    8.01
  -2  24   4   27.35    6.53
   2 -24   4   21.80    6.34
  -2  24   4   23.03   10.36
   2  24   4   35.31   10.75
   2  24   4   30.41   10.38
  -2 -24   4   28.11    9.38
  -2 -24   4   19.84   10.82
  -2  24  -4   34.82    8.53
  -2 -24   4   23.40    6.77
   2 -24  -4   22.94    7.97
   2  24   4   31.18    6.55
   2 -24   6   16.10    9.70
  -2 -24  -6   17.38    7.96
   2 -24   6   15.60   10.44
  -2  24   6    8.52   10.48
  -2  24   6   11.56   11.04
   2  24  -6   28.11    7.33
   2  24   6   15.37   10.41
  -2 -24   6    3.86   10.51
  -2 -24   6   16.31   10.03
   2  24   6    8.62   11.64
  -2  24  -6   14.65    7.62
   2 -24  -6   10.17    7.67
  -2  24   8    3.70   11.80
  -2  24   8   -0.24   10.79
   2 -24   8    6.97   11.75
   2 -24   8    5.98   11.05
   2  24   8    3.76   11.30
  -2 -24   8   17.09   10.80
  -2 -24   8    8.71   10.62
   2  24   8    1.39   12.38
   3 -24   1   72.28   10.11
   3 -24   1   62.48    8.24
  -3 -24  -1   64.31    8.37
  -3  24   1   52.12    8.24
  -3  24   1   56.50   10.08
   3 -24   1   79.73   11.12
   3  24  -1   46.57    8.83
   3  24   1   78.33   10.43
   3 -24  -1   54.83    8.14
  -3 -24   1   65.08   10.55
   3  24   1   82.81   10.37
  -3 -24   1   51.69    8.22
  -3  24  -1   67.80    9.05
   3  24   1   50.62    8.24
   3 -24   3   14.14    9.68
   3 -24   3    2.36   10.55
  -3  24   3   39.10    9.64
  -3  24   3   36.27    9.66
  -3 -24  -3   19.85    8.07
  -3  24   3   26.64    6.79
   3 -24   3   14.31    7.15
   3  24  -3   34.35    8.72
   3  24   3    8.27    9.93
  -3  24  -3   10.04    8.52
  -3 -24   3   35.94    9.47
   3  24   3   16.44    9.71
   3  24   3   22.94    7.16
  -3 -24   3   37.65   10.91
   3 -24  -3   34.07    7.92
  -3 -24   3   26.07    7.27
  -3  24   5   25.91    5.43
  -3  24   5   13.85   10.24
   3  24  -5   12.64    7.61
   3 -24   5   17.78    9.70
  -3  24   5    5.05    9.29
  -3 -24  -5   10.36    7.73
   3 -24   5   11.38   10.47
   3  24   5    7.57   10.66
  -3 -24   5   13.97    8.91
   3 -24  -5   11.49    7.31
  -3  24  -5   15.50    7.69
   3  24   5   12.87    9.76
  -3 -24   5    3.95   10.22
  -3 -24   5    9.83    5.64
   3  24  -7   28.34    6.96
  -3  24   7   -0.44   11.19
   3 -24   7    5.99   10.42
  -3  24   7   -0.86   10.18
   3 -24   7    4.32   11.18
   3  24   7    0.16   10.45
   3 -24  -7   -2.98    7.27
  -3 -24   7   18.51   10.10
  -3 -24   7   10.83   10.46
   3  24   7   -1.25   11.77
   4 -24   0  131.11   13.66
   4  24   0  142.08   14.34
  -4  24   0  144.01   14.54
   4 -24   0  164.26   16.01
   4  24   0  142.10   14.25
  -4 -24   0  135.95   14.23
  -4  24   2   82.73   12.92
  -4  24   2   64.94    8.24
   4  24  -2   79.78    9.65
  -4  24   2   70.88   10.59
   4 -24   2   79.45   10.15
  -4 -24  -2   66.98    8.76
   4 -24   2   71.86   10.41
   4 -24   2   86.64   11.59
   4 -24   2   69.18    8.34
   4  24   2   74.29    8.31
  -4 -24   2   86.32   13.05
   4 -24  -2   68.56    8.60
  -4 -24   2   93.36   14.12
  -4  24  -2   75.21    9.47
   4  24   2   78.00   12.16
  -4 -24   2   66.16    8.46
   4  24   2   76.39   10.95
   4 -24   4   24.86    9.84
  -4  24   4   31.38   10.10
   4  24  -4   27.23    8.29
  -4  24   4   14.41    9.76
   4 -24   4   23.01    6.24
   4 -24   4   14.16   10.50
  -4  24   4   24.48    6.47
  -4 -24  -4   25.21    8.26
  -4 -24   4   34.50    9.50
  -4  24  -4   18.61    8.15
   4  24   4   21.70    6.46
   4  24   4   20.38   10.08
   4  24   4   16.19    9.84
   4 -24  -4   14.18    7.52
  -4 -24   4   28.71    6.68
  -4 -24   4   20.84   11.14
  -4  24   6    8.85   10.49
   4  24  -6   27.68    7.31
   4 -24   6   18.14   11.08
  -4 -24  -6   19.84    8.00
   4 -24   6   10.82   10.39
  -4  24   6    4.61   10.37
  -4 -24   6   15.25    8.57
  -4 -24   6   15.36   10.34
   4  24   6    9.83   10.75
   4  24   6    3.93   10.61
   4 -24  -6   11.58    7.56
  -4  24  -6   16.01    7.55
   4 -24   8    9.84   11.10
  -4  24   8   -4.99   11.34
   4 -24   8   -9.33   11.78
  -4 -24   8   15.67   10.00
   4  24   8   12.28   11.98
   4  24   8   -0.72   11.18
   5 -24   1   75.44    9.81
   5 -24   1   86.01   11.26
   5  24  -1   73.84    9.34
  -5 -24  -1   65.20    8.86
  -5  24   1   85.18   10.66
  -5  24   1   75.60    8.57
   5 -24   1   76.91    8.57
   5 -24   1   73.39   10.67
  -5  24  -1   72.32    9.11
  -5 -24   1   72.95    8.58
  -5 -24   1   86.09   13.27
   5 -24  -1   68.41    8.55
   5  24   1   72.40    8.72
   5  24   1   87.37   13.52
   5  24   1   75.43   11.28
   5 -24   3   -4.98   10.53
   5 -24   3    1.09    7.15
   5 -24   3   -8.98    9.64
   5  24  -3   10.29    8.48
  -5  24   3    2.26    6.67
   5 -24   3    6.02    9.24
  -5  24   3    1.47    9.67
  -5 -24  -3   -3.29    7.95
   5  24   3    3.63    7.11
  -5 -24   3    7.64   10.50
  -5 -24   3    2.42    7.27
   5  24   3    2.92    9.78
   5 -24  -3   -1.49    7.43
   5  24   3    2.02    9.51
  -5  24  -3    1.37    8.23
  -5 -24  -5   21.36    8.10
  -5  24   5   33.46    6.04
  -5  24   5   12.75    9.88
   5  24  -5   26.34    7.79
   5 -24   5    7.76    9.63
   5 -24   5    4.72   10.17
  -5 -24   5   13.31    6.27
   5  24   5    9.49    9.67
  -5  24  -5   22.78    7.49
  -5 -24   5   21.97   10.42
   5 -24  -5   14.08    7.23
   5  24   5    5.51   10.06
   5 -24   7   -0.66   11.50
  -5  24   7  -10.11   10.61
   5 -24   7    3.39   10.09
   5  24  -7   30.93    6.59
   5  24   7    7.73   11.33
   5  24   7    2.66   10.83
  -5 -24   7   11.38   10.72
   5 -24  -7   -6.66    7.13
   6 -24   0  204.51   18.59
   6  24   0  206.15   17.05
  -6  24   0  216.14   16.31
   6 -24   0  217.11   15.53
   6  24   0  199.73   16.04
  -6 -24   0  200.07   16.28
   6 -24   0  217.33   14.75
   6 -24   2   86.18   10.39
  -6  24   2   78.92   11.98
   6 -24   2   60.84   11.12
   6 -24   2   74.77   11.80
  -6  24   2   77.78    8.36
  -6 -24  -2   74.26    9.10
   6  24  -2   87.31    9.69
   6 -24   2   78.08    8.76
   6  24   2   77.85   11.14
   6 -24  -2   78.49    8.56
   6  24   2   80.39   11.06
  -6 -24   2   74.32    8.61
   6  24   2   76.21    8.72
  -6  24  -2   61.09    9.18
  -6 -24   2   96.41   13.43
  -6  24   4   48.33    6.96
   6 -24   4   23.52   10.02
   6 -24   4   56.58   10.12
  -6  24   4   44.48   10.01
   6 -24   4   44.23    6.46
   6  24  -4   52.82    8.18
  -6 -24  -4   53.80    8.46
   6 -24   4   26.55   11.13
  -6 -24   4   50.85    7.31
   6  24   4   30.08   10.09
   6 -24  -4   39.36    7.61
   6  24   4   33.36   10.19
  -6  24  -4   27.49    7.97
  -6 -24   4   53.82   10.62
   6 -24   6   -0.56   11.03
  -6 -24  -6   20.93    8.07
   6 -24   6    3.62   10.15
  -6  24   6    2.55   10.57
   6  24  -6   27.12    6.95
   6  24   6   -3.96   10.35
   6  24   6    0.46   10.19
  -6 -24   6   18.71   10.71
  -6  24  -6   -0.44    7.19
   6 -24  -6    3.98    7.26
   6 -24   8    0.57   11.04
  -6  24   8   -1.31   11.27
   6 -24   8  -11.65   12.23
  -6 -24   8    5.55   11.57
   6  24   8    6.13   11.51
   6  24   8    3.29   11.44
   7 -24   1   45.84    8.09
   7 -24   1   51.78   10.75
  -7  24   1   48.46    7.86
  -7 -24  -1   40.45    8.31
   7 -24   1   54.16    9.14
   7  24  -1   39.24    8.85
   7 -24  -1   53.42    8.06
  -7 -24   1   43.34    8.06
  -7  24  -1   46.20    8.42
   7  24   1   37.80    8.43
  -7 -24   1   56.20    9.78
   7  24   1   56.19    9.84
   7 -24  -1   54.12    7.91
   7 -24   3    2.55   10.03
   7 -24   3   15.47    7.09
  -7 -24  -3   14.57    8.12
   7 -24   3    0.48   10.40
  -7  24   3   10.70    9.21
   7  24  -3   13.92    8.55
  -7  24   3   18.96    6.78
   7 -24   3   14.86    9.52
   7  24   3   12.16    6.82
  -7  24  -3    5.66    7.85
  -7 -24   3   17.57   10.14
   7 -24  -3   11.57    7.27
   7  24   3    8.61    9.51
  -7 -24   3   20.87    7.53
   7  24   3   11.86    9.47
  -7 -24  -5   10.40    7.95
   7 -24   5   -8.37   11.04
   7 -24   5    5.75    9.80
   7 -24   5    1.80   10.14
  -7  24   5   16.86    5.88
   7  24  -5    7.71    8.23
  -7  24   5    1.37    9.69
   7  24   5    5.72    9.95
  -7  24  -5    8.29    7.30
   7 -24  -5    3.58    7.16
  -7 -24   5    5.05    6.65
   7  24   5    4.48    9.90
  -7 -24   5    4.44   10.57
   7 -24   7  -12.73   12.08
   7 -24   7    2.58   10.12
  -7  24   7  -12.11   10.56
   7  24  -7   22.50    8.23
   7  24   7    0.62   10.53
  -7 -24   7   10.30   11.07
   7  24   7   10.25   10.95
   7 -24  -7   -2.84    7.26
   8 -24   0   97.56    9.77
   8 -24   0   87.26    8.98
  -8 -24   0   83.44    9.31
   8  24   0   83.22    9.72
  -8  24   0   83.21    9.14
   8 -24   2   58.35   11.43
  -8  24   2   71.30    8.30
  -8  24   2   90.40   10.93
   8 -24   2   77.31   10.57
   8 -24   2   77.16    8.87
  -8 -24  -2   62.48    9.14
   8  24  -2   89.05   10.01
  -8 -24   2   94.19   13.51
  -8  24  -2   58.63    9.10
   8 -24  -2   79.12    9.21
   8  24   2   77.31    8.88
  -8 -24   2   77.05    8.89
   8 -24  -2   71.45    8.49
   8  24   2   82.78   12.54
   8 -24   4   49.48    6.60
   8 -24   4   61.45    9.96
   8 -24   4   23.64   10.56
  -8  24   4   60.56   10.48
  -8  24   4   45.32    7.08
  -8 -24  -4   57.04    8.63
   8  24  -4   62.97    9.07
   8  24   4   33.06    9.88
   8 -24  -4   41.30    7.60
  -8  24  -4   28.96    7.97
  -8 -24   4   66.78   11.04
   8  24   4   38.97   10.24
  -8 -24   4   51.75    7.62
   8 -24   6   21.47   10.31
   8 -24   6   -4.66   12.03
   8  24  -6   30.44    8.49
  -8  24   6    8.40   10.48
   8 -24   6   -3.92    9.95
  -8 -24  -6   31.21    8.41
   8  24   6   11.19   10.27
  -8 -24   6   21.94   10.00
   8  24   6   20.11   10.46
   8 -24  -6    2.96    7.29
  -8  24  -6   -2.75    7.10
   8 -24   8    4.56   11.30
  -8 -24   8   12.50   12.04
   8  24   8    3.56   11.44
   8  24   8   10.03   11.70
  -9  24   1   35.64    7.45
  -9 -24  -1   34.86    8.34
   9 -24   1   25.17    7.65
   9 -24   1   34.62    9.21
   9 -24   1   27.52   10.00
   9  24  -1   27.49    9.06
  -9  24  -1   39.69    8.31
  -9 -24   1   25.67    7.94
   9 -24  -1   27.65    7.60
   9 -24  -1   30.10    7.80
   9  24   1   37.34    8.45
   9  24   1   37.18    9.42
  -9  24   3    2.12    9.07
  -9 -24  -3   11.22    8.04
   9  24  -3   16.58    8.61
   9 -24   3   15.04    9.18
   9 -24   3    7.77    7.09
   9 -24   3    3.61    9.54
  -9  24   3    8.09    6.63
   9  24   3   12.45    9.50
   9 -24  -3    5.64    7.06
   9 -24  -3    8.06    5.58
  -9 -24   3   16.85    9.92
  -9  24  -3    7.93    7.58
  -9 -24   3    9.62    7.33
   9 -24   5   -8.10    9.77
   9 -24   5   -7.99   11.43
  -9  24   5   -0.44   10.25
   9  24  -5    5.95    8.59
  -9  24   5   19.85    6.27
   9 -24   5   11.38    9.76
  -9 -24  -5   22.55    8.29
  -9 -24   5   13.68   10.07
  -9  24  -5   -0.22    7.24
   9  24   5   14.27   10.33
  -9 -24   5    4.14    7.13
   9 -24  -5   10.15    7.46
   9  24  -7   13.80    8.79
  -9  24   7   -8.59   11.00
   9 -24   7  -16.69   12.66
   9 -24   7   -0.33   10.18
   9 -24   7    6.61   10.96
  -9 -24   7    9.26   11.40
   9 -24  -7   -1.82    7.65
   9  24   7   18.32   11.23
  10 -24   0   78.49    8.82
  10 -24   0   83.22    9.78
 -10 -24   0   80.80    9.38
 -10  24   0   81.56    9.02
  10  24   0   92.65    9.82
 -10  24   2   73.68    8.32
 -10 -24  -2   82.78    9.45
  10 -24   2   91.67   10.50
  10  24  -2   92.04   10.23
  10 -24   2   63.49   11.19
  10 -24   2   84.47    8.94
  10 -24  -2  100.51    9.22
 -10  24  -2   66.21    8.99
  10 -24  -2   79.88    8.60
 -10 -24   2   82.01    9.06
  10  24   2   90.10   12.42
  10 -24   4    0.76    9.82
 -10 -24  -4   31.78    8.53
  10 -24   4   28.55    6.35
  10 -24   4   41.70    9.69
 -10  24   4   28.94    6.84
  10  24  -4   34.43    9.23
 -10 -24   4   36.46   10.40
  10  24   4   31.59    9.94
  10  24   4   29.86    7.14
 -10 -24   4   26.70    7.79
  10 -24  -4   31.40    7.64
 -10  24  -4   10.25    7.47
 -10  24   6   -1.00   10.54
  10 -24   6   -4.23    9.83
  10 -24   6    7.67   10.33
  10  24  -6   20.82    9.01
 -10 -24  -6   34.44    8.36
  10 -24  -6    1.05    7.56
  10  24   6   18.57   10.53
 -10  24  -6   -0.34    7.06
 -10 -24   6   13.65   10.20
  11  24  -1   72.03    9.67
 -11 -24  -1   48.63    8.70
  11 -24   1   51.36    8.21
  11 -24   1   48.31    9.39
 -11  24   1   51.54    7.77
  11  24   1   54.75    8.32
 -11  24  -1   50.79    8.18
  11 -24  -1   42.25    7.70
 -11 -24   1   52.18    8.51
  11 -24  -1   54.58    8.35
  11 -24   3   17.59    9.97
  11  24  -3   18.54    9.00
  11 -24   3   23.45    7.18
  11 -24   3   16.16    9.07
 -11  24   3   13.81    6.69
 -11 -24  -3   24.84    8.20
  11 -24  -3   20.68    7.11
 -11 -24   3   18.49    7.61
 -11  24  -3    5.95    7.26
  11 -24  -3   14.03    5.88
  11  24   3   21.12    9.30
 -11 -24  -5   23.22    8.44
 -11  24   5   13.18    6.63
  11  24  -5    9.57    9.05
  11 -24   5   24.02    9.91
  11 -24   5    4.99    9.93
  11 -24  -5    4.98    7.51
  11  24   5   22.88   10.15
 -11 -24   5    6.22    7.64
 -11  24  -5    0.33    6.91
  11  24  -7   -6.05    9.34
  11 -24   7    6.38   11.35
  11 -24   7   -7.42   10.14
  11  24   7   13.88   10.72
 -11 -24   7    4.89   11.53
  11 -24  -7   -9.00    7.77
 -12 -24   0   25.81    8.19
 -12  24   0   26.01    7.52
  12 -24   0   33.22    8.59
  12 -24   0   26.76    7.57
  12  24   0   36.35    8.29
 -12  24   2   23.11    6.96
  12 -24   2   27.36    9.14
  12  24  -2   30.17    9.22
 -12 -24  -2   24.60    8.35
  12 -24   2   28.23    7.66
  12 -24  -2   25.65    7.14
 -12  24  -2   29.09    7.67
  12 -24  -2   24.75    7.19
 -12 -24   2   26.04    7.77
 -12 -24  -4   35.49    8.90
  12 -24   4   30.39    9.69
  12 -24   4    5.02   10.11
 -12  24   4   25.58    7.00
  12 -24   4   30.06    6.42
  12  24  -4   27.82    9.53
  12  24   4   27.01   10.08
 -12 -24   4   23.00    8.11
  12 -24  -4   17.57    7.56
 -12  24  -4   10.10    7.37
  12  24   4   28.45    7.19
  12  24  -6    4.72    9.37
  12 -24   6  -13.21    9.93
  12 -24   6   12.08   10.14
 -12 -24  -6   26.73    8.64
 -12  24  -6  -12.74    6.72
  12  24   6   25.55   10.26
  12 -24  -6    1.11    7.59
  13 -24   1   29.02    7.63
  13  24  -1   22.81    8.49
  13 -24   1   34.33    8.86
 -13 -24  -1   16.60    8.11
 -13  24   1   14.43    7.12
 -13 -24   1   25.73    8.01
  13 -24  -1   17.44    7.09
 -13  24  -1   21.58    7.42
  13 -24  -1   26.99    7.81
 -13 -24  -3   21.91    8.50
  13 -24   3    8.16    9.27
 -13  24   3   -1.00    6.60
  13 -24   3   14.16    7.42
  13  24  -3    2.07    8.99
  13 -24   3    6.27   10.21
  13  24   3   16.01    7.97
  13 -24  -3    8.80    7.31
 -13  24  -3    9.48    7.34
 -13 -24   3   10.10    7.86
  13 -24  -3   15.50    6.29
  13  24   3   20.14    9.64
 -13  24   5   12.28    6.88
 -13 -24  -5   23.45    8.75
  13  24  -5   -5.50    9.07
  13 -24   5   -4.81    9.94
  13 -24   5    9.07    9.74
 -13 -24   5    7.19    7.88
  13  24   5   26.24   10.32
 -13  24  -5    0.19    7.07
  13 -24  -5    1.33    7.63
  13 -24   7  -10.53   10.67
  13  24   7   22.18   11.08
  14 -24   0   45.17    7.78
 -14 -24   0   42.68    8.78
  14 -24   0   48.88    8.78
 -14  24   0   37.06    7.55
  14  24  -2   18.22    9.18
 -14  24   2   18.55    7.13
  14 -24   2   29.76    9.14
  14 -24   2   22.65    7.81
 -14 -24  -2   29.17    8.70
 -14 -24   2   21.53    8.20
  14 -24  -2   26.97    7.31
  14 -24  -2   29.67    7.34
 -14  24  -2   11.43    7.60
  14 -24   4   19.36    6.59
  14  24  -4   -0.44    9.14
  14 -24   4    2.75   10.16
 -14 -24  -4   13.65    8.77
 -14  24   4    5.57    6.83
  14 -24   4   18.99    9.51
  14  24   4   20.16    7.39
  14 -24  -4   12.14    7.49
 -14 -24   4    7.18    8.40
  14  24   4   29.28   10.20
 -14  24  -4   -1.75    7.28
 -14 -24  -6   29.14    9.01
  14 -24   6    9.96   10.56
  14 -24   6   -6.53   10.38
  14 -24  -6   -3.52    7.96
 -14  24  -6  -17.43    7.03
  14  24   6   21.79   10.85
 -15 -24  -1   14.74    8.63
 -15  24   1   -1.81    6.77
  15 -24   1    6.91    7.61
  15 -24   1   15.02    8.69
 -15 -24   1   10.48    8.07
  15 -24  -1   14.84    7.63
 -15  24  -1    1.86    7.30
  15 -24  -1   -1.62    7.07
  15 -24   3   11.55    7.53
  15 -24   3    8.10    9.07
 -15  24   3   -0.39    6.82
 -15 -24  -3   13.78    8.82
 -15  24  -3   -2.54    7.26
  15  24   3    8.79    7.93
 -15 -24   3    7.03    8.38
  15 -24  -3    8.74    6.56
  15 -24  -3   -2.23    7.22
 -15 -24  -5   20.70    8.91
  15 -24   5    1.38   10.32
  15 -24   5    8.43    9.95
 -15  24   5   11.36    7.15
  15 -24  -5   -5.21    7.67
  15  24   5   19.28   10.19
 -15 -24   5   -9.98    8.46
 -15  24  -5   -7.76    7.08
 -16  24   0   16.85    7.41
  16 -24   0   21.35    7.57
 -16 -24   0   21.54    8.44
  16 -24   0   33.19    8.59
  16 -24   2   20.18    9.13
 -16  24   2   15.89    7.23
 -16 -24  -2   12.71    8.89
  16 -24   2   12.10    8.05
 -16 -24   2    3.74    8.33
 -16  24  -2    3.55    7.44
  16  24   2   12.47    8.45
  16 -24  -2    7.55    7.35
  16 -24  -2   16.23    7.24
 -16  24   4    2.40    7.01
  16 -24   4    8.29    6.15
 -16 -24  -4   10.91    9.14
  16 -24   4    8.75    9.77
 -16  24  -4   -1.58    7.08
  16 -24  -4    5.92    7.72
 -16 -24   4    6.10    8.88
  16  24   4   12.80    7.50
  16 -24   6  -12.73   10.98
  16  24   6   29.08   11.50
 -17  24   1   -0.59    7.17
  17 -24   1    2.71    8.04
 -17 -24  -1    8.06    8.53
  17 -24   1   12.18    8.85
 -17  24  -1   -3.27    7.36
  17  24   1    5.20    8.52
  17 -24  -1    8.94    7.75
 -17 -24   1    2.42    8.35
  17 -24  -1   -7.24    7.24
  17 -24   3    6.83    7.70
  17 -24   3   16.42    9.34
 -17  24   3    3.67    7.11
 -17 -24  -3    7.76    9.18
  17 -24  -3   10.05    6.72
  17  24   3   16.11    8.43
 -17 -24   3    3.45    8.76
 -17  24  -3    0.73    7.36
  17 -24  -3    0.12    7.40
 -17 -24  -5   15.52    9.63
 -17  24   5    8.60    7.32
  17 -24   5    6.83   10.44
  17 -24  -5  -12.06    7.72
 -17  24  -5    0.07    7.27
 -17 -24   5   -3.89    9.15
  18 -24   0   13.62    8.53
 -18  24   0   14.76    7.39
  18 -24   0   11.47    7.74
 -18 -24   0   12.43    8.78
  18  24   0   20.40    9.11
 -18 -24  -2   13.84    8.97
 -18  24   2   10.05    7.03
  18 -24   2   -1.45    8.25
  18 -24   2   21.10    9.21
  18  24   2   12.85    8.68
  18 -24  -2   12.52    7.46
  18 -24  -2    7.62    7.53
 -18  24  -2   -0.99    7.35
 -18 -24   2    5.33    8.78
  18 -24   4    1.45    9.64
 -18  24   4    8.55    7.44
 -18 -24  -4   17.36    9.59
  18 -24  -4    1.66    7.99
 -18 -24   4  -11.39    9.16
 -18  24  -4   -8.01    7.39
 -19 -24  -1   11.85    9.07
  19 -24   1   21.93    9.04
  19  24  -1   14.00    9.53
 -19  24   1    2.30    7.31
  19 -24   1    0.05    8.17
  19 -24  -1   10.03    7.90
 -19  24  -1    3.81    7.50
  19  24   1   17.34    8.78
  19 -24  -1   -0.93    7.48
 -19 -24   1    1.17    8.82
 -19  24   3    2.55    7.42
  19 -24   3    5.24    9.60
  19 -24   3    1.70    7.95
 -19 -24  -3    7.47    9.33
  19  24   3   15.60    8.79
 -19 -24   3    3.37    9.41
  19 -24  -3   11.85    7.00
  19 -24  -3    2.85    7.72
 -19  24  -3    7.08    7.74
  20 -24   0   -4.53    7.99
 -20  24   0   -0.42    7.43
 -20 -24   0   -5.12    8.92
  20 -24   0    2.31    8.26
  20  24   0    9.56    9.06
 -20 -24  -2    4.85    9.56
  20  24  -2   23.02    9.86
 -20  24   2   -2.68    7.14
  20 -24   2   -2.21    8.51
  20 -24   2   -2.87    9.66
  20 -24  -2    8.98    7.57
  20 -24  -2   -5.09    7.62
  20  24   2   -1.77    9.20
 -20 -24   2   -2.08    9.30
 -20  24  -2   -8.01    7.61
  21  24  -1   10.89    9.69
  21 -24   1   17.80    9.55
 -21 -24  -1   -0.46    9.60
 -21  24   1   -4.99    7.47
  21 -24   1    1.21    8.55
  21 -24  -1   -9.94    7.82
  21 -24  -1    2.54    8.32
  21  24   1   18.15    9.50
 -21  24  -1  -13.09    7.78
 -21 -24   1   -5.28    9.57
 -21  24   3    0.03    7.98
  21 -24   3    4.53    8.32
  21  24  -3    8.05   10.73
  21 -24   3    6.10   10.09
 -21 -24  -3   18.86   10.45
  21 -24  -3   -3.42    8.17
  21 -24  -3   10.94    7.41
 -21  24  -3    1.05    7.97
  21  24   3   14.48    9.37
 -22 -24   0    7.09    9.90
  22 -24   0    0.08    8.68
  22 -24   0   14.86    8.84
 -22  24   0   -3.11    7.82
  22  24   0   -1.38    9.56
  22 -24   2   -0.20   10.19
  22  24  -2    8.18   10.17
  22 -24  -2   11.61    8.14
   0  25  -1   55.46    8.83
   0  25   1   62.36    9.98
   0 -25  -1   45.80    7.92
   0 -25   1   48.15    8.12
   0  25   1   49.03    8.01
   0 -25   1   65.31   10.63
   0 -25  -3    0.43    7.95
   0  25   3    4.99    9.78
   0 -25   3   10.24    9.95
   0 -25   3    7.25    7.29
   0  25   3    0.56    9.97
   0  25   3   -1.90    6.86
   0  25  -3    7.89    8.69
   0 -25   3    9.03   10.98
   0  25  -5   17.46    7.49
   0  25   5   18.24    5.51
   0 -25   5   13.73   10.35
   0 -25  -5   17.71    7.78
   0  25   5   16.24   11.28
   0 -25   5   11.26   10.47
   0  25   5    5.16    9.91
   0 -25   7    5.59   10.08
   0 -25  -7    7.00    7.71
   0  25   7    4.10   11.90
   0 -25   7   12.03   10.96
   0  25   7    1.18   10.51
  -1 -25   0  137.20   14.15
   1  25   0  130.93   14.48
   1  25   0  137.62   14.16
   1 -25   0  145.79   14.21
  -1 -25   0  139.37   14.86
  -1  25   0  142.49   14.32
  -1  25   0  147.23   14.80
   1 -25   0  147.25   13.84
  -1  25   2   98.20   13.09
   1 -25   2   95.54   13.68
  -1  25   2  117.98   13.77
   1 -25   2   85.40    9.09
   1  25  -2  117.74   14.48
  -1  25   2   87.32    8.69
  -1 -25  -2   88.58    9.27
   1 -25   2  107.69   15.49
  -1 -25   2  103.82   14.70
   1  25   2  103.68   14.19
  -1 -25   2  106.10   12.94
   1  25   2  106.59   13.25
   1 -25  -2  106.14   12.96
  -1 -25   2   81.24    8.99
  -1  25  -2   78.41   10.30
   1  25   2   78.66    8.90
  -1  25   4   64.02   11.65
  -1  25   4   73.81    7.74
   1 -25   4   77.31   12.62
  -1  25   4   85.38   12.29
   1 -25   4   92.27   10.23
  -1 -25  -4  108.07   11.73
   1  25  -4   72.85    9.55
   1 -25   4   78.27   11.70
   1  25   4   89.21    9.70
   1 -25  -4   97.97   11.52
  -1 -25   4  102.22   14.34
  -1 -25   4   64.12   12.27
   1  25   4   63.83   11.56
  -1 -25   4  101.45   10.54
   1  25   4   93.99   13.54
  -1  25  -4   75.04    9.70
   1  25  -6   36.98    7.53
   1 -25   6   18.16   11.26
  -1 -25  -6   24.07    8.14
   1 -25   6   18.07   10.68
  -1  25   6   16.86   10.59
  -1  25   6   21.21   11.79
  -1 -25   6   28.14   10.66
  -1 -25   6   21.29    9.50
   1 -25  -6   21.65    7.93
  -1  25  -6   24.79    7.90
   1  25   6   13.10   11.89
   1  25   6   10.49   10.66
   1 -25   8   -0.45   10.92
  -1  25   8    3.88   12.47
   1 -25   8    2.87   11.79
  -1 -25   8    8.91   10.90
  -1 -25   8    3.23   11.09
   1  25   8   12.18   12.97
   1  25   8    4.92   11.30
   2  25  -1   15.78    8.32
   2 -25   1   42.75   10.20
   2 -25   1   30.55    9.16
  -2  25   1   22.83    7.58
   2 -25   1   31.06    7.60
  -2 -25  -1   29.08    7.68
  -2  25   1   31.57    9.49
   2  25   1   39.51    9.24
   2 -25  -1   27.43    7.69
  -2 -25   1   29.01    7.73
   2  25   1   29.01    7.80
  -2 -25   1   35.90    9.69
  -2  25  -1   33.70    8.72
   2 -25   3   10.81   11.24
  -2  25   3   17.47    7.01
  -2 -25  -3   23.34    8.02
  -2  25   3   36.00   10.52
   2 -25   3   19.21    7.32
  -2  25   3   34.83   10.15
   2 -25   3   14.90    9.78
   2  25  -3   34.50    8.68
  -2 -25   3   22.37    9.83
   2  25   3   21.61    9.97
   2  25   3    5.87    9.81
  -2  25  -3   11.26    8.76
   2  25   3   19.96    7.08
   2 -25  -3   15.35    7.80
  -2 -25   3   25.21    7.39
  -2 -25   3   38.45   11.01
  -2  25   5    2.52    9.93
   2 -25   5   20.66   10.76
  -2  25   5   18.16    5.48
  -2 -25  -5   18.80    7.89
   2  25  -5    4.95    7.45
   2 -25   5    9.76    9.68
  -2  25   5    1.70   10.14
  -2 -25   5    3.59   10.38
  -2 -25   5   12.78    9.89
  -2  25  -5   13.56    7.80
   2  25   5   14.12   10.90
   2 -25  -5   10.71    7.68
  -2 -25   5   10.33    5.59
   2  25   5   12.34    9.87
   2 -25   7    9.61   10.37
  -2  25   7   -0.51   11.40
   2 -25   7   -0.84   11.52
   2  25  -7   25.18    7.13
   2  25   7   11.96   12.32
  -2 -25   7   18.60   10.60
   2  25   7   -4.77   10.59
  -2 -25   7   14.32    8.69
   2 -25  -7    0.02    7.67
  -3 -25   0  126.06   13.86
  -3 -25   0  149.77   14.84
   3  25   0  132.18   14.26
   3 -25   0  134.22   14.01
   3 -25   0  136.13   15.43
   3  25   0  141.54   14.06
  -3  25   0  138.19   14.09
   3  25  -2  119.73   14.65
   3 -25   2  111.67   13.24
  -3  25   2  121.64   14.43
   3 -25   2  113.75   14.28
  -3  25   2  107.05   12.59
  -3 -25  -2  118.68   13.38
   3 -25   2  102.00   16.13
   3  25   2  107.04   13.75
   3 -25  -2  123.67   13.16
  -3  25  -2  126.47   14.45
   3  25   2  124.54   15.27
   3  25   2  102.97    9.55
  -3 -25   2  125.44   14.88
  -3 -25   2  109.92   13.16
   3 -25   4   58.89    7.19
   3  25  -4   70.41    9.07
  -3  25   4   65.97    7.32
  -3  25   4   56.64   10.70
  -3  25   4   75.34   11.44
   3 -25   4   51.94   10.97
   3 -25   4   56.10   12.02
  -3 -25  -4   68.53    8.74
  -3  25  -4   59.12    9.07
   3  25   4   55.92   11.13
   3 -25  -4   72.34    8.58
   3  25   4   62.40    7.35
  -3 -25   4   70.87   11.72
  -3 -25   4   89.11   10.49
   3  25   4   37.99   11.13
  -3 -25   4   91.07   12.72
   3  25  -6   33.73    7.68
   3 -25   6   17.20   11.42
  -3 -25  -6   26.86    8.13
  -3  25   6   26.51   11.38
   3 -25   6   10.07   10.83
   3 -25  -6   13.52    7.65
  -3 -25   6   14.59   10.60
   3  25   6   25.99   11.64
   3  25   6    4.51   10.84
  -3 -25   6   21.51    9.14
  -3  25  -6    7.82    7.70
   3 -25   8    6.06   11.32
  -3  25   8    5.63   12.01
   3 -25   8   -2.91   11.99
  -3 -25   8   11.93   10.74
   3  25   8   -9.45   11.19
   3  25   8   14.42   12.53
   4 -25   1   29.63    7.60
  -4 -25  -1   32.60    8.05
   4  25  -1   30.54    8.64
  -4  25   1   38.45    7.78
   4 -25   1   53.08   10.67
  -4  25   1   37.65    9.69
   4 -25  -1   35.19    7.69
   4  25   1   50.99    9.72
   4  25   1   29.81    7.88
  -4 -25   1   40.14    9.99
  -4 -25   1   31.44    7.86
  -4  25  -1   43.39    8.78
   4  25  -3    5.89    8.59
   4 -25   3    2.36   10.40
  -4 -25  -3    7.12    7.95
  -4  25   3   17.09    9.70
   4 -25   3    6.97    9.82
   4 -25   3    8.14    7.28
  -4  25   3   10.25    7.04
  -4 -25   3    8.00    7.36
   4 -25  -3   14.31    7.75
   4  25   3   12.92    7.16
   4  25   3    9.75   10.08
  -4 -25   3   14.14   10.80
   4  25   3   11.53    9.71
  -4  25  -3    2.83    8.50
  -4  25   5   27.82    5.99
   4  25  -5   14.71    7.68
   4 -25   5   15.79   11.03
  -4  25   5   16.96   10.50
   4 -25   5   14.28   10.69
  -4 -25  -5   19.41    8.13
  -4  25  -5    7.23    7.78
   4  25   5   13.96   10.68
   4  25   5   11.38    9.80
  -4 -25   5    8.98    6.09
   4 -25  -5   15.66    7.53
  -4 -25   5   12.35   10.70
   4 -25   7   -6.13   11.56
   4  25  -7   31.54    7.25
   4 -25   7    7.85   10.67
  -4  25   7   -4.09   11.30
   4  25   7    7.49   11.36
  -4 -25   7   14.01   10.49
   4  25   7   -1.78   11.02
   4 -25  -7   -1.73    7.52
   5 -25   0  164.85   14.38
  -5  25   0  158.54   15.34
  -5 -25   0  159.63   14.66
   5  25   0  166.00   15.07
   5 -25   0  159.72   13.01
   5  25   0  169.17   15.21
   5 -25   2   74.02    8.75
   5 -25   2   73.78   10.49
   5 -25   2   68.93   10.97
   5  25  -2   51.38    9.56
   5 -25   2   94.46   12.10
  -5 -25  -2   69.43    9.00
  -5  25   2   55.18    8.18
  -5  25   2   62.33   10.59
   5 -25  -2   64.38    8.51
  -5 -25   2   60.64   10.97
   5  25   2   78.75   10.98
  -5  25  -2   78.40    9.46
   5  25   2   80.80    8.57
  -5 -25   2   55.94    8.52
   5 -25   4   86.55    9.85
   5  25  -4  104.11   12.67
   5 -25   4   62.69   11.11
  -5  25   4   82.29   11.73
  -5 -25  -4   98.77   12.04
  -5  25   4   91.75   10.09
   5 -25   4   53.15   11.90
   5 -25   4   79.09   10.60
  -5 -25   4   72.44   11.79
   5  25   4   52.48   11.08
   5 -25  -4   67.81    8.58
   5  25   4   87.87   12.92
   5  25   4   67.31    8.64
  -5 -25   4   90.77   10.58
  -5  25  -4   56.52    8.88
  -5 -25  -6   14.20    8.21
   5 -25   6    0.69   10.43
   5  25  -6   35.48    7.61
   5 -25   6   -8.58   11.65
  -5  25   6   13.66   10.55
   5 -25  -6    0.64    7.50
  -5  25  -6    5.99    7.62
   5  25   6    7.16   10.57
   5  25   6    9.58   10.59
  -5 -25   6   12.00   10.35
   5 -25   8  -17.93   12.87
  -5  25   8    1.84   11.41
   5 -25   8   -8.33   11.63
  -5 -25   8   23.43   10.48
   5  25   8   -1.86   11.73
   5  25   8    5.71   11.56
   6 -25   1   84.69   10.18
   6 -25   1   80.62   11.40
   6  25  -1   67.23    9.39
   6 -25   1   66.03    8.72
  -6  25   1   78.35    8.69
  -6 -25  -1   65.03    8.91
  -6 -25   1   63.23    8.74
  -6  25  -1   60.64    9.16
   6 -25  -1   70.98    8.68
   6  25   1   79.99   12.49
   6  25   1   65.80    8.97
   6 -25  -1   81.97    8.42
  -6  25   3   10.22    9.72
   6 -25   3    4.02   10.51
   6 -25   3   12.06    7.30
  -6 -25  -3   13.04    8.09
  -6  25   3   12.43    6.88
   6 -25   3    2.30    9.39
   6 -25   3    2.03    9.70
   6  25  -3    3.30    8.40
   6  25   3    7.89    9.83
  -6  25  -3    9.12    8.06
  -6 -25   3   11.12    7.53
   6 -25  -3    8.12    7.50
  -6 -25   3   16.07   10.33
   6  25   3    7.57    7.22
  -6  25   5   26.53    6.08
  -6 -25  -5   10.27    8.02
   6  25  -5   18.22    7.23
   6 -25   5    5.64   10.38
  -6  25   5   10.10    9.87
   6 -25   5    0.26   10.83
   6 -25   5    7.25    9.64
  -6 -25   5    6.89    6.64
   6  25   5   11.63    9.79
  -6 -25   5   13.09   10.87
  -6  25  -5    1.21    7.54
   6  25   5   14.44    9.77
   6 -25  -5    5.04    7.23
   6 -25   7   -4.94   11.80
   6  25  -7   34.53    8.18
   6 -25   7    0.26   10.59
  -6  25   7  -12.35   10.66
   6  25   7   11.04   10.87
   6 -25  -7   -8.16    7.27
  -6 -25   7   12.71   11.06
   6  25   7    8.60   10.67
   7 -25   0   80.16    8.79
   7  25   0   90.73    9.79
  -7  25   0   80.19    9.28
  -7 -25   0   87.68    9.36
   7 -25   0  100.79   11.61
   7 -25   2   36.89   11.01
  -7  25   2   27.46    7.45
  -7  25   2   33.36    9.18
   7  25  -2   23.11    8.91
   7 -25   2   31.37    7.77
   7 -25   2   34.79    9.96
  -7 -25  -2   24.02    8.45
   7 -25  -2   33.99    7.77
  -7 -25   2   40.49   10.41
   7  25   2   42.65   10.23
   7  25   2   37.86    8.12
   7 -25  -2   33.68    6.74
  -7 -25   2   28.78    7.92
  -7  25  -2   42.36    8.53
   7 -25   4   65.32    7.17
  -7  25   4   72.21   10.81
  -7 -25  -4   82.58    9.34
   7  25  -4   84.41    9.46
  -7  25   4   70.26    7.59
   7 -25   4   37.60   10.80
   7 -25   4   82.90   10.58
  -7 -25   4   76.10   11.42
  -7 -25   4   72.36    8.09
   7  25   4   54.63   10.97
   7 -25  -4   59.82    8.16
   7 -25   6   -7.04   11.93
  -7 -25  -6   36.28    8.48
  -7  25   6   34.16   11.09
   7 -25   6   -4.25   10.49
   7  25  -6   55.64    8.74
   7 -25   6   33.95   10.19
   7 -25  -6   24.29    7.55
   7  25   6   10.08   10.69
   7  25   6   21.28   10.71
  -7  25  -6    5.19    7.46
  -7 -25   6   24.01   10.12
   7 -25   8    5.60   11.42
  -7 -25   8   13.00   12.05
  -8 -25  -1   65.80    9.07
   8 -25   1   58.10    8.65
  -8  25   1   67.40    8.44
   8  25  -1   60.39    9.67
   8 -25   1   68.23    9.90
   8 -25   1   72.41   11.64
  -8 -25   1   68.30    8.92
   8  25   1   79.31   12.05
   8  25   1   68.29    9.01
   8 -25  -1   68.62    8.42
   8 -25  -1   84.28    8.67
  -8  25  -1   59.30    8.96
   8 -25   3   21.93    9.31
  -8 -25  -3   19.01    8.28
   8 -25   3   14.90    7.10
  -8  25   3   17.50    6.89
   8 -25   3    9.28   10.22
   8  25  -3   31.42    8.82
  -8  25   3   20.87    9.23
  -8 -25   3   24.77    7.44
  -8 -25   3   33.31   10.22
   8  25   3   20.55    9.87
  -8  25  -3   21.34    7.93
   8 -25  -3   16.15    7.17
   8  25   3   20.53    7.09
  -8  25   5   13.49    6.14
   8  25  -5   13.77    8.48
   8 -25   5    1.21    9.84
  -8 -25  -5    8.66    8.22
   8 -25   5   -0.42   10.20
  -8  25   5   -6.65    9.95
   8 -25  -5    5.10    7.31
   8  25   5    4.27   10.03
  -8 -25   5    7.69   10.01
  -8 -25   5    2.05    6.96
  -8  25  -5    1.75    7.33
   8  25  -7   19.34    8.58
  -8  25   7  -14.69   10.72
   8 -25   7    4.30   10.60
   8 -25  -7   -4.76    7.42
   8  25   7   10.13   11.11
  -8 -25   7   10.15   11.52
  -9 -25   0   34.92    8.29
  -9  25   0   28.44    7.84
   9 -25   0   25.82    8.60
   9 -25   0   21.35    7.77
   9  25   0   28.68    8.64
   9 -25   2   81.56   11.59
   9  25  -2   72.38    9.86
  -9  25   2   56.54    8.09
  -9 -25  -2   72.34    9.15
   9 -25   2   77.24    8.87
   9 -25   2   77.90   10.21
   9 -25  -2   61.43    8.37
   9  25   2   84.41    8.57
  -9 -25   2   67.33    8.79
   9  25   2   88.77   12.28
  -9  25  -2   80.13    9.12
   9 -25  -2   66.83    7.76
  -9 -25  -4   69.08    9.06
   9 -25   4   77.04    9.39
   9  25  -4   62.87    9.56
   9 -25   4   20.69   11.10
   9 -25   4   63.67   10.05
  -9  25   4   50.47    7.32
  -9 -25   4   45.88    7.95
   9 -25  -4   44.48    7.88
  -9  25  -4   45.47    8.20
  -9 -25   4   59.11   11.10
   9  25   4   48.30   10.66
  -9  25   6    7.41   10.57
   9 -25   6   22.17   10.49
   9  25  -6   41.34    9.11
  -9 -25  -6   40.50    8.68
   9 -25   6  -10.57    9.99
   9  25   6   21.66   10.67
   9 -25  -6    5.60    7.38
  -9  25  -6   -6.38    7.14
  -9 -25   6   23.12   10.41
 -10 -25  -1   57.75    8.78
 -10  25   1   51.64    8.05
  10 -25   1   62.53    9.57
  10  25  -1   55.43    9.41
  10 -25   1   46.35    8.05
 -10 -25   1   53.82    8.51
  10 -25  -1   59.93    8.41
 -10  25  -1   61.46    8.60
  10 -25  -1   52.28    8.07
  10  25   1   60.68    8.72
 -10  25   3   17.27    6.75
  10 -25   3   15.36    7.24
  10 -25   3   10.94    8.98
  10 -25   3   12.88    9.86
  10  25  -3    4.97    8.98
 -10 -25  -3   14.21    8.12
  10 -25  -3   11.57    5.82
 -10 -25   3   14.23    7.60
  10  25   3   20.83    9.39
 -10  25  -3    3.87    7.61
  10 -25  -3    7.40    7.15
 -10  25   5   14.86    6.46
  10 -25   5   -4.51   10.12
  10  25  -5   15.36    9.04
  10 -25   5   13.06    9.59
 -10 -25  -5   11.94    8.35
 -10  25  -5    7.67    7.34
  10 -25  -5   -1.21    7.29
 -10 -25   5   -3.92    7.43
  10  25   5   13.97   10.00
 -10  25   7  -20.41   11.22
  10 -25   7   -2.25   10.59
  10  25  -7   10.05    9.15
  10 -25   7    5.40   11.31
 -10 -25   7    6.25   11.87
  10 -25  -7  -13.70    7.52
  10  25   7   13.39   11.28
  11 -25   0   16.83    8.29
 -11 -25   0   17.27    7.95
 -11  25   0   12.44    7.39
  11  25   0   20.58    8.41
  11 -25   0    1.98    7.15
 -11 -25  -2   35.09    8.35
  11 -25   2   45.78    9.35
  11  25  -2   40.60    9.22
  11 -25   2   31.95    7.87
 -11  25   2   23.69    7.05
  11 -25  -2   26.72    7.30
 -11 -25   2   34.45    8.04
  11 -25  -2   34.13    7.13
 -11  25  -2   34.11    8.00
  11 -25   4   63.65   10.13
  11 -25   4   51.53    7.15
 -11  25   4   61.41    7.63
  11  25  -4   66.08   10.04
 -11 -25  -4   65.50    9.34
 -11 -25   4   60.60    8.72
  11  25   4   60.66    7.94
  11  25   4   60.46   10.75
  11 -25  -4   49.33    8.02
 -11  25  -4   28.48    8.09
 -11 -25  -6   36.74    8.68
  11  25  -6   19.21    9.12
  11 -25   6   24.01   10.57
  11 -25  -6    6.95    7.81
  11  25   6   24.01   10.53
 -11  25  -6   -2.60    7.22
  12  25  -1   20.10    8.63
 -12  25   1   18.89    7.18
  12 -25   1    8.85    7.59
  12 -25   1   18.14    8.73
 -12 -25  -1   18.16    7.96
  12 -25  -1   17.27    7.66
  12 -25  -1   16.80    7.01
 -12 -25   1   18.63    7.98
 -12  25  -1   16.50    7.49
  12 -25   3   16.49    7.38
 -12 -25  -3   21.52    8.44
  12  25  -3    9.59    9.46
  12 -25   3    1.27   10.02
  12 -25   3    5.02    9.21
 -12  25   3    6.83    6.79
 -12 -25   3   14.15    7.98
  12  25   3   26.20    9.59
 -12  25  -3    4.28    7.25
  12 -25  -3   10.92    6.08
  12 -25  -3    8.64    7.14
 -12 -25  -5   18.04    8.52
  12 -25   5   -1.97    9.89
  12 -25   5    6.47    9.74
  12  25  -5    4.04    9.46
 -12  25   5   13.30    6.83
  12 -25  -5    5.03    7.53
 -12  25  -5    4.72    7.03
 -12 -25   5    1.04    7.87
  12  25   5   25.95   10.14
  12 -25   7   -3.69   10.85
  12  25   7   21.72   11.00
  13 -25   0   54.75    8.12
 -13 -25   0   52.44    8.73
  13 -25   0   55.39    8.99
 -13  25   0   40.56    7.96
  13  25  -2   29.47    9.15
  13 -25   2   39.05    7.98
  13 -25   2   33.56    9.25
 -13  25   2   23.71    7.20
 -13 -25  -2   26.29    8.57
  13 -25  -2   24.25    7.32
 -13  25  -2   19.88    7.55
 -13 -25   2   30.00    8.20
  13 -25  -2   24.11    7.28
 -13  25   4   28.69    7.28
  13 -25   4   37.91    6.65
  13 -25   4    6.44   10.45
  13  25  -4   29.31    9.74
 -13 -25  -4   37.95    8.96
  13 -25   4   30.68    9.87
 -13  25  -4    8.09    7.43
 -13 -25   4   30.04    8.50
  13 -25  -4   18.89    7.74
  13  25   4   38.52    7.50
  13  25   4   36.80   10.37
  13 -25   6   11.08   10.34
 -13 -25  -6   32.94    9.12
  13  25  -6   -2.15    9.58
  13 -25   6  -14.34   10.30
  13 -25  -6   -0.30    7.78
 -13  25  -6   -9.33    7.02
  13  25   6   28.96   10.79
 -14 -25  -1   13.14    8.38
  14 -25   1   17.93    8.64
  14 -25   1   11.64    7.73
 -14  25   1    9.64    7.12
  14 -25  -1    9.92    7.13
 -14  25  -1    7.17    7.34
  14 -25  -1    8.93    7.57
 -14 -25   1   13.42    8.06
 -14 -25  -3    8.62    8.54
 -14  25   3    0.60    6.80
  14 -25   3   10.17    9.32
  14 -25   3   11.49    7.60
  14  25  -3    7.83    9.16
 -14 -25   3   13.65    8.32
  14 -25  -3    7.70    6.34
 -14  25  -3    4.10    7.43
  14 -25  -3    1.19    7.30
  14  25   3   13.37    8.22
 -14  25   5    4.53    6.75
  14 -25   5   -8.58   10.18
  14  25  -5   -2.67    9.47
  14 -25   5    4.24    9.95
 -14 -25  -5   19.55    9.05
 -14 -25   5    4.19    8.23
  14 -25  -5   -0.51    7.62
 -14  25  -5   -9.92    7.13
  14  25   5   21.30   10.47
 -15  25   0   26.58    7.47
 -15 -25   0   30.34    8.62
  15 -25   0   35.90    8.68
  15 -25   0   33.14    7.81
  15 -25   2   31.41    8.07
 -15 -25  -2   25.96    8.87
 -15  25   2   10.46    7.16
  15 -25   2   20.19    9.17
 -15 -25   2   15.94    8.54
  15  25   2   28.06    8.74
  15 -25  -2   19.09    7.44
  15 -25  -2   22.51    7.41
 -15  25  -2   14.64    7.63
  15 -25   4   22.66    9.56
 -15 -25  -4   20.62    9.13
  15 -25   4   20.38    6.78
 -15  25   4   19.78    7.21
  15  25   4   18.27    7.62
 -15 -25   4   20.44    8.70
  15 -25  -4    9.82    7.58
 -15  25  -4    6.29    7.33
  15 -25   6   -4.41   11.23
 -15 -25  -6   22.30    9.44
  15 -25   6    1.87   10.65
 -15  25  -6  -17.76    7.30
  15 -25  -6    2.96    8.02
  15  25   6   31.89   11.28
 -16  25   1    4.60    7.03
  16 -25   1    6.90    7.76
 -16 -25  -1   12.60    8.61
  16 -25   1    3.74    8.61
  16 -25  -1   11.38    7.72
  16 -25  -1    2.24    7.41
 -16  25  -1   -0.65    7.44
 -16 -25   1    5.93    8.28
 -16 -25  -3    1.15    8.99
  16 -25   3    4.66    9.11
  16 -25   3    4.25    7.73
 -16  25   3   -1.73    6.96
  16 -25  -3   -5.78    7.29
  16 -25  -3    6.12    6.67
 -16 -25   3   -3.59    8.56
 -16  25  -3   -3.08    7.38
  16  25   3   17.48    8.19
 -16  25   5    4.24    7.23
  16 -25   5   18.79   10.44
 -16 -25  -5    8.84    9.32
 -16  25  -5   -4.66    7.26
  16 -25  -5   -1.91    8.07
 -16 -25   5   -7.10    8.93
  17 -25   0   16.37    8.40
  17 -25   0   16.43    7.81
 -17  25   0   15.51    7.53
 -17 -25   0   18.42    8.72
 -17  25   2   10.52    7.34
  17 -25   2    4.47    9.03
 -17 -25  -2   16.07    9.16
  17 -25   2    8.59    8.28
 -17  25  -2    3.96    7.48
 -17 -25   2   14.43    8.75
  17 -25  -2   12.23    7.33
  17  25   2   16.41    8.76
  17 -25  -2    4.85    7.35
  17 -25   4   10.41    9.97
 -17 -25  -4   29.18    9.87
 -17  25   4    8.20    7.33
 -17 -25   4    1.75    9.24
  17  25   4   19.49    7.92
  17 -25  -4   15.94    7.93
 -17  25  -4    0.64    7.32
 -18  25   1    2.36    7.11
  18 -25   1    3.52    8.24
  18 -25   1   11.64    8.92
 -18 -25  -1   14.14    8.97
  18  25   1   17.09    8.84
 -18 -25   1    3.52    8.60
  18 -25  -1    7.62    7.83
 -18  25  -1   -7.41    7.38
  18 -25  -1    5.50    7.53
 -18 -25  -3   11.61    9.33
 -18  25   3   -1.95    7.36
  18 -25   3    7.26    9.41
  18 -25   3    4.36    7.93
  18 -25  -3   -3.48    7.56
 -18 -25   3   -1.43    9.08
  18 -25  -3    6.18    6.88
  18  25   3   19.22    8.78
 -18  25  -3   -4.85    7.55
 -19  25   0   -1.86    7.32
 -19 -25   0    6.01    9.07
  19 -25   0   13.96    8.49
  19  25   0   20.64    9.18
  19 -25   0    4.34    7.85
  19 -25   2    6.65    8.44
  19 -25   2   11.62    9.38
 -19  25   2    3.70    7.30
 -19 -25  -2    8.40    9.34
  19 -25  -2   -0.24    7.67
 -19 -25   2   -0.38    9.25
  19 -25  -2    9.85    7.46
  19  25   2   13.16    8.98
 -19  25  -2   -4.97    7.63
 -19  25   4    9.95    7.83
  19 -25   4   15.73   10.32
 -19 -25  -4   19.27    9.99
 -19 -25   4    3.54    9.86
 -19  25  -4   -8.16    7.52
  19 -25  -4    7.90    8.12
 -20  25   1   -1.92    7.54
  20  25  -1    8.53    9.54
  20 -25   1    4.61    8.64
 -20 -25  -1    1.17    9.46
  20 -25   1   11.52    9.15
 -20 -25   1    8.23    9.29
  20  25   1    8.77    9.15
  20 -25  -1   13.47    8.11
  20 -25  -1    7.14    7.89
 -20  25  -1   -1.99    7.74
  20 -25   3   13.15    9.96
 -20 -25  -3    7.85   10.01
  20 -25   3    6.02    8.36
 -20  25   3    3.25    7.79
 -20 -25   3   -0.46    9.98
  20  25   3   12.05    9.19
  20 -25  -3    0.96    7.95
  20 -25  -3    4.63    7.29
 -20  25  -3   -0.69    7.73
  21 -25   0    7.14    8.44
  21 -25   0    3.51    8.87
 -21 -25   0    9.28    9.78
  21  25   0   14.83    9.51
 -21  25   0   -3.34    7.75
  21 -25   2    7.52    9.89
  21  25  -2    8.17   10.19
  21 -25   2   -7.12    9.04
 -21 -25  -2    2.08   10.15
 -21  25   2   -5.11    7.46
  21  25   2    8.12    9.85
  21 -25  -2   -4.99    7.98
 -21  25  -2   -4.16    8.12
 -21 -25   2    6.83    9.93
  21 -25  -2    5.32    7.85
 -22  25   1    0.18    7.86
  22 -25   1    7.35    9.34
  22  25  -1   13.23   10.05
 -22  25  -1   -6.35    7.91
  22 -25  -1   10.91    8.44
  22 -25  -1   -2.40    8.37
   0  26   0  155.49   14.94
   0 -26   0  127.70   13.79
   0  26   2   87.36    8.95
   0 -26   2   85.67    9.22
   0  26   2   94.73   12.47
   0 -26  -2   87.28    9.36
   0 -26   2  112.83   15.22
   0  26  -2   93.90   10.22
   0 -26   4  119.03   11.35
   0  26  -4  136.88   13.53
   0  26   4  100.18   14.84
   0 -26   4  114.36   15.85
   0 -26   4  128.20   14.74
   0 -26  -4  136.56   12.67
   0  26   4  132.40   15.03
   0  26   4  118.20   10.53
   0  26  -6   35.28    7.96
   0 -26   6   22.96    9.75
   0 -26   6   23.20   10.97
   0  26   6   32.20   12.41
   0 -26  -6   30.86    8.34
   0 -26   8    4.81   11.68
   0  26   8   -6.74   13.01
  -1  26   1   21.41    7.81
   1 -26   1   30.84   10.23
   1  26  -1   18.80    8.58
  -1 -26  -1   27.84    7.96
  -1  26   1   25.90    9.16
   1 -26   1   27.48    7.75
   1  26   1   40.45    9.51
  -1 -26   1   33.71   10.17
   1 -26  -1   23.64    7.71
  -1 -26   1   22.64    7.87
   1  26   1   20.98    7.76
  -1  26  -1   30.79    8.73
  -1  26   3   12.46    7.07
   1  26  -3    6.73    8.79
   1 -26   3    8.98    7.37
   1 -26   3   13.63   11.28
  -1  26   3   12.15   10.05
   1 -26   3    8.24    9.99
  -1 -26  -3    8.80    7.95
   1  26   3   14.55   10.05
  -1 -26   3    6.65    7.46
  -1  26  -3   12.27    8.99
   1  26   3   11.92    9.82
   1 -26  -3    6.76    8.07
   1  26   3    7.74    6.95
  -1 -26   3   12.84   10.86
  -1  26   5   19.72    5.70
  -1  26   5    7.86   10.87
   1  26  -5    8.96    7.69
  -1 -26  -5   12.18    8.10
   1 -26   5   18.96   10.91
   1 -26   5   20.24   11.25
   1 -26   5   21.04    5.22
   1  26   5    9.73   11.37
   1  26   5    5.94    9.57
   1 -26  -5   14.91    7.90
   1  26   5    7.45    5.59
  -1 -26   5   15.76   10.70
  -1 -26   5    3.82   10.42
  -1  26  -5   18.27    8.12
  -1 -26   5    7.59    5.56
   1 -26   7    4.03   10.49
   1 -26   7    3.95   11.41
  -1  26   7    2.87   12.10
  -1 -26  -7    6.54    8.11
   1  26   7    1.50   12.15
  -1 -26   7    7.55   10.91
   1 -26  -7   -4.95    7.81
   2  26   0  136.65   14.42
   2 -26   0  138.23   14.09
  -2  26   0  141.94   14.51
  -2 -26   0  145.47   14.05
   2  26  -2  148.81   15.03
  -2 -26  -2  125.72   14.24
   2 -26   2  129.52   14.29
  -2  26   2  136.41   15.42
  -2  26   2  131.07   13.06
   2 -26   2  157.66   16.90
  -2 -26   2  145.18   16.25
   2  26   2  133.82   14.83
   2  26   2  125.64   13.98
   2 -26  -2  138.14   13.91
  -2  26  -2  134.01   14.79
  -2 -26   2  112.34   13.79
  -2 -26  -4  108.07   12.38
  -2  26   4   95.56   13.94
   2 -26   4  104.37   10.63
   2  26  -4  104.64   12.54
   2 -26   4   80.23   13.10
   2 -26   4   93.61   14.50
  -2  26   4   96.56   10.77
  -2 -26   4   83.47   12.88
   2  26   4   95.08   10.04
   2  26   4   95.33   14.27
  -2  26  -4   82.42    9.96
  -2 -26   4  103.05   10.98
   2  26   4  116.34   14.43
   2 -26  -4  104.97   11.90
  -2  26   6   16.60   11.52
  -2 -26  -6   33.76    8.45
   2  26  -6   39.66    7.97
   2 -26   6   18.28   11.67
   2 -26   6   12.94   10.90
  -2  26  -6   17.32    8.13
  -2 -26   6   29.81   11.12
   2 -26  -6   23.58    8.26
   2  26   6    1.72   10.78
   2  26   6   19.33   12.21
  -2  26   8   -1.63   12.42
   2 -26   8    5.74   11.48
   2  26   8    6.38   13.14
  -2 -26   8    1.42   11.19
  -3  26   1   28.37    9.64
  -3 -26  -1   37.45    8.21
   3  26  -1   17.78    8.58
   3 -26   1   40.61   10.63
   3 -26   1   33.99    8.02
  -3  26   1   23.68    7.83
  -3  26  -1   36.13    8.75
   3  26   1   41.04    9.67
   3 -26  -1   25.49    7.89
   3  26   1   30.82    8.03
  -3 -26   1   25.61    7.91
  -3 -26   1   28.71    9.71
  -3  26   3   32.32    7.13
   3  26  -3   34.40    9.04
   3 -26   3   29.39   10.17
   3 -26   3   36.78    7.69
  -3 -26  -3   23.33    8.43
   3 -26   3   24.25   11.50
  -3  26   3   49.68   10.68
  -3  26  -3   14.87    8.89
  -3 -26   3   33.12    7.69
   3 -26  -3   30.22    7.97
   3  26   3   34.38   10.52
   3  26   3   21.10    7.28
  -3 -26   3   54.61   11.29
   3 -26   5    3.22   10.88
   3  26  -5    9.11    7.75
  -3 -26  -5   12.88    7.88
  -3  26   5   14.48    5.65
  -3  26   5    0.90   10.75
   3 -26   5   10.80   10.99
   3  26   5   10.14   10.52
  -3  26  -5    6.45    7.97
   3  26   5    7.01   10.07
  -3 -26   5    1.82    5.96
  -3 -26   5   11.99   10.58
   3 -26  -5   13.62    7.84
   3  26  -7   28.77    7.28
  -3  26   7    1.47   11.60
   3 -26   7    2.97   11.72
   3 -26   7    6.15   10.47
   3  26   7    9.11   11.78
  -3 -26   7    9.60   10.67
   3 -26  -7    2.27    7.90
  -4 -26   0  127.35   14.82
   4  26   0  144.60   15.30
  -4  26   0  146.57   15.00
   4 -26   0  160.32   14.48
   4  26  -2   77.33   10.08
  -4  26   2   66.30    8.49
   4 -26   2   75.48    8.93
  -4 -26  -2   70.98    9.30
  -4  26   2   89.84   11.67
   4 -26   2   95.95   12.55
   4 -26  -2   71.77    8.75
   4  26   2   76.47    8.77
   4  26   2   83.26   11.84
  -4  26  -2   88.30   10.04
  -4 -26   2   89.05   12.22
  -4 -26   2   72.44    8.99
   4 -26   4  121.70   10.90
   4 -26   4   74.69   13.20
  -4  26   4  118.40   10.81
  -4  26   4  118.15   14.40
   4  26  -4  133.75   12.97
   4 -26   4  105.39   14.88
  -4 -26  -4  117.85   13.11
  -4 -26   4  127.46   15.77
   4  26   4   90.53   10.12
   4  26   4  114.64   14.33
   4 -26  -4  113.59   12.28
  -4 -26   4  125.40   11.27
  -4  26  -4  104.61   12.66
  -4 -26  -6   23.95    8.43
  -4  26   6   22.12   11.45
   4 -26   6    2.70   10.91
   4 -26   6    8.96   11.85
   4  26  -6   33.69    7.60
   4  26   6   14.66   11.37
   4  26   6   11.32   11.24
  -4 -26   6   17.87   10.56
  -4  26  -6   13.31    7.89
   4 -26  -6   13.20    7.72
   4 -26   8    2.73   11.79
  -4  26   8   -1.41   12.22
  -4 -26   8   22.36   10.55
   4  26   8    8.97   12.44
  -5  26   1   20.34    7.79
   5 -26   1   27.86    9.01
   5 -26   1   26.14   10.26
   5 -26   1   25.53    7.84
   5  26  -1   22.73    8.69
  -5 -26  -1   20.27    8.07
   5  26   1   26.68    9.37
  -5  26  -1   29.20    8.67
   5  26   1   21.26    7.94
  -5 -26   1   17.81    7.92
   5 -26  -1   28.05    7.72
   5 -26   3    1.73    7.33
  -5  26   3    0.47    6.64
   5 -26   3   -1.15    9.23
   5 -26   3    6.08   10.72
  -5 -26  -3    5.93    8.13
   5  26  -3   -2.74    8.52
  -5  26   3    7.81    9.71
   5  26   3   11.28    7.14
   5  26   3    5.11    9.67
  -5 -26   3    2.93    7.27
   5 -26  -3    3.96    7.57
  -5 -26   3    7.92   10.32
  -5  26  -3    1.61    8.22
  -5  26   5    5.01   10.55
  -5 -26  -5   11.34    8.09
   5  26  -5   16.90    7.95
   5 -26   5   -2.09   11.13
   5 -26   5    3.21   10.37
  -5  26   5   26.44    6.15
  -5  26  -5    7.24    7.82
  -5 -26   5   16.58   10.60
   5  26   5    6.90   10.17
   5 -26  -5    5.19    7.68
  -5 -26   5   10.59    6.47
   5 -26   7   -5.36   12.21
   5  26  -7   25.59    6.90
   5 -26   7    4.16   10.97
  -5  26   7    0.07   11.25
  -5 -26   7   19.21    9.89
   5 -26  -7   -2.56    7.76
   5  26   7    3.49   10.94
  -6  26   0  176.17   15.30
   6 -26   0  168.90   15.19
  -6 -26   0  172.88   15.66
   6 -26   0  167.03   13.71
   6  26   0  162.43   15.94
  -6 -26  -2   65.91    9.02
   6  26  -2   48.73    9.35
   6 -26   2   62.12    8.74
   6 -26   2   70.33   11.67
  -6  26   2   51.19    8.00
   6 -26   2   69.00   10.33
  -6  26  -2   62.72    9.28
   6 -26  -2   48.89    8.40
   6  26   2   74.20   10.90
  -6 -26   2   60.41    8.59
  -6 -26   2   65.82   11.16
   6  26   2   62.60    8.79
  -6  26   4  113.20   14.41
  -6  26   4  119.40   11.01
   6 -26   4  106.84   10.70
   6 -26   4   94.20   11.50
  -6 -26  -4  110.97   12.80
   6  26  -4  131.53   12.65
   6 -26  -4  107.70   11.90
   6  26   4   86.54   13.44
  -6 -26   4  126.42   14.68
  -6 -26   4  123.66   11.52
  -6  26   6   21.05   10.53
  -6 -26  -6   26.81    8.45
   6 -26   6   -5.71   10.59
   6  26  -6   45.42    7.35
  -6 -26   6   28.75   10.17
  -6  26  -6    3.87    7.61
   6  26   6    9.96   10.48
   6 -26  -6    6.29    7.58
  -7  26   1   17.23    7.74
  -7 -26  -1    9.92    8.07
   7 -26   1   17.05    9.11
   7  26  -1   13.86    8.70
   7 -26   1    9.45    7.84
   7  26   1    8.12    8.06
   7 -26  -1   11.76    7.56
   7 -26  -1   17.37    7.57
  -7 -26   1    7.44    7.85
  -7  26  -1   11.93    8.31
  -7  26   3   -0.13    9.62
   7  26  -3    9.42    8.38
  -7  26   3    1.81    6.75
   7 -26   3   11.80    9.40
   7 -26   3    4.44   10.75
   7 -26   3    5.19    7.18
  -7 -26  -3    8.95    8.02
  -7  26  -3    2.53    7.79
   7 -26  -3    3.25    7.37
   7  26   3   11.03    9.48
   7  26   3    5.81    7.07
  -7 -26   3    4.09    7.58
  -7 -26   3    6.32    9.85
   7  26  -5   14.55    8.44
  -7  26   5   14.51    6.26
   7 -26   5    4.88   10.81
   7 -26   5    4.71    9.87
  -7 -26  -5    2.74    8.26
  -7  26   5   -4.22    9.67
  -7 -26   5   -0.98    6.88
   7  26   5    9.37   10.19
  -7  26  -5   -0.44    7.59
  -7 -26   5    9.14   10.83
   7 -26  -5    1.34    7.34
   7  26  -7   26.14    8.53
  -7  26   7  -11.85   10.85
   7 -26   7    2.44   10.71
  -7 -26   7    0.82   11.45
   7  26   7    9.67   11.13
   7 -26  -7  -10.73    7.39
   8  26   0   62.31    9.33
   8 -26   0   67.31    9.16
  -8 -26   0   51.17    8.82
   8 -26   0   52.03    8.30
  -8  26   0   57.25    8.63
  -8 -26  -2   63.53    9.05
   8 -26   2   72.71   10.15
   8 -26   2   68.17   11.96
  -8  26   2   55.80    8.13
   8 -26   2   68.34    8.64
   8  26  -2   78.09    9.74
   8  26   2   85.37   12.38
   8  26   2   69.40    8.79
  -8 -26   2   71.95    8.72
  -8  26  -2   58.38    9.02
   8 -26  -2   70.19    7.60
   8 -26  -2   58.41    8.40
   8 -26   4   26.48   11.36
   8  26  -4   69.72    9.49
  -8  26   4   60.44    7.44
   8 -26   4   61.15    7.18
  -8  26   4   56.95   10.55
   8 -26   4   65.81   10.45
  -8 -26  -4   65.55    9.14
  -8 -26   4   58.49    8.03
  -8  26  -4   49.33    8.51
   8  26   4   46.90   10.86
   8 -26  -4   50.23    8.00
  -8 -26   4   62.91   11.26
  -8  26   6   32.59   11.35
   8  26  -6   51.94    9.03
   8 -26   6    0.19   11.00
  -8 -26  -6   50.72    8.92
   8 -26   6   30.46   10.40
  -8 -26   6   32.00   10.43
   8 -26  -6    2.87    7.50
  -8  26  -6    1.28    7.49
   8  26   6   29.73   10.98
   9 -26   1   24.99    8.97
  -9 -26  -1    6.38    7.96
  -9  26   1   13.02    7.38
   9  26  -1   -3.16    8.67
   9 -26   1   20.00    7.76
   9 -26  -1   -0.10    7.31
  -9 -26   1   10.84    7.72
   9  26   1   17.46    7.95
   9 -26  -1    5.58    7.19
  -9  26  -1   11.26    7.87
   9 -26   3   11.82   10.19
  -9  26   3    7.23    6.77
   9 -26   3   10.09    7.42
   9 -26   3   20.25    9.10
   9  26  -3   10.19    8.77
  -9 -26  -3   14.55    8.19
  -9  26  -3    9.00    7.81
   9  26   3   21.58    9.58
   9 -26  -3    7.91    7.05
  -9 -26   3    4.32    7.31
   9 -26  -3    2.73    5.45
  -9  26   5   21.43    6.66
   9 -26   5   -6.38   10.39
   9  26  -5   16.51    8.88
   9 -26   5    7.17    9.86
  -9 -26  -5   21.45    8.54
   9  26   5   18.59   10.28
   9 -26  -5    3.60    7.52
  -9  26  -5    4.42    7.39
  -9 -26   5    1.23    7.35
  -9 -26   5   17.52   10.35
   9  26  -7   23.44    9.20
  -9  26   7   -8.27   11.23
   9 -26   7   10.10   10.96
   9 -26   7   10.84   11.54
   9 -26  -7   -8.49    7.62
   9  26   7   12.59   11.47
  -9 -26   7    6.33   12.00
  10 -26   0   62.90    8.85
  10  26   0   64.72    9.00
 -10 -26   0   52.89    8.55
  10 -26   0   53.92    8.18
 -10  26   0   38.71    8.23
 -10 -26  -2   62.78    9.03
  10 -26   2   66.95    8.66
  10  26  -2   82.98   10.13
 -10  26   2   56.36    7.94
  10 -26   2   74.49    9.94
  10 -26  -2   65.18    8.18
  10  26   2   60.65    8.39
 -10 -26   2   61.43    8.71
  10 -26  -2   72.17    7.65
 -10  26  -2   58.38    8.79
 -10  26   4   59.48    7.73
  10 -26   4   80.62    9.82
  10 -26   4   68.54   10.25
 -10 -26  -4   65.77    9.54
  10  26  -4   73.50   10.24
  10 -26  -4   43.11    8.16
  10  26   4   62.58   11.09
 -10 -26   4   65.57    8.59
  10 -26   6   26.18   10.69
  10  26  -6   32.08    9.30
 -10 -26  -6   41.08    8.78
  10  26   6   23.58   11.04
  10 -26  -6    1.46    7.56
 -11  26   1    3.16    7.16
  11  26  -1    9.13    8.63
  11 -26   1   12.07    8.70
 -11 -26  -1   16.98    8.11
  11 -26   1    9.28    7.28
 -11  26  -1   14.39    7.62
  11 -26  -1   12.96    7.50
  11 -26  -1   10.13    7.18
 -11 -26   1   13.17    7.84
  11  26   1    7.42    7.77
 -11  26   3   14.26    6.91
  11 -26   3   11.12   10.03
  11 -26   3   30.60    9.37
 -11 -26  -3   20.65    8.49
  11 -26   3   15.84    7.43
  11  26  -3   15.80    9.35
  11 -26  -3    8.71    7.22
 -11 -26   3   20.17    7.88
 -11  26  -3   19.42    7.87
  11  26   3   28.47    9.56
  11 -26  -3    7.71    5.94
 -11 -26  -5   18.39    8.67
  11 -26   5    1.48   10.33
 -11  26   5   14.61    6.70
  11  26  -5    9.70    9.30
  11 -26   5   18.76    9.76
 -11 -26   5    4.87    7.81
 -11  26  -5   -2.19    7.36
  11 -26  -5   12.21    7.44
  11  26   5   18.33   10.12
  11 -26   7   -3.95   11.28
  11 -26   7    7.63   11.41
  11  26   7   23.45   11.25
 -12  26   0   36.66    7.87
  12 -26   0   45.35    8.71
 -12 -26   0   43.89    8.51
  12 -26   0   47.64    7.83
  12  26   0   50.12    8.77
  12  26  -2   31.12    9.67
 -12 -26  -2   39.95    8.70
 -12  26   2   28.81    7.26
  12 -26   2   46.59    9.48
  12 -26   2   35.93    8.05
 -12 -26   2   33.71    8.11
  12 -26  -2   34.51    7.21
  12 -26  -2   24.77    7.37
 -12  26  -2   28.03    8.03
 -12 -26  -4   61.12    9.47
  12 -26   4   55.82    7.17
  12 -26   4   18.64   10.73
 -12  26   4   46.34    7.61
  12 -26   4   54.65   10.12
  12  26  -4   59.85    9.98
 -12 -26   4   46.57    8.87
  12 -26  -4   35.07    7.84
 -12  26  -4   28.35    8.11
  12  26   4   51.59   10.53
  12  26   4   58.70    7.99
  12 -26   6   21.24   10.56
  12  26  -6   10.93    9.85
  12 -26   6  -12.65   10.40
 -12 -26  -6   33.15    9.03
  12  26   6   26.90   10.66
 -12  26  -6   -0.50    7.37
  12 -26  -6    5.59    7.87
 -13  26   1    7.78    7.14
  13  26  -1   13.01    8.60
 -13 -26  -1   10.46    8.15
  13 -26   1    0.75    7.72
  13 -26   1   15.60    8.85
 -13  26  -1   12.74    7.58
 -13 -26   1    8.80    8.00
  13 -26  -1    3.41    7.57
  13 -26  -1    6.99    7.10
 -13  26   3    5.98    6.99
 -13 -26  -3   27.06    8.89
  13  26  -3    5.18    9.51
  13 -26   3   22.76    9.47
  13 -26   3   14.36    7.53
 -13  26  -3   16.57    7.55
 -13 -26   3    5.83    8.22
  13 -26  -3    9.95    6.34
  13  26   3   27.96    8.50
  13 -26  -3   10.23    7.41
 -13  26   5   11.62    7.02
 -13 -26  -5   28.56    9.05
  13 -26   5    8.66    9.92
  13  26  -5    7.05    9.67
  13 -26   5   -0.06   10.34
  13 -26  -5   -3.46    7.65
  13  26   5   32.31   10.60
 -13  26  -5   -3.80    7.16
 -13 -26   5    0.68    8.22
  14 -26   0   41.67    8.85
  14 -26   0   32.66    8.05
 -14  26   0   40.83    8.10
 -14 -26   0   53.11    8.95
 -14 -26  -2   26.13    8.73
  14 -26   2   17.46    9.27
  14  26  -2   23.70    9.35
  14 -26   2   18.84    7.97
 -14  26   2   20.08    7.18
  14 -26  -2   27.43    7.36
 -14 -26   2   25.26    8.33
  14 -26  -2   23.31    7.48
 -14  26  -2   10.93    7.52
  14 -26   4   30.47    9.79
  14 -26   4   34.49    6.90
 -14  26   4   25.83    7.38
  14  26  -4   17.72    9.64
 -14 -26  -4   40.34    9.30
  14  26   4   38.23    7.79
 -14 -26   4   33.09    8.90
  14 -26  -4   13.49    7.73
 -14  26  -4   16.21    7.50
 -14 -26  -6   25.74    9.59
  14 -26   6  -11.08   10.87
  14  26  -6  -16.82    9.92
  14 -26   6   11.59   10.86
  14  26   6   31.27   11.28
  14 -26  -6   -5.03    8.05
 -14  26  -6  -10.66    7.32
 -15  26   1   -4.21    7.16
  15 -26   1    5.49    7.93
  15 -26   1   10.63    8.67
 -15 -26  -1   13.39    8.74
 -15 -26   1    5.70    8.25
  15 -26  -1    8.84    7.74
 -15  26  -1    0.12    7.32
  15 -26  -1   10.67    7.38
 -15  26   3    3.01    7.00
 -15 -26  -3    7.56    8.86
  15 -26   3    8.80    7.77
  15 -26   3    9.65    9.33
 -15  26  -3   -4.54    7.51
  15 -26  -3   12.93    6.55
  15 -26  -3    1.84    7.41
  15  26   3   22.67    8.41
 -15 -26   3   11.95    8.69
  15 -26   5   17.17   10.14
 -15 -26  -5   22.00    9.26
 -15  26   5    9.03    7.10
 -15 -26   5   -3.45    8.64
  15 -26  -5    5.78    7.97
 -15  26  -5    0.43    7.40
 -16 -26   0   19.92    8.59
  16 -26   0   17.29    7.79
 -16  26   0    8.38    7.28
  16 -26   0   17.20    8.46
 -16 -26  -2   24.26    9.16
 -16  26   2   12.68    7.31
  16 -26   2   16.48    8.10
  16 -26   2   19.11    9.23
  16 -26  -2   19.32    7.39
 -16 -26   2   27.00    8.76
  16  26   2   32.40    8.90
 -16  26  -2   12.30    7.66
  16 -26  -2   14.61    7.56
 -16  26   4   14.62    7.45
  16 -26   4   26.59    7.13
  16 -26   4   18.07    9.81
 -16 -26  -4   19.83    9.43
 -16  26  -4    5.71    7.53
  16 -26  -4   16.76    7.77
 -16 -26   4   11.89    9.18
  16  26   4   25.99    7.99
  17 -26   1   -1.36    7.95
 -17 -26  -1   14.33    8.78
  17 -26   1    4.51    8.78
 -17  26   1   -6.25    7.15
 -17  26  -1   -0.37    7.48
  17  26   1   22.44    9.07
 -17 -26   1   -2.55    8.63
  17 -26  -1    2.96    7.75
  17 -26  -1   -2.31    7.54
  17 -26   3    8.31    7.99
  17 -26   3    7.38    9.36
 -17  26   3   -1.97    7.20
 -17 -26  -3   18.01    9.56
  17  26   3   10.82    8.57
 -17 -26   3    8.92    9.08
  17 -26  -3   -7.95    7.53
  17 -26  -3    5.10    6.85
 -17  26  -3   -4.24    7.57
 -17  26   5   -1.13    7.50
  17 -26   5   12.21   10.68
 -17 -26   5   -9.90    9.36
  17 -26  -5    1.97    7.97
 -17  26  -5   -9.46    7.52
  18 -26   0    1.30    7.75
 -18 -26   0    5.30    8.79
 -18  26   0    2.16    7.34
  18 -26   0   14.55    8.34
  18 -26   2   18.10    8.74
 -18  26   2    4.40    7.38
 -18 -26  -2   13.19    9.21
  18 -26   2    9.84    9.28
 -18 -26   2    8.00    9.11
 -18  26  -2   -0.04    7.66
  18  26   2   22.47    8.92
  18 -26  -2    8.40    7.58
  18 -26  -2   12.79    7.48
 -18 -26  -4   20.39   10.14
  18 -26   4   12.40   10.29
 -18  26   4   14.66    7.83
  18 -26  -4   13.95    8.03
 -18  26  -4   -4.67    7.49
 -18 -26   4    2.13    9.78
 -19 -26  -1   15.03    9.30
  19 -26   1    4.93    8.53
 -19  26   1    6.02    7.34
  19 -26   1   10.12    9.05
  19 -26  -1   -1.37    7.87
  19  26   1   25.32    9.38
 -19 -26   1    2.70    9.13
  19 -26  -1   12.74    7.93
 -19  26  -1    2.66    7.71
  19 -26   3   14.69    9.87
 -19 -26  -3   13.18    9.74
  19 -26   3    9.50    8.37
 -19  26   3    2.83    7.73
  19 -26  -3   16.62    7.31
 -19  26  -3   -3.65    7.97
  19  26   3   21.50    9.29
  19 -26  -3   -3.28    7.88
 -19 -26   3    3.40    9.75
  20  26   0    8.18    9.52
 -20 -26   0    5.24    9.48
  20 -26   0    8.63    8.30
 -20  26   0    3.49    7.68
  20 -26   0    7.88    8.56
  20 -26   2   -1.17    9.03
  20  26  -2    4.88   10.31
 -20 -26  -2    4.16    9.82
  20 -26   2    4.69    9.65
 -20  26   2   -8.04    7.69
 -20  26  -2   -9.48    7.93
  20 -26  -2    8.69    7.67
  20 -26  -2    4.10    7.94
 -20 -26   2    5.90    9.80
  20  26   2   13.05    9.66
  21 -26   1    2.64    9.22
  21  26  -1    6.10   10.01
 -21  26   1   -7.39    7.63
  21 -26   1   19.47    9.23
 -21 -26  -1   15.60   10.03
 -21 -26   1   12.89    9.92
 -21  26  -1   -4.22    8.00
  21 -26  -1    7.37    8.40
  21 -26  -1   11.51    8.53
  21  26   1   13.88    9.73
   0  27  -1    6.35    8.70
   0 -27   1    5.72    9.81
   0 -27  -1    3.66    7.94
   0  27   1    7.84    7.56
   0  27   1   18.12    9.34
   0 -27   1   -4.91    7.67
   0 -27  -3    8.80    8.06
   0 -27   3   18.57   11.11
   0 -27   3    9.17    7.48
   0  27  -3   16.53    8.71
   0  27   3   20.61    7.10
   0  27   3   21.99   10.50
   0  27   5   25.21    5.96
   0 -27   5   17.81   11.02
   0 -27   5   17.93    5.62
   0  27   5   26.59   11.42
   0  27  -5   20.53    8.00
   0 -27  -5   18.17    8.25
   0  27   7   -3.15   12.70
   0 -27   7    7.23   10.58
   0 -27  -7    5.21    8.31
   1  27   0  112.37   14.46
   1 -27   0  129.63   14.46
  -1  27   0  131.82   14.24
  -1 -27   0  132.01   14.33
  -1 -27  -2  122.04   13.88
  -1  27   2  114.28   13.53
   1 -27   2  120.18   13.98
   1 -27   2  124.09   16.44
  -1  27   2   95.69    9.59
   1  27  -2  127.67   15.16
   1  27   2  116.09   14.31
  -1  27  -2  121.32   14.57
  -1 -27   2  132.31   15.90
   1 -27  -2  116.13   13.92
   1  27   2   95.30    9.63
  -1 -27   2  107.92   13.37
  -1  27   4  102.34   11.09
  -1  27   4  108.51   14.62
   1  27  -4  122.16   13.12
   1 -27   4  118.86   11.07
  -1 -27  -4  118.90   12.48
   1 -27   4  102.18   15.73
  -1  27  -4  112.19   13.14
   1  27   4  103.68   10.29
   1 -27  -4  111.60   12.29
   1  27   4  120.51   14.36
  -1 -27   4   83.66   13.20
  -1 -27   4  106.13   11.13
   1  27  -6   42.49    7.90
   1 -27   6   20.04   11.24
  -1 -27  -6   27.71    8.57
  -1  27   6   31.46   12.36
  -1 -27   6   25.62   11.21
   1  27   6   25.64   12.43
   1 -27  -6   31.29    8.42
  -1  27  -6   29.46    7.76
   1 -27   8   10.06   11.88
  -1  27   8    0.49   13.15
   1  27   8    1.87   13.27
  -1 -27   8    3.21   11.23
  -2 -27  -1    4.67    7.75
   2  27  -1   -2.06    8.52
  -2  27   1    7.23    7.62
   2 -27   1   20.79   10.33
   2 -27   1    6.68    7.62
  -2  27  -1    8.61    8.79
   2  27   1   18.16    8.64
  -2 -27   1    3.88    7.79
   2 -27  -1    8.36    7.76
   2  27   1    6.35    7.94
  -2 -27  -3   21.66    8.13
   2 -27   3   13.75    7.53
  -2  27   3   39.49   10.58
  -2  27   3   25.00    7.10
   2 -27   3   27.47   11.30
   2  27  -3   33.51    8.74
  -2  27  -3   17.44    9.03
   2  27   3   30.63    7.15
   2 -27  -3   30.12    8.09
   2  27   3   34.38   10.42
  -2 -27   3   30.88    7.73
  -2 -27   3   42.06   11.23
  -2 -27  -5    5.29    8.06
  -2  27   5    1.99   10.93
   2 -27   5   10.73    5.48
  -2  27   5   16.45    5.74
   2 -27   5    1.16   10.77
   2  27  -5   12.69    7.92
   2  27   5   -5.34   11.01
   2  27   5  -11.21    5.47
   2 -27  -5   -6.38    7.76
  -2  27  -5   11.74    8.30
  -2 -27   5    4.18   10.65
  -2 -27   5    0.25    5.90
  -2  27   7   -0.41   11.95
   2 -27   7    9.40   10.77
   2  27  -7   23.83    7.48
  -2 -27   7    8.68   10.82
   2  27   7   11.92   12.33
   2 -27  -7   -6.08    7.90
  -3  27   0  188.32   16.49
  -3 -27   0  186.74   16.11
   3 -27   0  185.08   15.66
   3  27   0  175.90   16.59
  -3 -27  -2  142.04   14.13
  -3  27   2  147.60   15.62
  -3  27   2  132.01   13.59
   3 -27   2  132.49   14.40
   3  27  -2  142.59   14.89
   3 -27   2  136.18   17.22
  -3 -27   2  128.91   14.26
   3  27   2  125.60   14.52
  -3  27  -2  150.07   15.32
  -3 -27   2  132.46   15.96
   3  27   2  117.92   13.81
   3 -27  -2  135.01   14.11
   3 -27   4   94.03   10.50
  -3 -27  -4   73.91    9.38
  -3  27   4   72.68    7.92
   3  27  -4   75.54    9.58
   3 -27   4   69.67   12.58
  -3  27   4   81.80   12.30
  -3 -27   4   91.36   11.08
   3  27   4   97.34   13.20
  -3 -27   4   73.29   12.31
   3 -27  -4   68.84    9.06
  -3  27  -4   63.63    9.65
   3  27   4   82.00    9.49
  -3  27   6   23.95   11.66
   3 -27   6   11.13   11.04
  -3 -27  -6   25.75    8.26
   3  27  -6   30.41    8.01
   3  27   6   14.96   11.32
  -3 -27   6   25.84   11.36
  -3  27  -6   21.45    8.26
   3 -27  -6   25.08    8.22
   3 -27   8   -0.23   11.76
  -3 -27   8   12.56   11.97
   3  27   8    1.88   12.19
  -4 -27  -1    2.39    8.08
   4  27  -1    6.75    8.59
   4 -27   1   24.45   10.65
   4 -27   1   16.07    7.93
  -4  27   1    3.09    7.71
  -4 -27   1   11.90    7.89
   4  27   1   27.53    9.44
   4 -27  -1    8.66    7.71
   4  27   1    8.00    7.80
  -4  27  -1   14.08    8.75
   4  27  -3   23.08    8.76
   4 -27   3   19.61    7.52
  -4 -27  -3   16.09    8.08
  -4  27   3   31.31   10.23
  -4  27   3   25.15    7.01
   4 -27   3   13.69   11.31
   4  27   3   12.11    7.17
  -4  27  -3   16.53    8.68
   4  27   3   28.17    9.69
  -4 -27   3   29.15    7.52
  -4 -27   3   32.56   11.12
   4 -27  -3   15.59    7.94
   4 -27   5   13.01   11.32
   4  27  -5   17.30    7.99
  -4 -27  -5   16.11    8.46
  -4  27   5   26.19    6.28
  -4  27   5   11.17   10.70
  -4 -27   5    8.82    6.34
  -4 -27   5   18.71   11.03
  -4  27  -5   15.90    8.19
   4  27   5   13.91   10.94
   4 -27  -5    9.11    7.86
   4 -27   7    5.68   10.95
  -4  27   7   -2.85   11.59
   4  27  -7   28.87    7.59
   4  27   7    6.12   11.88
  -4 -27   7   12.40   10.72
   4 -27  -7   -3.18    7.92
  -5  27   0  284.99   19.39
   5  27   0  286.80   19.35
   5 -27   0  296.48   19.12
  -5 -27   0  272.81   18.87
   5  27  -2   91.66   10.40
  -5  27   2   79.44    8.88
   5 -27   2  101.11   10.83
  -5 -27  -2   90.96    9.73
   5 -27   2   94.75    9.24
   5 -27   2  104.02   16.05
  -5 -27   2   81.61    9.27
   5  27   2   82.26    9.24
  -5  27  -2   91.34   10.31
   5  27   2  100.75   13.07
   5 -27  -2   79.39    9.21
  -5  27   4   90.34   10.07
   5 -27   4   52.02   12.11
   5  27  -4   82.16    9.58
   5 -27   4   89.90   10.21
  -5 -27  -4   75.13    9.30
  -5  27   4   89.08   13.36
  -5 -27   4   88.14   12.47
   5  27   4   61.88   11.17
  -5 -27   4   89.85   10.78
  -5  27  -4   60.47    9.32
   5  27   4   63.79    7.65
   5 -27  -4   66.83    8.73
  -5 -27  -6   19.86    8.37
   5  27  -6   32.67    7.92
  -5  27   6   11.27   11.48
   5 -27   6    7.02   11.12
  -5 -27   6   19.65   10.97
   5 -27  -6    7.84    7.65
  -5  27  -6   11.68    7.90
   5  27   6   12.17   10.84
   6 -27   1   26.49    7.90
   6  27  -1   14.33    8.70
  -6 -27  -1   18.18    8.27
   6 -27   1   20.76    9.32
  -6  27   1   21.75    7.79
   6 -27  -1   27.79    7.68
  -6 -27   1   22.29    8.02
  -6  27  -1   19.62    8.48
   6  27   1   11.35    8.10
  -6 -27  -3   25.17    8.27
   6  27  -3   18.46    8.48
   6 -27   3    9.29   10.59
  -6  27   3   13.03    6.79
   6 -27   3   21.25    7.48
   6 -27   3   21.52    9.47
  -6 -27   3   20.23    7.52
   6  27   3   13.72    7.13
  -6  27  -3   17.83    8.32
  -6 -27   3   24.30   10.25
   6 -27  -3   13.40    7.40
  -6  27   5   18.39    6.28
   6 -27   5    5.90   10.87
  -6 -27  -5   11.63    8.52
  -6  27   5   -0.86   10.58
   6  27  -5   21.31    7.48
   6 -27  -5    8.51    7.76
   6  27   5   21.76   10.44
  -6 -27   5   11.27    6.89
  -6  27  -5   -0.80    7.81
  -6 -27   5    8.53   10.98
  -6  27   7   -4.93   11.34
   6  27  -7   35.36    8.53
   6 -27   7    2.40   11.43
   6 -27  -7    0.98    7.91
   6  27   7    4.67   10.95
  -6 -27   7    2.98   11.42
  -7 -27   0  217.18   16.96
   7  27   0  196.91   17.19
  -7  27   0  220.12   16.65
   7 -27   0  213.22   14.98
   7 -27   0  208.08   16.38
   7 -27   2  103.22   12.89
   7  27  -2  117.94   14.53
   7 -27   2   97.14    9.70
   7 -27   2  102.10   15.78
  -7  27   2  102.59   12.84
  -7 -27  -2   91.97    9.97
   7  27   2  114.74   13.39
   7  27   2   92.17    9.62
  -7 -27   2  112.92   13.05
   7 -27  -2  111.18   12.99
  -7  27  -2   90.10   10.19
   7  27  -4   77.80    9.69
  -7  27   4   77.59   11.88
  -7  27   4   69.98    7.79
   7 -27   4   82.22   10.02
   7 -27   4   61.45   10.71
  -7 -27  -4   70.17    9.55
   7 -27  -4   61.49    8.66
   7  27   4   58.96   11.27
  -7 -27   4   73.82   11.59
  -7 -27   4   68.15    8.35
  -7  27   6   15.41   10.93
  -7 -27  -6   34.78    8.81
   7  27  -6   46.84    8.80
   7 -27   6   -6.78   10.59
  -7  27  -6    4.92    7.72
   7 -27  -6   13.16    7.72
   7  27   6   23.81   10.98
  -7 -27   6   29.57   10.42
   8 -27   1   11.83    7.85
  -8  27   1   18.25    7.45
  -8 -27  -1   13.26    8.02
   8 -27   1   24.74    9.19
   8  27  -1   14.56    8.78
   8 -27  -1   20.56    7.69
  -8  27  -1   22.98    8.10
   8  27   1    7.96    8.19
   8 -27  -1   13.96    7.55
  -8 -27   1   15.28    7.94
   8 -27   3   22.14   11.12
   8 -27   3   28.54    9.71
   8 -27   3   31.28    7.52
  -8 -27  -3   23.27    8.39
   8  27  -3   30.04    8.94
  -8  27   3   22.69    7.00
   8  27   3   24.47    7.28
  -8  27  -3   23.19    8.15
  -8 -27   3   32.79    7.86
   8 -27  -3   25.19    7.60
   8  27   3   35.83   10.08
  -8 -27  -5   13.36    8.58
  -8  27   5   13.86    6.34
   8 -27   5    8.12   10.14
   8 -27   5   -3.50   10.90
   8  27  -5   12.13    8.71
   8  27   5    9.92   10.36
  -8 -27   5    8.98    7.25
  -8 -27   5    9.34   11.32
  -8  27  -5    0.40    7.60
   8 -27  -5   -4.05    7.34
  -8  27   7  -13.49   11.15
   8 -27   7    4.77   11.34
   8  27  -7   21.68    8.91
   8  27   7   16.34   11.39
   8 -27  -7   -4.09    7.71
  -8 -27   7    1.68   11.80
   9  27   0  124.63   14.94
   9 -27   0  127.78   13.60
  -9 -27   0  117.96   13.95
   9 -27   0  125.51   11.78
  -9  27   0  119.16   13.77
   9 -27   2  121.31   13.07
  -9 -27  -2  131.82   14.01
   9  27  -2  171.30   16.11
  -9  27   2  131.40   13.01
   9 -27   2  132.86   13.39
  -9  27  -2  121.42   13.71
  -9 -27   2  148.44   14.03
   9 -27  -2  129.18   10.59
   9  27   2  115.69   12.74
   9 -27  -2  147.94   13.47
   9 -27   4   48.47   10.36
   9 -27   4   56.27    7.20
  -9 -27  -4   57.23    9.25
  -9  27   4   51.93    7.56
   9 -27   4   22.22   11.17
   9  27  -4   66.58    9.74
  -9  27  -4   21.29    8.22
   9  27   4   53.76   11.03
  -9 -27   4   54.72    8.30
   9 -27  -4   41.28    7.97
   9 -27   6   20.01   10.65
  -9 -27  -6   37.13    8.91
   9  27  -6   41.08    9.20
   9 -27   6   -4.83   11.10
  -9  27  -6    1.21    7.47
   9  27   6   25.77   11.14
   9 -27  -6    0.99    7.52
  10 -27   1   25.45    7.75
  10  27  -1   23.46    8.91
 -10  27   1   22.88    7.48
  10 -27   1   19.83    8.91
 -10 -27  -1   37.84    8.29
  10  27   1   29.56    8.41
 -10  27  -1   27.77    7.96
  10 -27  -1   23.13    7.39
  10 -27  -1   30.35    7.56
 -10 -27   1   25.11    7.92
 -10  27   3    5.76    6.87
  10  27  -3    7.56    9.29
  10 -27   3   10.33   10.50
  10 -27   3   15.01    7.67
 -10 -27  -3   14.25    8.34
  10 -27   3    7.77    9.06
  10 -27  -3    8.20    5.82
 -10  27  -3    0.58    7.94
 -10 -27   3    9.31    7.67
  10 -27  -3    4.05    7.23
  10  27   3   22.36    9.65
 -10 -27  -5   21.12    8.73
  10 -27   5    7.35   10.05
 -10  27   5   15.08    6.62
  10 -27   5   -1.23   10.47
  10  27  -5    5.61    9.27
 -10 -27   5    6.22    7.66
 -10  27  -5   -2.53    7.49
  10  27   5   25.15   10.47
  10 -27  -5    4.46    7.45
  10 -27   7   12.80   11.37
  10 -27   7   -3.51   11.97
  10  27   7   17.65   11.63
  10 -27  -7  -12.61    7.81
  11 -27   0   50.55    8.68
  11 -27   0   47.67    8.10
 -11  27   0   42.23    8.02
 -11 -27   0   51.11    8.39
  11  27   0   46.17    9.16
  11  27  -2   57.09    9.90
 -11 -27  -2   42.56    8.77
  11 -27   2   49.77    9.54
  11 -27   2   49.73    8.41
 -11  27   2   38.15    7.58
 -11 -27   2   44.80    8.43
  11 -27  -2   47.85    7.27
 -11  27  -2   33.98    8.31
  11 -27  -2   35.11    7.65
  11  27  -4   68.40   10.30
  11 -27   4   50.01    7.35
  11 -27   4   51.89   10.06
 -11  27   4   53.86    7.77
 -11 -27  -4   58.20    9.48
  11  27   4   56.01    8.32
  11  27   4   56.91   10.86
  11 -27  -4   36.16    8.06
 -11 -27   4   62.51    8.82
 -11 -27  -6   33.47    8.92
  11  27  -6   15.90    9.60
  11 -27   6   15.49   10.64
  11 -27   6  -14.00   10.64
  11 -27  -6    2.48    7.60
  11  27   6   30.54   11.01
 -11  27  -6   -1.96    7.49
  12 -27   1    1.80    8.62
  12 -27   1   -2.48    7.44
  12  27  -1    5.91    8.91
 -12 -27  -1    5.44    8.07
 -12  27   1    8.17    7.18
  12 -27  -1    8.47    7.49
  12 -27  -1    1.37    7.35
  12  27   1    5.94    8.22
 -12  27  -1   -0.39    7.56
 -12 -27   1    3.48    7.98
 -12 -27  -3   15.99    8.76
  12 -27   3   22.44    7.52
 -12  27   3    8.23    7.03
  12 -27   3   16.51    9.30
  12  27  -3    5.42    9.35
  12 -27  -3    6.88    7.30
  12 -27  -3   10.08    6.05
 -12 -27   3    9.75    8.13
 -12  27  -3    6.38    7.82
  12 -27   5    2.77   10.70
  12  27  -5    6.93    9.57
  12 -27   5    9.79    9.70
 -12 -27  -5   23.94    9.08
 -12  27   5   14.28    7.09
 -12 -27   5    8.28    8.16
  12  27   5   23.26   10.27
  12 -27  -5    7.08    7.49
 -12  27  -5    2.98    7.52
 -13  27   0   54.49    8.35
  13  27   0   54.99    9.42
  13 -27   0   65.72    9.18
 -13 -27   0   57.54    9.00
  13 -27   0   51.15    8.22
 -13  27   2   24.30    7.29
  13 -27   2   24.78    9.36
  13 -27   2   26.55    8.23
  13  27  -2   38.02    9.77
 -13 -27  -2   36.96    8.83
  13 -27  -2   37.16    7.40
 -13 -27   2   40.13    8.48
  13 -27  -2   26.63    7.45
 -13  27  -2   16.94    8.08
  13  27  -4   26.77   10.08
  13 -27   4   25.48    9.89
 -13  27   4   29.79    7.43
  13 -27   4   38.60    6.99
 -13 -27  -4   45.50    9.29
  13 -27  -4   22.75    7.70
 -13 -27   4   25.17    8.79
  13  27   4   32.45    7.68
 -13  27  -4   11.84    7.76
  13  27  -6   -3.36   10.03
  13 -27   6   13.82   10.83
 -13 -27  -6   35.83    9.69
  13  27   6   22.71   11.18
  13 -27  -6   -5.33    7.79
 -13  27  -6   -4.49    7.59
  14 -27   1   10.32    8.78
 -14 -27  -1    8.36    8.38
  14 -27   1    8.87    7.95
  14  27  -1    4.70    9.13
 -14  27   1    4.41    7.25
 -14  27  -1    1.24    7.66
  14 -27  -1    8.83    7.76
 -14 -27   1    9.58    8.10
  14 -27  -1    9.82    7.28
  14 -27   3    6.84    9.32
  14 -27   3   10.15    7.73
  14  27  -3    9.37    9.53
 -14 -27  -3    9.83    8.83
 -14  27   3   11.05    7.21
  14  27   3   23.00    8.62
  14 -27  -3   13.26    6.43
  14 -27  -3   -2.53    7.20
 -14  27  -3    4.04    7.47
 -14 -27   3    1.86    8.29
 -14  27   5   14.26    7.37
  14 -27   5   12.24   10.26
  14  27  -5   -1.13    9.91
 -14 -27  -5   25.14    9.42
  14 -27  -5    6.76    7.89
 -14  27  -5   -1.94    7.40
 -14 -27   5    4.24    8.49
 -15 -27   0   29.11    8.90
  15 -27   0   28.31    8.04
 -15  27   0   25.80    7.85
  15 -27   0   38.64    8.82
 -15  27   2   12.49    7.27
  15 -27   2   22.00    9.32
 -15 -27  -2   24.24    9.05
  15 -27   2   24.90    8.28
 -15  27  -2   10.73    7.53
 -15 -27   2   19.07    8.61
  15 -27  -2   27.97    7.44
  15 -27  -2   16.73    7.57
  15 -27   4   27.83    9.76
  15 -27   4   26.80    7.12
 -15  27   4   18.72    7.41
 -15 -27  -4   25.99    9.28
  15  27  -4    8.72   10.21
  15  27   4   35.22    8.00
 -15  27  -4    3.62    7.37
  15 -27  -4   12.24    7.80
 -15 -27   4   26.92    9.15
 -16 -27  -1   10.44    8.89
  16 -27   1    2.95    8.11
  16 -27   1   11.18    8.86
 -16  27   1    6.06    7.26
  16 -27  -1   10.81    7.95
 -16  27  -1    9.29    7.47
  16 -27  -1    5.86    7.44
 -16 -27   1    9.24    8.50
 -16  27   3   -0.53    7.13
  16 -27   3   14.93    8.10
 -16 -27  -3   23.55    9.29
  16 -27   3    9.34    9.49
  16  27   3   19.80    8.49
  16 -27  -3    7.45    6.71
 -16  27  -3   -0.79    7.70
 -16 -27   3   14.77    9.11
  16 -27  -3   -0.91    7.47
  16 -27   5   17.45   10.48
 -16  27   5    6.03    7.48
 -16 -27  -5   33.53    9.89
 -16  27  -5    5.73    7.63
 -16 -27   5   -1.47    9.27
  16 -27  -5    2.12    8.19
 -17 -27   0   12.43    8.85
  17 -27   0    7.11    8.01
  17 -27   0   16.35    8.37
 -17  27   0    8.47    7.31
 -17  27   2    4.28    7.43
  17 -27   2   14.16    8.25
 -17 -27  -2   19.91    9.44
  17 -27   2   10.56    9.16
 -17 -27   2   12.30    8.89
  17 -27  -2   12.29    7.46
 -17  27  -2    1.30    7.78
  17  27   2   22.56    9.14
  17 -27  -2   11.48    7.61
  17 -27   4   11.67   10.14
 -17  27   4    6.45    7.65
 -17 -27  -4   19.44   10.02
  17 -27  -4   11.36    8.00
 -17  27  -4   -5.51    7.63
 -17 -27   4    2.40    9.70
  18 -27   1    7.42    8.75
 -18  27   1   -3.40    7.47
 -18 -27  -1    7.91    9.00
  18 -27   1    2.27    8.25
  18  27   1    9.73    9.23
  18 -27  -1   -6.63    7.71
 -18  27  -1   -0.49    7.82
 -18 -27   1   11.93    9.00
  18 -27  -1    2.71    7.77
  18 -27   3   12.47    8.39
  18 -27   3   15.79    9.83
 -18 -27  -3    7.68    9.77
 -18  27   3    5.69    7.63
 -18  27  -3   -1.89    7.91
  18 -27  -3   11.05    7.16
 -18 -27   3   -5.04    9.55
  18 -27  -3   -5.13    7.76
  18  27   3   11.90    9.17
  19 -27   0    0.86    8.09
  19  27   0   22.65    9.77
 -19  27   0    2.49    7.44
 -19 -27   0   13.57    9.29
  19 -27   0    9.05    8.56
  19 -27   2    8.50    9.15
  19 -27   2    3.95    9.50
 -19 -27  -2    0.38    9.46
 -19  27   2    1.66    7.54
 -19  27  -2   -1.69    7.90
 -19 -27   2    2.84    9.51
  19 -27  -2    9.53    7.66
  19 -27  -2   -4.13    7.76
  19  27   2   20.53    9.49
  20  27  -1   12.89   10.17
 -20 -27  -1   18.22    9.97
 -20  27   1   -6.10    7.52
  20 -27   1    9.62    9.13
  20 -27   1    2.98    8.82
 -20 -27   1    7.09    9.89
  20 -27  -1   -0.57    8.08
 -20  27  -1   -6.22    7.97
  20  27   1   14.54    9.74
  20 -27  -1   12.06    8.34
  21 -27   0    7.88    8.55
 -21  27   0   -2.21    8.01
  21 -27   0   -2.94    8.50
  21  27   0    8.74   10.04
 -21 -27   0    2.31    9.85
   0  28   0  109.54   10.24
   0 -28   0  100.14    9.79
   0 -28   2  136.48   14.19
   0  28   2  132.62   14.75
   0 -28  -2  132.77   14.20
   0  28  -2  149.92   15.42
   0 -28   2  146.61   16.77
   0  28   2  117.02   13.48
   0  28   4   88.59   13.71
   0 -28  -4   72.65    9.21
   0 -28   4   66.02   12.17
   0  28  -4   63.09    9.44
   0  28   4   62.96    7.61
   0 -28   4   84.20   10.37
   0  28   6   33.55   12.70
   0  28  -6   27.64    8.06
   0 -28   6   11.52   11.03
   0 -28  -6   30.46    8.67
  -1  28   1    7.95    7.74
   1 -28   1   10.96    8.07
   1  28  -1   13.71    8.63
  -1 -28  -1   14.84    7.95
  -1 -28   1    8.85    7.98
   1 -28  -1    8.96    7.66
  -1  28  -1   12.11    8.75
   1  28   1    7.79    7.83
  -1  28   3   12.48    7.03
   1  28  -3    9.40    8.64
  -1 -28  -3    7.83    7.94
   1 -28   3   16.28   11.12
   1 -28   3   10.81    7.48
  -1  28   3   10.76   10.21
  -1 -28   3    6.08    7.54
   1  28   3    9.60    6.96
   1  28   3   18.15    9.54
  -1  28  -3   11.07    8.78
   1 -28  -3   11.29    7.97
  -1 -28   3   19.12   10.90
   1  28  -5    5.28    7.90
   1 -28   5    3.54   11.04
  -1  28   5   15.18    5.95
  -1 -28  -5    0.00    8.23
   1 -28   5    8.56    5.74
  -1  28   5   -0.23   11.23
   1  28   5    3.75    5.65
   1  28   5    7.87   11.68
   1 -28  -5    1.77    8.11
  -1 -28   5    1.76   10.75
  -1  28  -5    1.12    8.17
  -1 -28   5    8.92    5.92
  -1 -28  -7    5.99    8.49
   1 -28   7    9.31   11.48
   1  28  -7   20.65    7.65
  -1  28   7    2.31   12.63
   1 -28  -7    7.01    8.36
  -1 -28   7   11.19   11.21
   1  28   7    4.37   12.66
  -2 -28   0  181.74   15.40
   2  28   0  164.08   16.20
  -2  28   0  170.12   15.65
   2 -28   0  171.54   15.26
  -2  28   2  110.63   12.51
  -2  28   2  136.14   14.96
   2  28  -2  133.42   14.85
   2 -28   2  109.65   16.34
  -2 -28  -2  118.40   14.15
   2 -28   2  113.45   14.28
   2  28   2  120.55   14.26
  -2  28  -2  106.02   11.29
   2  28   2  103.83   12.97
  -2 -28   2  116.92   13.65
  -2 -28   2  124.92   15.76
   2 -28  -2  109.04   13.75
  -2  28   4   78.40   12.27
   2 -28   4   63.78   12.38
  -2  28   4   72.16    7.80
   2 -28   4   66.02    7.71
  -2 -28  -4   61.43    8.91
   2  28  -4   62.09    9.31
  -2 -28   4   70.66   12.10
  -2  28  -4   64.60    9.69
   2  28   4   76.90    9.44
   2 -28  -4   62.40    8.89
   2  28   4   56.34   11.54
  -2 -28   4   68.03    7.98
  -2 -28  -6   31.73    8.62
   2 -28   6    5.76   11.26
   2  28  -6   38.01    8.13
  -2  28   6   25.36   12.17
   2  28   6   29.95   12.24
  -2  28  -6   24.50    8.33
   2 -28  -6   19.48    8.21
  -2 -28   6   37.20   11.49
  -3  28   1   12.44    7.79
   3 -28   1   11.96    8.03
   3  28  -1   13.27    8.77
  -3 -28  -1   21.64    8.25
   3  28   1   12.80    8.03
  -3 -28   1   14.25    8.03
   3 -28  -1   16.08    7.95
  -3  28  -1   11.18    8.71
   3 -28   3   15.75   11.23
  -3  28   3   22.64    6.84
   3  28  -3   25.45    8.77
   3 -28   3   13.77    7.52
  -3 -28  -3   10.98    8.25
  -3  28   3   24.24   10.42
  -3 -28   3   29.25   10.77
  -3 -28   3   17.61    7.58
   3  28   3   10.83    7.06
   3  28   3   19.62    9.82
   3 -28  -3   15.80    7.77
  -3  28  -3   10.06    8.67
   3 -28   5   11.00   11.11
  -3  28   5   -7.25   10.73
  -3  28   5   17.03    5.92
   3  28  -5   13.01    8.20
  -3 -28  -5   -3.57    8.29
   3  28   5    5.70   10.79
  -3 -28   5    3.24   10.80
  -3  28  -5    2.22    8.14
   3 -28  -5    2.07    8.07
  -3 -28   5    2.74    6.26
  -3  28   7   -4.20   11.94
   3  28  -7   23.06    7.61
   3 -28   7    4.71   11.62
  -3 -28   7   18.59   11.03
   3 -28  -7    0.26    8.37
   3  28   7    6.77   11.89
  -4 -28   0  195.12   16.52
   4  28   0  186.54   16.39
  -4  28   0  189.93   16.06
   4 -28   0  195.51   16.09
   4 -28   2  115.62   16.57
   4  28  -2  123.81   14.49
  -4 -28  -2  100.40   10.19
  -4  28   2  100.34   12.78
   4 -28   2  114.41   13.59
   4  28   2  124.83   13.65
   4 -28  -2  103.58   12.89
  -4  28  -2   94.95   10.65
  -4 -28   2   96.08    9.86
   4  28   2   96.26    9.52
   4 -28   4   56.41    7.37
   4 -28   4   42.49   12.30
  -4  28   4   58.26    7.39
  -4  28   4   60.07   11.23
   4  28  -4   55.55    9.32
  -4 -28  -4   54.89    8.91
   4  28   4   41.49   10.87
   4 -28  -4   46.83    8.61
  -4 -28   4   55.43   12.03
  -4 -28   4   49.84    7.82
   4  28   4   49.77    7.36
  -4  28  -4   42.14    9.16
  -4 -28  -6   34.34    8.89
   4 -28   6    8.57   11.41
   4  28  -6   35.97    7.87
  -4  28   6   20.49   11.81
   4 -28  -6   18.31    8.24
  -4  28  -6   15.04    8.25
  -4 -28   6   23.07   11.04
   4  28   6   21.77   11.55
  -5  28   1   11.66    7.60
   5  28  -1    7.80    8.66
   5 -28   1   12.12    7.78
  -5 -28  -1    7.74    8.18
  -5 -28   1   13.96    8.00
   5  28   1    9.10    7.89
  -5  28  -1   11.83    8.52
   5 -28  -1    7.19    7.73
   5  28  -3    8.77    8.58
   5 -28   3    9.01   10.82
  -5  28   3    9.78    6.80
   5 -28   3   -0.09    7.38
  -5 -28  -3    8.57    8.21
  -5 -28   3   16.73   10.74
  -5 -28   3    1.48    7.40
   5 -28  -3    1.22    7.67
  -5  28  -3    0.12    8.44
   5  28   3    8.01    9.75
   5  28   3    7.34    7.22
  -5 -28  -5    9.63    8.40
  -5  28   5    5.02   10.63
  -5  28   5   15.61    6.36
   5 -28   5    2.88   11.02
   5  28  -5    2.82    8.05
  -5 -28   5   -1.14   10.49
   5  28   5    7.25   10.17
  -5 -28   5    6.19    6.65
   5 -28  -5    1.60    7.86
  -5  28  -5    4.70    8.17
   5 -28   7    2.44   11.87
   5  28  -7   26.38    7.17
  -5  28   7   -5.17   11.74
   5  28   7    7.98   11.36
  -5 -28   7    5.41   11.61
   5 -28  -7   -0.24    8.04
  -6 -28   0  216.52   17.20
   6  28   0  212.73   17.16
  -6  28   0  213.26   16.96
   6 -28   0  215.38   16.76
   6  28  -2   77.48    9.72
  -6  28   2   67.65    8.37
   6 -28   2   73.08    8.97
   6 -28   2   73.45   10.42
  -6 -28  -2   68.89    9.13
  -6 -28   2   62.53    8.73
   6  28   2   70.75    8.77
  -6  28  -2   58.42    9.43
   6 -28  -2   70.14    8.79
   6 -28   4   18.76   11.37
   6 -28   4   50.41    7.26
  -6  28   4   57.77    7.33
   6  28  -4   57.40    8.83
  -6 -28  -4   49.93    9.07
   6  28   4   25.95    7.06
  -6 -28   4   66.21   11.33
   6  28   4   36.50   10.75
  -6 -28   4   54.54    7.79
   6 -28  -4   49.81    8.18
  -6  28   6   29.26   11.72
   6  28  -6   35.58    7.50
   6 -28   6    3.16   11.28
  -6 -28  -6   33.44    9.02
   6 -28  -6   10.58    7.83
   6  28   6   14.56   10.76
  -6 -28   6   19.36   11.52
  -6  28  -6   13.06    8.03
   7 -28   1   19.01    7.87
  -7  28   1   19.56    7.58
   7  28  -1   27.62    8.76
   7 -28   1   24.16    9.13
  -7 -28  -1   17.06    8.09
  -7 -28   1   17.36    7.88
  -7  28  -1   16.21    8.20
   7 -28  -1   19.48    7.47
   7  28   1   12.88    8.01
   7 -28  -1   23.80    7.23
   7 -28   3    4.31    9.62
   7  28  -3   23.92    8.74
   7 -28   3   14.51   10.74
  -7 -28  -3    9.48    8.26
  -7  28   3    8.74    6.89
   7 -28   3   17.87    7.60
  -7  28  -3   14.24    8.30
   7 -28  -3    9.61    7.32
   7  28   3    7.55    7.36
  -7 -28   3    9.13    7.78
   7  28   3   23.72   10.10
  -7  28   5   19.44    6.41
  -7 -28  -5    5.68    8.68
   7  28  -5   14.42    8.69
   7 -28   5   -3.27   10.55
   7 -28   5    3.63    9.79
  -7 -28   5    9.21   11.15
  -7 -28   5    5.40    7.19
  -7  28  -5    0.86    7.82
   7  28   5   12.20   10.40
   7 -28  -5    2.34    7.75
   7  28  -7   31.88    8.97
   7 -28   7   10.21   11.65
  -7  28   7   -0.44   11.61
   7 -28  -7   -7.83    8.10
  -7 -28   7    6.34   12.08
   7  28   7   13.86   11.62
   8 -28   0   56.62    8.31
  -8  28   0   51.24    8.52
   8  28   0   60.72    9.27
  -8 -28   0   51.70    8.65
   8 -28   0   65.03    9.22
   8 -28   2   93.05   10.65
  -8 -28  -2   77.21    9.38
  -8  28   2   72.31    8.48
   8 -28   2   73.38    8.82
   8  28  -2   85.56   10.16
   8 -28  -2   79.63    8.77
  -8 -28   2   76.37    8.96
  -8  28  -2   72.09    9.44
   8  28   2   79.65    8.97
   8 -28   4   32.85    7.04
  -8 -28  -4   34.75    8.86
   8 -28   4    8.76   11.17
   8 -28   4   27.81    9.97
  -8  28   4   34.94    7.07
   8  28  -4   36.29    9.17
  -8 -28   4   27.63    7.79
   8  28   4   39.13   10.65
   8 -28  -4   23.12    7.87
  -8  28  -4   21.11    8.24
   8  28  -6   44.64    9.26
   8 -28   6   -1.60   10.92
  -8 -28  -6   25.70    9.06
   8 -28  -6   10.24    7.82
  -8  28  -6    5.51    7.80
   8  28   6   19.06   11.04
  -9 -28  -1   23.88    8.28
   9 -28   1   29.62    8.94
  -9  28   1   21.97    7.38
   9 -28   1   14.16    7.84
   9  28  -1   21.26    8.91
  -9 -28   1   21.06    7.91
   9  28   1   18.80    8.24
   9 -28  -1   21.75    7.64
  -9  28  -1   17.58    7.95
   9 -28  -1   18.42    7.46
   9 -28   3   17.63    7.50
   9  28  -3   11.62    9.14
  -9 -28  -3   11.81    8.44
   9 -28   3   11.35    9.64
  -9  28   3    8.47    6.95
  -9 -28   3   13.51    7.77
  -9  28  -3   12.14    8.20
   9 -28  -3    2.63    7.42
   9 -28   5    9.35   10.07
  -9  28   5   15.03    6.65
   9  28  -5   16.16    9.01
  -9 -28  -5   21.47    8.89
   9 -28   5    2.44   11.26
   9 -28  -5    0.40    7.50
  -9  28  -5   -6.90    7.59
  -9 -28   5   -0.56    7.50
   9  28   5   14.28   10.38
   9 -28   7    4.47   11.67
   9  28   7   13.28   11.85
 -10 -28   0   41.98    8.41
 -10  28   0   43.76    8.06
  10  28   0   45.92    9.00
  10 -28   0   36.19    8.07
  10 -28   0   47.64    8.55
  10 -28   2   45.68    8.49
 -10 -28  -2   50.64    8.99
 -10  28   2   43.74    7.78
  10 -28   2   60.52    9.76
  10  28  -2   59.10   10.06
 -10  28  -2   44.46    8.58
  10  28   2   43.86    8.20
  10 -28  -2   52.57    7.53
  10 -28  -2   45.53    8.02
 -10 -28   2   57.54    8.76
  10 -28   4   53.66   10.50
 -10 -28  -4   67.13    9.74
 -10  28   4   55.82    7.87
  10 -28   4   61.50    7.64
  10  28  -4   53.89   10.22
  10 -28  -4   36.34    7.99
  10  28   4   51.34   10.98
 -10 -28   4   53.92    8.68
  10  28  -6   30.36    9.66
 -10 -28  -6   40.95    9.35
  10 -28   6   -0.86   11.50
  10 -28   6   29.34   11.06
  10 -28  -6    5.75    7.80
  10  28   6   30.83   11.32
 -10  28  -6    4.06    7.70
 -11 -28  -1   10.04    8.28
  11 -28   1    5.70    7.63
 -11  28   1   16.28    7.39
  11  28  -1   14.22    8.76
  11 -28   1   13.39    8.73
  11 -28  -1    6.39    7.22
 -11  28  -1   12.39    7.80
 -11 -28   1   11.19    7.89
  11  28   1   12.69    8.09
  11 -28  -1   14.37    7.49
  11 -28   3    1.77    9.09
 -11  28   3    9.62    7.07
  11  28  -3    6.54    9.45
 -11 -28  -3   14.23    8.72
  11 -28   3   13.68    7.91
  11 -28  -3    0.47    7.17
 -11 -28   3   11.91    8.06
 -11  28  -3    6.33    8.02
  11 -28  -3    9.23    5.96
  11  28  -5   18.55    9.55
  11 -28   5    9.58   10.26
  11 -28   5    5.25   10.87
 -11  28   5   15.56    6.84
 -11 -28  -5   28.03    8.94
  11 -28  -5   -2.87    7.45
  11  28   5   20.33   10.38
 -11  28  -5   -1.12    7.63
 -11 -28   5   -2.57    7.89
  12  28   0   40.14    9.10
 -12 -28   0   43.27    8.55
  12 -28   0   45.73    8.12
  12 -28   0   38.55    8.79
 -12  28   0   46.91    8.09
  12 -28   2   30.04    9.51
  12 -28   2   43.92    8.54
 -12  28   2   36.57    7.64
  12  28  -2   36.36    9.80
 -12 -28  -2   42.95    8.92
 -12  28  -2   35.20    8.48
 -12 -28   2   34.66    8.47
  12 -28  -2   44.36    7.38
  12 -28  -2   35.12    7.80
 -12  28   4   39.02    7.66
  12 -28   4   40.65    7.37
  12  28  -4   45.86    9.84
 -12 -28  -4   54.21    9.55
  12 -28   4   33.40   10.00
 -12  28  -4   15.43    8.01
  12 -28  -4   26.01    7.88
  12  28   4   55.26    8.17
 -12 -28   4   39.52    8.82
  12 -28   6   15.78   11.01
  12  28  -6   -1.50   10.24
 -12 -28  -6   44.81    9.73
  12 -28   6   -8.11   11.47
  12  28   6   29.52   11.12
 -12  28  -6  -13.82    7.64
  12 -28  -6    3.06    7.83
  13 -28   1    7.43    8.75
  13 -28   1    3.57    7.66
  13  28  -1    3.28    8.87
 -13  28   1    7.55    7.44
 -13 -28  -1    9.85    8.34
  13 -28  -1    9.13    7.48
 -13 -28   1   10.17    8.31
  13 -28  -1   17.90    7.72
 -13  28  -1    0.31    7.63
  13  28  -3    4.72    9.71
 -13 -28  -3   18.34    8.94
  13 -28   3   16.16    7.71
 -13  28   3   11.94    7.14
  13 -28   3   13.08    9.35
 -13 -28   3   13.96    8.50
 -13  28  -3    8.72    7.87
  13 -28  -3    1.97    7.26
  13 -28  -3    2.55    6.15
  13  28  -5   -9.71    9.96
 -13  28   5   15.95    7.37
  13 -28   5   16.85   10.03
 -13 -28  -5   17.10    9.28
 -13  28  -5   -0.81    7.64
 -13 -28   5    0.82    8.56
  13 -28  -5   -4.08    7.62
  14 -28   0   42.86    8.77
 -14  28   0   36.17    7.98
  14 -28   0   33.23    8.05
 -14 -28   0   40.75    9.13
  14  28  -2   28.37    9.59
 -14 -28  -2   33.10    8.99
 -14  28   2   22.93    7.32
  14 -28   2   27.35    9.50
  14 -28   2   24.98    8.54
  14 -28  -2   18.45    7.51
  14 -28  -2   25.44    7.37
 -14  28  -2   12.64    8.04
 -14 -28   2   27.24    8.64
  14  28  -4   19.16   10.05
 -14  28   4   28.71    7.52
  14 -28   4   25.73    9.73
  14 -28   4   30.29    7.09
 -14 -28  -4   38.54    9.47
  14 -28  -4    7.23    7.59
 -14 -28   4   28.54    9.07
 -14  28  -4   17.36    7.94
  14  28   4   33.23    7.96
  15 -28   1   -2.63    8.72
 -15 -28  -1   10.34    8.85
 -15  28   1   -3.12    7.28
  15 -28   1    9.03    8.19
 -15  28  -1   -1.98    7.82
  15 -28  -1   -2.20    7.45
  15 -28  -1   -1.07    7.69
 -15 -28   1    3.22    8.29
  15  28  -3   -6.80   10.15
 -15 -28  -3   15.13    9.06
  15 -28   3   14.15    7.98
 -15  28   3    3.02    7.29
  15 -28   3   10.38    9.60
  15 -28  -3    2.57    7.46
  15  28   3   20.55    8.72
 -15  28  -3    0.09    7.56
  15 -28  -3   12.40    6.60
 -15 -28   3    5.53    8.75
 -15 -28  -5   25.73    9.68
  15  28  -5  -20.11   10.53
 -15  28   5   10.92    7.64
  15 -28   5   16.83   10.40
  15 -28  -5   -6.87    7.89
 -15  28  -5   -2.98    7.73
 -15 -28   5   -7.86    8.97
  16 -28   0   16.12    7.98
 -16  28   0   10.78    7.61
 -16 -28   0   24.51    8.87
  16 -28   0   10.54    8.42
  16 -28   2   18.60    9.32
  16 -28   2   21.91    8.50
 -16  28   2   15.55    7.32
 -16 -28  -2   20.98    9.44
  16 -28  -2   22.55    7.39
  16 -28  -2   11.83    7.54
 -16  28  -2    8.32    7.63
 -16 -28   2   16.75    8.91
  16  28   2   26.37    9.26
 -16 -28  -4   25.27    9.87
 -16  28   4   15.50    7.71
  16 -28   4   13.39    9.83
  16  28   4   18.98    8.25
 -16 -28   4   12.04    9.47
  16 -28  -4    8.36    7.84
 -16  28  -4   -2.98    7.55
  17 -28   1   -0.92    8.37
 -17  28   1   -3.67    7.35
  17 -28   1    3.42    8.87
 -17 -28  -1    5.31    8.80
  17 -28  -1   -0.70    7.50
  17 -28  -1    5.09    7.89
 -17  28  -1   -4.69    7.44
 -17 -28   1    0.44    8.73
  17 -28   3   -0.61    8.23
  17 -28   3    3.75    9.48
 -17  28   3    1.28    7.42
 -17 -28  -3   10.75    9.78
 -17  28  -3   -4.25    7.74
  17 -28  -3   -2.14    7.67
  17 -28  -3    8.23    6.94
  17  28   3   16.18    8.83
 -17 -28   3    3.16    9.35
 -18 -28   0   12.81    8.95
 -18  28   0    2.56    7.59
  18 -28   0   14.18    8.50
  18 -28   0   -4.72    8.17
 -18  28   2    5.32    7.69
 -18 -28  -2   13.28    9.46
  18 -28   2    9.07    8.55
  18 -28   2   17.95    9.54
  18 -28  -2    2.88    7.71
  18  28   2   22.11    9.44
 -18  28  -2   -0.18    7.87
  18 -28  -2   13.36    7.70
 -18 -28   2   13.97    9.48
  19 -28   1   -1.06    8.80
 -19 -28  -1    7.63    9.47
 -19  28   1    4.12    7.92
  19 -28   1    3.58    9.07
 -19  28  -1   -7.78    7.77
  19 -28  -1    2.80    7.95
  19 -28  -1   12.42    8.22
  19  28   1   13.72    9.75
 -19 -28   1    5.55    9.28
  19 -28   3   13.64    8.86
 -19 -28  -3   11.97   10.09
 -19  28   3    0.21    7.94
  19 -28   3   14.48   10.15
 -19  28  -3    1.50    8.13
  19  28   3   21.74    9.50
  19 -28  -3    0.00    7.97
 -20 -28   0    7.18    9.89
  20 -28   0    6.42    8.70
 -20  28   0   -6.84    7.60
  20 -28   0    5.75    8.89
  20  28   0   13.19   10.05
 -20  28   2   -0.98    7.82
  20 -28   2    6.60    9.68
 -20 -28  -2    4.78   10.10
 -20  28  -2   -3.37    8.08
  20 -28  -2   10.17    7.94
  20 -28  -2    0.82    8.04
   0  29  -1   -1.00    8.79
   0 -29  -1   13.14    8.08
   0  29   1    2.22    7.70
   0 -29   1    0.85    7.96
   0  29   3    5.60    6.98
   0  29   3    5.35    9.91
   0  29  -3    2.29    8.64
   0 -29   3    4.19   10.63
   0 -29  -3   -0.32    7.86
   0 -29   3   -0.90    7.39
   0 -29   5   -1.91   10.71
   0  29   5    6.47    5.91
   0  29  -5   12.29    8.32
   0 -29   5   11.04    5.91
   0  29   5   12.01   11.50
   0 -29  -5    3.22    8.30
   0  29  -7   12.54    7.63
   0  29   7   -1.93   12.74
   0 -29  -7   10.82    8.74
   0 -29   7    2.93   11.82
   1 -29   0   90.90    9.52
   1  29   0   86.75    9.77
  -1 -29   0   77.15    9.63
  -1  29   0   91.49   10.03
   1 -29   2  127.64   13.75
   1  29  -2  129.88   14.62
  -1 -29  -2  120.22   14.36
  -1  29   2  120.78   12.84
   1 -29  -2  129.42   13.97
  -1 -29   2  119.30   13.91
  -1  29  -2  143.65   15.29
   1  29   2  121.47   13.48
   1 -29   4   78.68   13.39
  -1  29   4  101.37   11.03
   1 -29   4   97.93   11.27
   1  29  -4  120.94   13.26
  -1  29   4  107.54   14.74
  -1 -29  -4  111.37   12.57
  -1  29  -4   83.46   10.56
  -1 -29   4  111.17   11.37
  -1 -29   4   91.83   13.52
   1  29   4  112.54   14.89
   1  29   4   88.98   10.02
   1 -29  -4  115.77   12.53
   1  29  -6   40.22    8.14
  -1  29   6   31.14   12.83
  -1 -29  -6   26.09    8.76
   1 -29   6   19.32   11.57
   1  29   6   23.23   12.15
  -1  29  -6   30.27    8.25
  -1 -29   6   33.60   11.69
   1 -29  -6   29.71    8.80
   2  29  -1    7.72    8.66
   2 -29   1   10.58    7.95
  -2 -29  -1   -0.67    8.01
  -2  29   1   12.08    7.98
  -2 -29   1    6.51    7.98
  -2  29  -1    7.84    8.67
   2  29   1   -4.97    7.82
   2 -29  -1   10.76    7.90
   2 -29   3    4.32    7.45
  -2 -29  -3    9.72    8.21
  -2  29   3    6.78   10.19
   2  29  -3    8.36    8.44
   2 -29   3    7.63   10.94
  -2  29   3    7.49    6.84
  -2 -29   3   14.06   10.80
  -2  29  -3   -1.34    8.83
   2  29   3    8.35    6.90
  -2 -29   3   12.85    7.52
   2 -29  -3    2.62    7.83
   2  29   3    8.48    9.80
  -2  29   5    7.81   11.39
  -2 -29  -5    9.44    8.34
  -2  29   5   12.80    5.97
   2 -29   5    8.39   11.28
   2  29  -5    5.61    8.22
   2  29   5   -4.03   10.53
  -2  29  -5    3.86    8.53
  -2 -29   5   11.38   11.16
   2  29   5   -8.21    5.94
   2 -29  -5    3.01    8.11
  -2 -29   5    5.56    6.25
   2 -29   7   17.31   11.49
  -2 -29  -7   12.70    8.73
  -2  29   7    1.20   12.87
   2  29  -7   18.55    7.89
   2 -29  -7   -7.20    8.39
  -2 -29   7   -1.69   11.45
   2  29   7   -5.65   12.02
  -3  29   0   97.77   10.03
   3  29   0   90.70   10.03
  -3 -29   0   94.16    9.81
   3 -29   0   97.28    9.53
  -3 -29  -2   94.57    9.79
   3 -29   2   91.62    9.59
  -3  29   2  115.15   12.93
   3  29  -2   92.65   10.53
  -3 -29   2   86.90    9.58
  -3  29  -2  111.41   13.79
   3 -29  -2   95.26    9.67
   3  29   2   94.74    9.29
   3  29  -4   59.72    9.48
  -3  29   4   62.51    7.80
   3 -29   4   49.91   12.46
  -3  29   4   69.15   12.37
  -3 -29  -4   61.85    9.40
   3 -29   4   66.23    7.82
  -3 -29   4   60.01    8.11
  -3  29  -4   59.76    9.53
  -3 -29   4   69.85   12.28
   3 -29  -4   57.52    8.85
   3  29   4   66.95   11.73
   3  29   4   64.30    7.76
   3 -29   6   11.21   11.37
  -3  29   6   19.34   12.19
   3  29  -6   34.64    8.12
  -3 -29  -6   25.62    8.92
  -3  29  -6   24.05    8.57
   3  29   6   23.11   11.78
  -3 -29   6   31.63   11.58
   3 -29  -6   21.76    8.34
   4 -29   1    4.74    8.02
  -4 -29  -1    2.45    8.09
   4  29  -1    2.95    8.50
  -4  29   1    5.57    7.59
  -4  29  -1    4.12    8.56
   4  29   1   -2.48    7.75
   4 -29  -1   -1.82    7.66
  -4 -29   1    0.93    7.90
  -4 -29  -3    1.82    8.04
  -4  29   3   12.47    6.84
   4 -29   3    3.17    7.53
   4  29  -3   17.33    8.80
   4 -29   3    5.07   11.31
  -4  29  -3   13.62    8.84
   4  29   3   13.68    9.57
   4 -29  -3   10.34    7.64
   4  29   3    8.57    7.14
  -4 -29   3   16.98    7.54
  -4 -29  -5    2.76    8.58
   4 -29   5    2.16   11.35
  -4  29   5   -3.59   10.86
  -4  29   5   17.09    6.40
   4  29  -5    3.33    8.03
   4 -29  -5    3.51    8.24
  -4 -29   5    5.12    6.57
   4  29   5    5.31   10.44
  -4 -29   5    6.75   10.90
  -4  29  -5    8.55    8.43
   4  29  -7   28.54    8.05
  -4  29   7   -7.97   12.07
   4 -29   7   -3.63   11.82
   4 -29  -7   -1.54    8.47
  -4 -29   7   12.97   11.29
   4  29   7   14.50   12.36
   5 -29   0  156.15   14.81
  -5  29   0  150.19   14.98
  -5 -29   0  137.68   15.07
   5  29   0  138.13   15.61
   5  29  -2   90.64   10.26
  -5  29   2   79.30    8.66
   5 -29   2   79.59    9.19
  -5 -29  -2   89.57    9.77
   5 -29  -2   85.27    9.19
   5  29   2   86.11    9.20
  -5 -29   2   76.48    9.16
  -5  29  -2   83.83   10.04
  -5 -29  -4   63.36    9.27
  -5  29   4   64.48    7.61
   5  29  -4   73.58    9.50
   5 -29   4   63.11    7.55
   5 -29   4   22.51   12.23
   5  29   4   47.02    7.56
  -5 -29   4   64.66    8.16
   5 -29  -4   49.56    8.66
   5  29   4   47.07   11.04
  -5  29  -4   33.96    9.17
  -5 -29  -6   26.94    8.85
  -5  29   6   19.74   11.97
   5  29  -6   39.67    8.10
   5 -29   6   -5.53   11.44
  -5 -29   6   23.49   11.41
   5 -29  -6   13.40    8.30
   5  29   6   16.76   11.00
  -5  29  -6   12.65    8.26
   6 -29   1    7.23    7.60
   6  29  -1   -3.18    8.35
  -6 -29  -1    0.35    7.93
  -6  29   1    4.81    7.49
   6 -29  -1    1.50    7.42
  -6 -29   1    1.94    7.81
  -6  29  -1    1.82    8.30
   6  29   1    1.37    7.92
   6 -29   3    8.93    7.54
   6  29  -3    9.84    8.58
  -6 -29  -3    5.50    8.37
  -6  29   3    0.44    6.81
   6 -29   3    0.44   10.56
   6  29   3   -3.15    7.26
  -6 -29   3    3.20    7.61
  -6  29  -3   -3.01    8.43
   6  29   3   13.29    9.86
   6 -29  -3   -5.65    7.48
  -6 -29  -5    4.09    8.62
  -6  29   5   18.00    6.53
   6  29  -5    9.53    8.85
   6 -29   5    2.47   11.22
   6  29   5   12.76   10.54
   6 -29  -5    0.47    7.74
  -6  29  -5   14.35    8.27
  -6 -29   5   -0.29    6.87
   6 -29   7    6.18   12.43
  -6  29   7  -10.53   12.12
   6  29  -7   32.83    8.92
   6 -29  -7   -2.50    8.18
   6  29   7    7.97   11.55
  -6 -29   7   10.25   10.54
  -7 -29   0   66.49    8.96
   7 -29   0   72.58    9.27
   7 -29   0   70.09    8.72
  -7  29   0   67.04    9.07
   7  29   0   69.43    9.43
   7  29  -2   98.39   10.54
  -7  29   2  103.56   11.94
   7 -29   2   87.31   11.03
   7 -29   2   89.52    9.54
  -7 -29  -2   92.61    9.74
   7 -29  -2   81.29    9.25
   7  29   2   87.84    9.38
  -7 -29   2   85.24    9.24
  -7  29  -2   81.56    9.90
  -7 -29  -4   51.46    9.34
   7  29  -4   70.26    9.48
   7 -29   4   47.58    7.36
   7 -29   4   45.42   10.17
  -7  29   4   51.80    7.58
   7 -29   4   17.81   11.56
  -7  29  -4   26.47    8.72
   7 -29  -4   38.49    8.08
   7  29   4   50.03   11.00
  -7 -29   4   43.03    8.07
   7 -29   6    1.80   11.14
  -7 -29  -6   38.48    9.29
  -7  29  -6    6.17    8.16
   7 -29  -6   10.85    8.07
   7  29   6   14.00   11.11
   8 -29   1    5.52    7.75
   8 -29   1    0.68    8.94
  -8 -29  -1   -1.21    7.92
  -8  29   1    5.87    7.55
   8  29  -1    4.97    8.75
   8  29   1    7.29    8.12
   8 -29  -1   -1.45    7.36
  -8  29  -1    1.97    7.98
  -8 -29   1   -0.70    7.78
   8 -29  -1   -0.78    7.05
  -8  29   3    4.77    7.05
   8  29  -3   10.73    9.07
  -8 -29  -3   11.96    8.49
   8 -29   3    7.87    7.68
   8 -29   3   12.10    9.68
   8 -29  -3    8.55    7.50
  -8 -29   3    3.51    7.92
   8  29   3    7.02    7.24
  -8  29  -3    7.83    8.51
   8  29  -5   11.77    8.85
   8 -29   5    4.25    9.87
  -8  29   5   17.88    6.47
   8 -29   5    6.59   10.97
  -8 -29  -5    9.71    8.89
  -8 -29   5   -1.45    7.48
   8  29   5    8.18   10.48
  -8  29  -5   -0.81    7.89
   8 -29  -5   -2.31    7.77
   8 -29   7    7.56   11.96
   8  29   7   14.05   12.04
   9 -29   0   80.55    9.53
   9 -29   0   70.52    8.67
  -9  29   0   62.17    8.76
   9  29   0   73.05    9.68
  -9 -29   0   66.83    9.04
  -9  29   2   66.53    8.49
   9 -29   2   82.17   10.68
  -9 -29  -2   75.36    9.53
   9 -29   2   77.44    8.99
   9  29  -2   91.67   10.44
   9  29   2   64.94    9.19
   9 -29  -2   77.27    8.86
  -9 -29   2   81.12    9.27
  -9  29  -2   61.21    9.32
   9 -29  -2   76.88    7.85
   9 -29   4   40.97    7.31
  -9  29   4   37.95    7.43
   9 -29   4    8.08   11.51
   9  29  -4   54.25    9.74
   9 -29   4   39.41   10.46
  -9 -29  -4   51.22    9.31
   9 -29  -4   32.97    8.14
  -9 -29   4   41.54    8.33
  -9  29  -4   26.93    8.39
   9  29   4   41.56   10.95
   9  29  -6   30.48    9.48
   9 -29   6   -9.03   11.55
   9 -29   6   26.23   10.50
  -9 -29  -6   24.32    9.31
  -9  29  -6    2.27    7.96
   9  29   6   21.63   11.46
   9 -29  -6   14.10    7.97
  10  29  -1   10.74    9.01
  10 -29   1    1.99    7.76
 -10 -29  -1    4.86    8.11
  10 -29   1    5.75    8.59
 -10  29   1   13.94    7.48
  10 -29  -1    2.02    7.41
  10 -29  -1    0.59    7.53
 -10  29  -1    1.13    7.78
 -10 -29   1   12.20    7.86
  10  29   1    8.08    8.39
  10 -29   3   10.95    7.92
 -10  29   3    2.31    7.04
  10 -29   3    7.23    9.62
  10  29  -3   17.24    9.68
 -10 -29  -3   12.24    8.56
 -10  29  -3    2.97    8.12
  10 -29  -3    6.49    7.57
 -10 -29   3   -0.14    7.89
  10 -29   5    0.85   11.38
  10 -29   5    4.14   10.17
 -10  29   5   17.12    7.03
 -10 -29  -5   10.18    9.02
  10  29  -5   17.42    9.52
 -10  29  -5   -1.23    7.75
  10 -29  -5    1.40    7.52
  10  29   5   22.12   10.49
 -10 -29   5    3.75    7.90
  11 -29   0   43.67    8.23
  11 -29   0   43.99    8.70
  11  29   0   39.28    9.58
 -11 -29   0   46.79    8.53
 -11  29   0   32.76    7.99
 -11  29   2   29.33    7.53
  11  29  -2   35.85    9.89
  11 -29   2   36.31    9.46
 -11 -29  -2   42.25    8.99
  11 -29   2   40.48    8.49
 -11  29  -2   25.85    8.32
  11 -29  -2   30.75    7.92
  11 -29  -2   38.96    7.37
 -11 -29   2   32.95    8.56
 -11  29   4   36.81    7.56
  11  29  -4   44.71   10.08
  11 -29   4   40.60    7.34
  11 -29   4   24.92    9.94
 -11 -29  -4   49.70    9.49
  11 -29  -4   20.52    7.71
 -11 -29   4   35.46    8.54
 -11  29  -4   17.30    8.15
  11 -29   6   18.06   11.07
  11 -29   6  -14.38   11.97
 -11 -29  -6   37.13    9.50
  11  29  -6   15.48   10.04
  11 -29  -6    4.09    7.94
  11  29   6   29.14   11.33
 -11  29  -6  -13.65    7.76
  12  29  -1    3.42    9.33
 -12 -29  -1    1.35    8.28
  12 -29   1    6.90    7.85
  12 -29   1   15.08    8.90
 -12  29   1    1.49    7.24
 -12 -29   1    4.20    8.28
  12 -29  -1    4.35    7.52
 -12  29  -1    0.31    7.76
  12  29   1    4.20    8.24
  12 -29  -1    3.92    7.30
  12 -29   3    6.87    9.53
 -12  29   3    4.14    7.12
  12 -29   3   15.12    8.01
 -12 -29  -3   20.31    8.87
  12  29  -3   16.27    9.68
  12 -29  -3    6.69    7.41
 -12 -29   3   -1.07    8.30
  12 -29  -3   10.50    6.30
 -12  29  -3   14.95    8.14
  12 -29   5    1.45   10.22
  12  29  -5    1.60    9.69
 -12 -29  -5   24.57    9.31
 -12  29   5   13.98    7.17
  12 -29  -5    5.30    7.74
 -12  29  -5   -2.63    7.74
 -12 -29   5   -2.84    8.31
 -13  29   0   26.55    7.84
  13  29   0   31.43    9.07
  13 -29   0   39.49    8.75
  13 -29   0   30.40    8.17
 -13 -29   0   29.00    8.80
 -13  29   2   14.33    7.55
 -13 -29  -2   26.65    8.91
  13 -29   2   24.61    9.31
  13  29  -2   19.58    9.81
  13 -29   2   27.69    8.53
 -13  29  -2   16.76    8.11
 -13 -29   2   25.19    8.41
  13 -29  -2   19.22    7.75
  13 -29  -2   21.03    7.20
  13  29  -4   22.68   10.38
  13 -29   4   41.34    7.43
 -13  29   4   30.10    7.54
  13 -29   4   28.44   10.05
 -13 -29  -4   36.12    9.53
  13 -29  -4   23.56    7.85
 -13  29  -4   15.65    8.07
  13  29   4   39.06    8.20
 -13 -29   4   29.28    9.11
 -14  29   1    1.48    7.48
  14  29  -1   -4.46    9.03
 -14 -29  -1    4.45    8.62
  14 -29   1    8.59    8.85
  14 -29   1    7.50    7.90
 -14 -29   1    4.21    8.39
  14 -29  -1   -1.43    7.59
  14 -29  -1    3.19    7.48
 -14  29  -1   -1.11    7.78
  14  29  -3   -7.05    9.69
 -14  29   3    4.23    7.17
  14 -29   3   13.80    9.50
  14 -29   3   15.28    7.98
 -14 -29  -3    5.34    9.02
 -14  29  -3    4.23    7.87
  14 -29  -3    5.36    6.36
  14  29   3   21.59    8.89
  14 -29  -3    3.87    7.46
 -14 -29   3    6.40    8.72
 -14 -29  -5   24.41    9.81
  14  29  -5   -9.39   10.16
 -14  29   5   17.11    7.70
  14 -29   5    8.03   10.28
 -14 -29   5   -2.11    9.10
 -14  29  -5    1.76    7.92
  14 -29  -5   -1.61    7.92
  15 -29   0   25.20    8.60
  15 -29   0   19.59    8.03
 -15 -29   0   25.29    8.84
 -15  29   0   13.16    7.81
 -15 -29  -2   17.03    9.15
  15  29  -2    6.18   10.15
  15 -29   2   17.57    9.26
 -15  29   2    3.03    7.24
  15 -29   2   13.54    8.53
  15 -29  -2   21.82    7.29
 -15 -29   2   16.51    8.74
  15 -29  -2   12.13    7.53
 -15  29  -2   11.56    8.13
  15 -29   4   31.14    7.29
  15 -29   4   15.05    9.75
 -15  29   4   17.10    7.71
  15  29  -4    7.17   10.33
 -15 -29  -4   38.66    9.81
  15  29   4   29.78    8.31
  15 -29  -4   15.36    7.97
 -15 -29   4   17.34    9.50
 -15  29  -4    0.81    7.96
 -16  29   1    0.68    7.52
  16 -29   1    9.52    8.50
 -16 -29  -1    3.83    8.87
  16 -29   1    7.20    8.78
 -16  29  -1   -2.37    7.84
  16 -29  -1    1.25    7.68
 -16 -29   1    0.87    8.58
  16 -29  -1   -2.51    7.73
 -16  29   3    8.93    7.60
 -16 -29  -3   25.11    9.61
  16 -29   3    6.87    8.31
  16 -29   3    4.09    9.56
 -16 -29   3    2.34    9.36
  16 -29  -3   -0.30    7.71
 -16  29  -3   -1.02    7.85
  16 -29  -3    3.22    6.70
  16  29   3   17.36    8.95
  17 -29   0   12.34    8.40
  17 -29   0   10.17    7.98
 -17 -29   0    5.42    8.84
 -17  29   0   -1.18    7.62
 -17  29   2    3.26    7.54
  17 -29   2   15.85    8.76
  17 -29   2   12.60    9.30
 -17 -29  -2   12.86    9.52
  17  29   2   24.77    9.48
  17 -29  -2    6.67    7.51
  17 -29  -2   11.36    7.51
 -17 -29   2   11.55    9.14
 -17  29  -2   -5.06    7.71
  17 -29   4   17.07   10.10
 -17  29   4   13.72    8.00
  17 -29  -4    2.99    8.05
 -17  29  -4   -9.94    7.74
  18 -29   1   11.57    9.13
 -18 -29  -1    2.08    9.12
  18 -29   1    8.51    8.77
 -18  29   1   -2.30    7.63
  18 -29  -1    2.77    8.07
  18  29   1   17.89    9.85
 -18 -29   1    8.51    9.31
 -18  29  -1   -8.95    7.79
  18 -29  -1   -1.51    7.88
 -18 -29  -3   17.51   10.21
 -18  29   3    6.57    7.81
  18 -29   3    9.45    9.86
  18 -29   3   12.83    8.81
 -18 -29   3    6.22   10.05
  18 -29  -3    1.82    7.98
  18  29   3   28.66    9.57
 -18  29  -3    6.00    8.07
  19 -29   0   -2.36    8.55
 -19  29   0   -1.53    7.89
 -19 -29   0    7.41    9.51
  19  29   0   19.87   10.31
  19 -29   0    6.53    8.69
  19 -29   2   -4.26    8.97
  19 -29   2    4.76    9.75
 -19  29   2    5.63    7.82
 -19 -29  -2    8.01    9.77
  19  29   2   15.30    9.76
 -19  29  -2   -4.14    8.04
  19 -29  -2   11.23    8.15
  19 -29  -2    6.70    7.81
 -19 -29   2   -6.50    9.89
  20  29  -1   20.44   10.81
 -20  29   1    3.42    7.95
  20 -29   1    9.26    9.47
  20 -29  -1   -5.31    8.16
 -20  29  -1   -2.14    8.04
  20 -29  -1    3.69    8.43
   0 -30   0   56.43    8.69
   0  30   0   56.30    8.94
   0  30  -2  119.14   14.74
   0 -30   2   86.48    9.58
   0  30   2  103.66   12.60
   0 -30  -2   89.80    9.70
   0  30   4   96.38   10.17
   0 -30   4   81.40   13.28
   0  30   4   93.50   14.36
   0 -30   4  106.40   11.42
   0 -30  -4  108.93   12.61
   0  30  -4   72.38   10.30
   0  30   6   28.04   12.85
   0 -30   6   21.00   11.61
   0  30  -6   22.37    8.15
   0 -30  -6   34.31    8.96
   1  30  -1    1.66    8.33
  -1 -30  -1   -9.11    7.67
   1 -30   1    0.95    7.88
  -1  30   1    0.70    7.63
  -1  30  -1    9.43    8.52
   1 -30  -1   -4.36    7.81
   1  30   1   -4.99    7.58
  -1 -30   1   -0.34    7.81
   1  30  -3    9.94    8.57
  -1 -30  -3    1.16    7.92
  -1  30   3    2.83    7.07
   1 -30   3   12.66    7.53
   1 -30   3    7.13   11.18
   1 -30  -3    6.57    7.97
  -1  30  -3    3.02    8.88
  -1 -30   3   -2.66    7.59
   1  30   3    0.09    6.98
   1  30  -5    5.26    8.18
  -1  30   5    3.19   11.44
  -1  30   5   15.56    6.21
   1 -30   5   10.04    6.13
   1 -30   5   -0.89   11.19
  -1 -30  -5   10.42    8.47
   1  30   5    6.43   11.30
   1  30   5   -0.28    6.03
   1 -30  -5    1.56    8.35
  -1 -30   5    2.01   11.08
  -1 -30   5   -4.26    6.11
  -1  30  -5    7.27    8.19
   1 -30   7   -0.07   11.74
   1  30  -7   19.10    8.04
  -1  30   7    4.69   13.22
  -1 -30  -7   -1.92    8.79
   1  30   7    8.27   12.79
  -1 -30   7   16.67   11.81
   1 -30  -7    3.91    8.78
   2  30   0   84.54    9.61
   2 -30   0   83.66    9.43
  -2 -30   0   79.32    9.52
  -2  30   0   82.88    9.55
  -2 -30  -2   74.86    9.22
   2 -30   2   78.31    9.25
  -2  30   2   78.27    8.46
   2  30  -2   82.67   10.22
   2  30   2   72.24    8.78
   2 -30  -2   69.97    9.13
  -2  30  -2   80.98   10.09
  -2 -30   2   77.05    9.08
   2 -30   4  111.81   11.21
  -2  30   4   96.11   10.82
  -2 -30  -4   76.12    9.94
   2  30  -4   79.59   10.14
  -2  30   4   93.53   14.53
   2 -30   4   63.64   13.38
   2 -30  -4   84.93    9.90
  -2 -30   4  105.54   11.56
  -2  30  -4   67.85   10.30
  -2 -30   4   84.72   13.19
   2  30   4   99.35   14.55
   2  30   4   86.77    9.91
  -2 -30  -6   36.06    8.92
   2 -30   6   23.57   11.77
   2  30  -6   34.71    8.46
  -2  30   6   38.33   13.00
   2 -30  -6   39.63    8.92
   2  30   6   22.42   11.83
  -2  30  -6   31.70    8.28
  -2 -30   6   34.17   11.88
   3  30  -1   -5.16    8.45
   3 -30   1   -4.88    7.68
  -3  30   1   -1.79    7.49
  -3 -30  -1   -0.62    7.91
  -3 -30   1    0.98    7.78
   3  30   1   -1.88    7.71
  -3  30  -1    3.40    8.72
   3 -30  -1    4.16    7.71
  -3 -30  -3   11.15    8.03
   3 -30   3    6.97   11.02
   3 -30   3   -2.49    7.62
  -3  30   3    5.94    6.99
   3  30  -3    0.46    8.70
  -3 -30   3    2.63    7.80
   3 -30  -3   -7.67    7.83
  -3  30  -3   -2.10    8.82
   3  30   3    0.20    6.97
   3 -30   5   -0.69   11.13
   3  30  -5    4.33    8.34
  -3  30   5   -7.99   11.30
  -3 -30  -5   -6.17    8.69
  -3  30   5   16.81    6.11
  -3 -30   5   10.65   11.21
   3  30   5    9.60   10.98
  -3 -30   5    1.47    6.52
   3 -30  -5   -5.88    8.17
  -3  30  -5    4.36    8.74
  -3  30   7  -12.25   12.71
  -3 -30  -7    4.57    9.21
   3  30  -7   16.75    7.99
   3 -30   7    3.53   12.25
  -3 -30   7    5.54   12.24
   3 -30  -7    7.09    8.61
   3  30   7    9.05   12.61
  -4  30   0  139.57   15.09
   4  30   0  132.21   14.86
  -4 -30   0  144.54   15.03
   4 -30   0  133.13   14.50
   4  30  -2  125.67   15.05
   4 -30   2  118.86   13.36
  -4  30   2  108.81   12.55
  -4 -30  -2  112.96   13.78
   4  30   2   94.60   12.08
   4 -30  -2  111.93   13.43
  -4 -30   2   95.36    9.95
  -4  30  -2   96.80   10.71
   4 -30   4   52.23    7.73
  -4  30   4   46.75    7.55
   4  30  -4   50.93    9.39
  -4 -30  -4   52.21    9.13
   4 -30   4   45.41   12.34
   4  30   4   51.03   10.76
  -4  30  -4   49.88    9.54
   4 -30  -4   50.24    8.58
   4  30   4   50.14    7.47
  -4 -30   4   48.92    8.22
  -4 -30  -6   26.68    9.20
  -4  30   6   16.51   12.27
   4  30  -6   27.22    8.19
   4 -30   6   10.06   11.55
   4 -30  -6   15.50    8.55
  -4 -30   6   25.88   11.44
  -4  30  -6   20.28    8.63
   4  30   6   15.08   11.25
   5  30  -1    1.02    8.64
  -5 -30  -1   -1.15    7.97
   5 -30   1    9.16    7.89
  -5  30   1    3.34    7.61
   5  30   1    8.21    7.76
   5 -30  -1    1.24    7.62
  -5  30  -1    4.99    8.42
  -5 -30   1    7.27    7.86
  -5 -30  -3    1.49    8.38
   5  30  -3    7.49    8.86
  -5  30   3   11.06    7.12
   5 -30   3    2.06    7.67
   5  30   3    0.49    7.48
  -5  30  -3    2.62    8.75
  -5 -30   3    9.70    7.72
   5 -30  -3   14.08    7.63
   5 -30   5    3.37   11.65
   5  30  -5   11.37    8.30
  -5 -30  -5    0.56    8.64
  -5  30   5   19.34    6.60
  -5 -30   5    8.37    6.95
  -5  30  -5    3.63    8.46
   5  30   5   12.65   10.43
   5 -30  -5   -2.30    8.11
   5  30  -7   26.11    7.39
   5 -30   7   -0.80   12.37
   5 -30  -7   -3.40    8.55
   5  30   7    9.47   11.56
  -5 -30   7    9.59   12.13
   6  30   0  152.70   15.38
   6 -30   0  154.30   14.81
  -6  30   0  141.07   14.89
  -6 -30   0  141.68   14.73
   6  30  -2  100.39   10.77
  -6  30   2  116.61   12.59
   6 -30   2  113.48   13.27
  -6 -30  -2  114.91   13.40
   6 -30  -2  108.39   13.16
  -6  30  -2  126.02   14.28
   6  30   2   99.42    9.92
  -6 -30   2   95.91    9.98
   6 -30   4   22.97   11.88
  -6  30   4   47.10    7.36
   6  30  -4   60.34    8.90
   6 -30   4   51.31    7.54
  -6 -30  -4   46.19    9.27
   6  30   4   40.33   10.83
   6 -30  -4   42.61    8.51
   6  30   4   21.45    7.17
  -6  30  -4   27.84    9.01
  -6 -30   4   48.54    8.05
   6 -30   6   -2.05   11.89
  -6 -30  -6   34.46    9.36
   6 -30  -6   12.83    8.36
   6  30   6   25.92   11.43
  -6  30  -6   10.66    8.43
  -7  30   1    3.87    7.44
   7 -30   1   -4.99    8.49
  -7 -30  -1   -4.76    7.99
   7 -30   1    0.55    7.71
   7  30  -1    3.37    8.55
   7 -30  -1   -1.11    7.38
  -7 -30   1   -5.62    7.74
  -7  30  -1    6.61    8.27
   7  30   1    5.36    7.95
  -7  30   3    6.95    7.02
   7 -30   3    7.13    9.50
   7  30  -3   17.76    8.98
   7 -30   3   11.93    7.86
  -7 -30  -3   -0.42    8.46
  -7  30  -3    2.20    8.48
  -7 -30   3    3.41    8.07
   7  30   3   -2.09    7.60
   7 -30  -3    2.88    7.64
  -7  30   5   10.88    6.60
   7 -30   5    3.56   11.25
   7  30  -5   22.13    8.93
  -7 -30  -5    4.35    9.16
  -7 -30   5   -3.61    7.20
  -7  30  -5   -3.40    8.24
   7 -30  -5    0.54    7.82
   7  30   5   12.68   10.58
   7 -30   7   -5.76   12.51
   7  30   7   12.70   13.63
   8  30   0  135.84   15.14
  -8  30   0  116.71   14.34
  -8 -30   0  141.95   14.90
   8 -30   0  121.69   12.16
   8 -30   0  138.80   13.83
  -8 -30  -2   86.21    9.85
   8 -30   2   82.95    9.59
  -8  30   2   76.04    8.88
   8  30  -2   98.37   10.56
   8 -30   2   96.87   11.06
   8  30   2   84.54    9.33
  -8 -30   2  117.39   13.79
   8 -30  -2   80.62    9.21
  -8  30  -2   73.31    9.93
  -8 -30  -4   38.63    9.43
   8  30  -4   38.85    9.50
   8 -30   4   40.21    7.44
   8 -30   4   26.94   10.16
  -8  30   4   43.66    7.37
   8 -30  -4   29.08    8.04
  -8  30  -4   22.03    8.58
  -8 -30   4   37.43    8.34
   8 -30   6   -5.67   11.84
  -8 -30  -6   32.31    9.46
   8  30  -6   42.51    9.59
   8 -30  -6   13.20    8.25
   8  30   6   20.30   11.56
  -8  30  -6    5.88    8.32
   9 -30   1    3.17    7.82
  -9  30   1    3.23    7.63
   9  30  -1    7.78    8.95
   9 -30   1    0.04    8.89
  -9 -30  -1    2.43    8.18
  -9 -30   1    9.17    7.86
   9 -30  -1    0.37    7.36
  -9  30  -1    0.98    8.09
   9 -30  -1   -2.27    7.37
   9  30   1   10.10    8.36
  -9 -30  -3    2.44    8.65
   9 -30   3   13.46    7.84
   9 -30   3   14.53    9.99
   9  30  -3    8.38    9.26
  -9  30   3    6.31    7.11
   9  30   3   -1.82    7.65
  -9 -30   3    0.88    8.10
   9 -30  -3    6.02    7.43
  -9  30  -3    3.18    8.39
   9 -30   5  -10.54    9.91
   9 -30   5    7.78   11.22
  -9  30   5   17.56    6.78
  -9 -30  -5   13.78    9.23
   9  30  -5   19.56    9.27
  -9  30  -5   -1.17    8.17
  -9 -30   5   -5.53    7.73
   9  30   5   17.17   10.66
   9 -30  -5   -1.25    7.84
  10  30   0   45.88    9.59
  10 -30   0   52.55    9.12
 -10  30   0   42.01    8.43
 -10 -30   0   54.75    8.84
  10 -30   0   50.15    8.34
 -10 -30  -2   56.83    9.26
  10 -30   2   51.80   10.09
  10  30  -2   63.03   10.33
 -10  30   2   53.20    8.15
  10 -30   2   48.64    8.65
 -10  30  -2   31.72    8.60
  10  30   2   34.30    8.41
  10 -30  -2   48.34    7.49
  10 -30  -2   46.40    8.30
 -10 -30   2   52.38    8.99
  10  30  -4   59.69   10.21
  10 -30   4   47.71    7.62
 -10  30   4   39.54    7.60
  10 -30   4   42.84   10.45
 -10 -30  -4   59.27    9.61
 -10  30  -4   22.48    8.46
  10 -30  -4   33.96    8.28
 -10 -30   4   46.28    8.78
  10 -30   6   12.88   10.94
  10  30  -6   38.49   10.13
  10 -30   6   -9.47   11.98
 -10 -30  -6   35.08    9.71
  10  30   6   27.21   11.58
 -10  30  -6    5.42    8.30
  10 -30  -6   11.92    8.22
 -11 -30  -1   11.70    8.39
  11 -30   1    2.33    8.61
  11  30  -1    9.91    9.13
  11 -30   1    4.86    7.99
 -11  30   1    0.12    7.40
 -11 -30   1    6.14    8.09
  11  30   1    0.69    8.36
  11 -30  -1    6.64    7.65
  11 -30  -1    4.78    7.54
 -11  30  -1   -0.74    7.80
  11 -30   3    9.08    9.57
  11 -30   3    6.38    8.16
 -11  30   3    5.97    7.18
 -11 -30  -3    9.88    8.84
  11  30  -3   13.08    9.62
 -11  30  -3    6.01    8.23
  11 -30  -3   -0.80    7.71
 -11 -30   3    2.23    8.20
  11 -30   5    6.99   10.34
 -11  30   5   16.73    7.11
  11  30  -5    6.36    9.79
 -11 -30  -5   17.95    9.27
 -11 -30   5   -8.68    8.23
  11 -30  -5   -0.72    7.79
 -11  30  -5   -1.01    7.93
  12  30   0   30.64    9.30
  12 -30   0   32.03    8.63
 -12 -30   0   32.94    8.54
 -12  30   0   29.88    8.07
  12 -30   0   27.48    8.14
 -12 -30  -2   34.21    8.99
 -12  30   2   26.35    7.57
  12 -30   2   28.00    8.57
  12  30  -2   38.71    9.98
  12 -30   2   36.81    9.53
 -12 -30   2   29.22    8.62
  12 -30  -2   39.42    7.50
 -12  30  -2   16.92    8.25
  12 -30  -2   25.80    7.76
  12  30  -4   26.85   10.06
 -12  30   4   34.76    7.63
  12 -30   4   24.58    9.97
 -12 -30  -4   42.13    9.60
  12 -30   4   42.98    7.50
  12 -30  -4   14.75    7.80
  12  30   4   40.55    8.40
 -12  30  -4   12.75    8.11
 -12 -30   4   24.22    8.92
  13 -30   1    9.24    8.04
 -13 -30  -1   12.24    8.52
  13  30  -1   -3.70    9.20
 -13  30   1   -4.14    7.37
  13 -30   1   -7.89    8.58
 -13  30  -1    8.70    7.91
  13 -30  -1   -1.51    7.37
 -13 -30   1    0.34    8.42
  13 -30  -1    5.27    7.56
  13 -30   3    4.37    9.45
 -13 -30  -3   12.63    9.13
  13  30  -3   -3.89    9.96
 -13  30   3    7.38    7.27
  13 -30   3   15.97    8.12
 -13 -30   3   13.34    8.71
  13 -30  -3    2.53    6.42
  13 -30  -3    1.28    7.42
 -13  30  -3   13.53    8.16
  13 -30   5    6.54   10.59
 -13 -30  -5   21.26    9.76
  13  30  -5   -7.74   10.50
 -13  30   5   15.60    7.49
 -13  30  -5   -0.13    7.98
 -13 -30   5   -4.57    8.83
  13 -30  -5   -9.00    7.81
  14 -30   0   26.63    8.65
  14 -30   0   33.96    8.28
 -14  30   0   24.25    7.89
 -14 -30   0   30.99    9.00
 -14 -30  -2   15.76    8.96
  14  30  -2   -0.51    9.64
 -14  30   2    7.59    7.48
  14 -30   2   16.75    9.31
  14 -30   2    9.03    8.61
  14 -30  -2   15.45    7.26
 -14  30  -2   12.06    8.17
 -14 -30   2   20.21    8.75
  14 -30  -2   17.39    7.78
  14 -30   4   18.26   10.18
  14 -30   4   31.96    7.44
 -14 -30  -4   26.87    9.76
  14  30  -4   12.60   10.43
 -14  30   4    8.67    7.62
  14  30   4   28.65    8.22
 -14 -30   4   23.20    9.41
  14 -30  -4   11.07    7.83
 -14  30  -4   -0.33    8.15
 -15 -30  -1    2.14    8.90
  15 -30   1   -1.53    8.00
  15 -30   1    0.53    8.80
 -15  30   1    1.30    7.48
  15 -30  -1    7.87    7.77
 -15  30  -1    3.34    7.86
 -15 -30   1    8.42    8.49
  15 -30  -1    6.84    7.56
  15 -30   3   17.14    8.25
  15 -30   3    1.17    9.40
  15  30  -3  -11.13    9.95
 -15  30   3    7.45    7.48
 -15 -30  -3    6.47    9.33
  15 -30  -3    1.37    6.46
 -15 -30   3   13.42    9.10
 -15  30  -3   -2.14    7.99
  15 -30  -3    2.94    7.58
  15  30   3   22.86    9.06
 -16 -30   0   12.57    8.80
 -16  30   0    7.32    7.96
  16 -30   0   19.92    8.53
  16 -30   0   10.75    8.16
  16 -30   2   13.48    8.78
 -16 -30  -2    8.79    9.38
  16 -30   2   11.06    9.41
 -16  30   2    7.31    7.38
 -16  30  -2    5.67    8.20
 -16 -30   2    4.41    9.06
  16 -30  -2    6.78    7.29
  16 -30  -2    7.67    7.56
 -16 -30  -4   14.75   10.05
  16 -30   4    8.77   10.13
 -16  30   4    3.49    7.87
 -16 -30   4   10.37   10.01
 -16  30  -4   -4.79    8.06
  16 -30  -4    3.87    7.95
 -17 -30  -1    8.03    9.34
  17 -30   1    8.29    9.00
 -17  30   1    1.32    7.61
  17 -30   1    5.17    8.78
 -17 -30   1    1.27    9.06
  17 -30  -1    1.99    7.87
  17 -30  -1   -6.11    7.92
 -17  30  -1   -0.55    8.00
 -17 -30  -3   15.41   10.25
  17 -30   3    2.09    9.85
 -17  30   3   -0.44    7.88
  17 -30   3    9.07    8.68
 -17 -30   3    4.37    9.94
  17 -30  -3    1.38    7.87
  17  30   3   20.02    9.23
 -17  30  -3   -5.45    8.28
 -18 -30   0   16.85    9.55
 -18  30   0    8.64    8.00
  18 -30   0    5.81    8.36
  18 -30   0   14.12    8.65
 -18  30   2    0.20    7.71
  18 -30   2    9.58    9.12
  18 -30   2   14.21    9.56
 -18 -30  -2   10.91    9.93
 -18 -30   2    4.53    9.73
  18  30   2   19.85   10.07
  18 -30  -2    8.65    7.74
  18 -30  -2    4.81    7.86
 -18  30  -2   -5.57    8.04
 -19 -30  -1    8.99    9.81
  19 -30   1   -0.14    9.25
  19 -30   1   10.40    9.27
 -19  30   1   -0.64    8.06
  19 -30  -1    5.38    8.39
  19 -30  -1   -5.69    8.32
 -19 -30   1    0.14    9.66
 -19  30  -1   -9.27    8.22
  19  30   1   17.00   10.18
   0  31   1   -2.67    7.68
   0  31  -1    9.21    8.51
   0 -31  -1    0.84    7.86
   0 -31   1    1.06    8.14
   0  31  -3    5.07    9.02
   0  31   3    1.17    7.07
   0 -31  -3   -3.72    7.92
   0 -31   3    0.54    7.75
   0  31   5   10.52    6.55
   0 -31   5    5.71    6.35
   0 -31  -5    4.49    8.60
   0 -31   5    7.72   11.17
   0  31   5    5.97   11.44
   0  31  -5   12.41    8.45
   0  31   7    6.92   13.49
   0 -31   7   20.17   12.01
   0  31  -7   14.08    8.10
   0 -31  -7   -1.14    9.03
   1  31   0  151.60   14.95
  -1  31   0  152.43   15.37
   1 -31   0  128.31   14.74
  -1 -31   0  147.56   15.20
  -1 -31  -2   93.58    9.91
   1  31  -2   85.58   10.47
   1 -31   2  117.10   13.77
  -1  31   2   83.18    9.12
   1  31   2   92.37    9.27
   1 -31  -2  108.89   13.24
  -1 -31   2  108.31   13.48
  -1  31  -2   91.83   10.47
   1 -31   4   78.70   13.44
  -1 -31  -4  111.61   12.68
  -1  31   4  106.25   11.16
   1 -31   4   98.86   11.57
   1  31  -4  113.03   13.76
   1 -31  -4   79.41   10.04
  -1 -31   4  104.57   11.40
   1  31   4   89.30   10.06
  -1  31  -4   69.13   10.19
  -1 -31  -6   32.05    9.04
   1 -31   6   16.79   11.41
  -1  31   6   16.97   12.58
   1  31  -6   22.83    8.34
   1  31   6   20.10   12.50
  -1 -31   6    1.53   11.77
   1 -31  -6   27.29    9.00
  -1  31  -6   19.36    8.47
   2  31  -1   -3.38    8.58
  -2 -31  -1   -1.82    8.00
   2 -31   1   -1.73    7.83
  -2  31   1    3.05    7.72
   2 -31  -1    1.97    7.60
  -2  31  -1    3.49    8.60
   2  31   1   -2.02    7.63
  -2 -31   1    3.12    7.83
  -2  31   3    5.59    6.96
   2  31  -3   -2.25    8.88
   2 -31   3    6.73    7.80
  -2 -31  -3    4.21    8.31
  -2  31  -3   -4.89    8.91
   2 -31  -3   -1.63    8.02
   2  31   3    2.07    7.14
  -2 -31   3   -3.94    7.66
   2 -31   5   -0.25   11.38
  -2  31   5   17.19    6.24
  -2 -31  -5   -4.00    8.60
   2  31  -5   20.57    8.56
   2 -31  -5    3.91    8.59
   2  31   5   -9.55    6.33
  -2 -31   5    8.86   11.19
   2  31   5    3.96   10.93
  -2  31  -5   12.24    8.80
   2  31  -7   16.82    8.12
   2 -31   7   23.07   12.14
  -2 -31  -7   -1.59    9.13
  -2  31   7    0.76   13.50
   2  31   7   12.32   12.29
  -2 -31   7   14.08   12.90
   2 -31  -7    5.52    9.16
   3  31   0  146.75   15.27
  -3 -31   0  167.76   15.47
   3 -31   0  164.33   15.32
  -3  31   0  159.76   15.61
  -3 -31  -2   85.97    9.70
  -3  31   2   67.31    8.65
   3 -31   2   90.22    9.58
   3  31  -2   85.19   10.28
   3 -31  -2   77.77    9.33
  -3 -31   2   86.50    9.46
   3  31   2   72.83    8.91
  -3  31  -2   88.44   10.49
  -3 -31  -4   61.34    9.69
   3 -31   4   55.16    8.10
  -3  31   4   64.94    7.94
   3  31  -4   62.22    9.74
   3 -31   4   56.26   12.70
   3 -31  -4   60.53    9.17
  -3  31  -4   65.20   10.07
   3  31   4   59.13    7.98
  -3 -31   4   60.48    8.46
   3 -31   6   18.82   11.96
  -3 -31  -6   19.49    9.30
   3  31  -6   34.73    8.55
  -3 -31   6   20.27   11.80
   3 -31  -6   22.93    8.77
   3  31   6   24.86   12.22
  -3  31  -6   26.76    8.85
   4  31  -1    3.03    8.65
   4 -31   1    6.23    7.95
  -4  31   1   -2.84    7.47
  -4 -31  -1   -3.08    8.03
   4 -31  -1    4.44    7.68
   4  31   1    0.98    7.73
  -4 -31   1    2.78    7.90
  -4  31  -1   -0.14    8.48
  -4  31   3    3.37    6.87
  -4 -31  -3    1.93    8.36
   4  31  -3    4.84    9.09
   4 -31   3    0.89    7.93
  -4 -31   3    6.45    7.76
   4  31   3   -0.19    7.22
  -4  31  -3    8.40    8.96
   4 -31  -3    5.50    7.91
   4  31  -5   14.35    8.40
  -4  31   5   15.92    6.51
   4 -31   5    9.08   11.68
  -4 -31  -5    3.77    8.63
  -4  31  -5    7.95    8.57
  -4 -31   5    1.80    6.83
   4  31   5   11.46   10.60
   4 -31  -5   -4.19    8.03
   4 -31   7    7.36   12.60
   4  31   7   15.65   12.16
  -4 -31   7    9.93   12.70
  -5  31   0  167.13   15.44
   5 -31   0  157.94   14.69
  -5 -31   0  153.44   15.40
   5  31   0  162.57   15.54
   5  31  -2  136.71   15.44
   5 -31   2  113.77   13.76
  -5 -31  -2  115.46   14.14
  -5  31   2  113.96   12.58
   5  31   2   98.61   10.05
   5 -31  -2  109.53   13.52
  -5 -31   2  123.13   13.77
  -5  31  -2   86.67   10.84
  -5 -31  -4   46.79    9.42
  -5  31   4   40.32    7.46
   5  31  -4   45.39    9.34
   5 -31   4   37.75    7.54
  -5  31  -4   27.34    9.32
  -5 -31   4   47.87    8.25
   5  31   4   23.75    7.45
   5 -31  -4   38.33    8.40
  -5 -31  -6   29.57    9.41
   5 -31   6   11.81   12.43
   5  31  -6   49.23    8.61
  -5  31  -6   18.89    8.75
   5 -31  -6   24.33    8.92
   5  31   6   28.70   11.51
  -6 -31  -1    1.21    8.06
  -6  31   1    9.55    7.63
   6 -31   1    2.18    7.80
   6  31  -1    0.07    8.65
  -6  31  -1   -0.70    8.45
  -6 -31   1    6.40    7.88
   6  31   1    2.30    8.04
   6 -31  -1   -1.39    7.51
  -6 -31  -3    1.10    8.60
   6 -31   3   13.71    8.07
  -6  31   3   -0.22    7.10
   6  31  -3    3.89    8.74
  -6 -31   3    6.22    7.94
   6 -31  -3    2.17    7.63
  -6  31  -3    4.18    8.83
   6  31   3   -1.88    7.56
  -6  31   5   16.82    6.79
  -6 -31  -5   13.20    9.12
   6  31  -5   14.53    7.90
   6 -31   5    6.10   11.82
  -6 -31   5   -3.64    7.17
  -6  31  -5    8.99    8.58
   6  31   5    9.05   10.55
   6 -31  -5   -0.58    8.22
  -7  31   0   68.43    9.29
   7 -31   0   72.89    9.11
  -7 -31   0   77.71    9.39
   7  31   0   77.42    9.80
   7  31  -2   73.85   10.15
  -7 -31  -2   69.98    9.52
   7 -31   2   74.15    9.35
  -7  31   2   60.64    8.55
   7 -31   2   71.48   10.38
  -7  31  -2   63.77    9.75
   7  31   2   72.88    9.20
   7 -31  -2   70.92    8.69
  -7 -31   2   67.51    9.07
   7  31  -4   46.82    9.52
   7 -31   4   39.15    7.51
  -7  31   4   37.22    7.41
  -7 -31  -4   34.04    9.25
  -7 -31   4   29.49    8.00
   7 -31  -4   25.29    8.28
  -7  31  -4   19.88    8.94
  -7 -31  -6   30.64    9.92
   7  31  -6   49.00    9.54
   7 -31   6   -5.68   12.26
   7  31   6   23.41   11.63
   7 -31  -6    8.86    8.48
  -7  31  -6   12.69    8.68
  -8  31   1    6.33    7.66
   8 -31   1   -4.95    8.77
   8  31  -1   -6.16    8.93
  -8 -31  -1    2.82    8.09
   8 -31   1    9.11    7.93
  -8 -31   1    4.80    8.00
   8  31   1   11.77    8.51
   8 -31  -1    3.53    7.48
  -8  31  -1    2.47    8.28
   8 -31   3   12.75    8.12
   8  31  -3    5.23    9.21
  -8  31   3   -1.20    7.11
  -8 -31  -3    7.06    8.69
   8 -31   3    4.86    9.69
  -8 -31   3    0.96    8.34
  -8  31  -3   -0.33    8.55
   8 -31  -3   14.44    7.92
   8  31   3   -0.25    7.64
   8  31  -5   21.71    9.17
  -8  31   5   14.47    6.88
  -8 -31  -5    8.52    9.21
  -8 -31   5   -4.37    7.65
  -8  31  -5   -0.74    8.27
   8 -31  -5   -0.62    7.83
   9 -31   0   88.04    9.51
   9  31   0   81.75   10.37
   9 -31   0   89.20   10.03
  -9  31   0   85.28    9.59
  -9 -31   0   80.86    9.74
   9  31  -2   54.83   10.00
  -9 -31  -2   43.72    8.98
   9 -31   2   41.33    9.94
  -9  31   2   33.57    7.90
   9 -31   2   40.24    8.68
  -9 -31   2   48.84    8.77
  -9  31  -2   35.93    8.82
   9 -31  -2   37.90    8.25
   9  31   2   24.70    8.66
   9 -31   4   28.86   10.44
  -9 -31  -4   43.06    9.48
   9 -31   4   43.21    7.59
  -9  31   4   34.05    7.48
   9  31  -4   45.95    9.94
  -9  31  -4   11.61    8.64
  -9 -31   4   38.89    8.58
   9 -31  -4   22.24    8.05
  -9 -31  -6   41.30    9.89
   9 -31   6   -1.50   12.26
   9  31  -6   31.74    9.86
  -9  31  -6    5.21    8.42
   9 -31  -6   18.08    8.53
  10 -31   1    5.22    9.00
  10 -31   1    6.25    8.13
 -10 -31  -1    7.10    8.34
 -10  31   1    6.57    7.66
  10  31  -1   12.23    9.33
 -10  31  -1    5.10    8.18
  10  31   1    1.81    8.65
 -10 -31   1    8.37    8.12
  10 -31  -1    3.55    7.70
  10 -31  -1    1.26    7.45
  10  31  -3   12.81    9.66
  10 -31   3    7.14    7.90
  10 -31   3   -2.04    9.66
 -10 -31  -3    4.02    8.72
 -10  31   3   -4.70    7.09
  10 -31  -3    0.68    7.43
 -10  31  -3    2.90    8.19
 -10 -31   3    3.48    8.22
 -10 -31  -5   17.00    9.47
  10 -31   5    9.65   10.50
  10  31  -5    8.63    9.86
 -10  31   5   15.63    7.10
 -10  31  -5    2.33    8.31
  10 -31  -5   -7.38    8.04
 -10 -31   5    1.54    8.19
  11 -31   0   41.09    8.32
 -11  31   0   30.68    8.29
 -11 -31   0   42.99    8.70
  11 -31   0   34.30    8.90
  11  31   0   44.61    9.70
  11 -31   2   47.85    8.86
 -11  31   2   43.77    8.04
  11 -31   2   53.58   10.23
  11  31  -2   50.93   10.46
 -11 -31  -2   45.58    9.34
  11 -31  -2   45.26    7.53
 -11 -31   2   49.82    9.15
  11  31   2   36.18    8.78
 -11  31  -2   36.56    8.84
  11 -31  -2   45.97    8.34
 -11 -31  -4   42.42    9.70
  11  31  -4   46.80   10.33
  11 -31   4   33.77   10.26
 -11  31   4   37.98    7.83
  11 -31   4   42.42    7.77
  11 -31  -4   33.91    8.31
 -11  31  -4   16.42    8.39
 -11 -31   4   43.10    9.01
 -12 -31  -1    3.06    8.42
 -12  31   1    0.53    7.47
  12 -31   1    3.19    8.69
  12 -31   1    3.02    8.15
  12  31  -1   -3.15    9.64
  12 -31  -1    6.16    7.75
  12 -31  -1   -0.18    7.68
 -12 -31   1   11.07    8.50
  12  31   1  -10.05    8.38
 -12  31  -1    3.49    7.94
  12 -31   3   19.76    8.27
 -12 -31  -3    7.34    9.13
  12 -31   3   12.48    9.48
  12  31  -3   14.57    9.92
 -12  31   3   10.73    7.30
 -12  31  -3    7.44    8.15
 -12 -31   3   -1.94    8.48
  12 -31  -3   -2.46    7.59
  12 -31  -3   -3.63    6.03
 -12  31   5   19.28    7.41
  12  31  -5   11.53   10.13
  12 -31   5   14.46   10.49
 -12 -31  -5   18.07    9.77
 -12 -31   5    2.42    8.70
 -12  31  -5   -6.63    8.13
  12 -31  -5   -4.22    7.92
 -13 -31   0   36.23    9.00
 -13  31   0   24.55    7.98
  13  31   0   29.83    9.35
  13 -31   0   38.59    8.42
  13 -31   0   40.28    8.72
  13 -31   2   32.25    8.80
  13  31  -2   37.18   10.36
  13 -31   2   30.14    9.50
 -13 -31  -2   29.90    9.23
 -13  31   2   22.19    7.62
 -13 -31   2   32.21    8.80
  13 -31  -2   25.96    7.44
 -13  31  -2   27.10    8.24
  13 -31  -2   18.67    7.73
 -13  31   4   18.43    7.73
 -13 -31  -4   37.26    9.90
  13 -31   4   29.56    7.68
  13 -31   4   18.27   10.07
  13  31  -4   20.00   10.82
  13 -31  -4   20.56    8.03
  13  31   4   45.63    8.65
 -13  31  -4    8.20    8.32
 -13 -31   4   35.77    9.50
  14  31  -1   -9.31    9.30
 -14  31   1   -0.64    7.53
 -14 -31  -1    2.37    8.72
  14 -31   1   10.89    8.86
  14 -31   1    7.76    8.24
  14 -31  -1    3.69    7.60
 -14 -31   1   10.87    8.61
 -14  31  -1    7.27    7.92
  14 -31  -1    4.51    7.56
 -14 -31  -3   16.93    9.35
 -14  31   3   -0.84    7.47
  14 -31   3   19.73    8.33
  14 -31   3   10.23    9.71
  14  31  -3   -2.78   10.17
 -14 -31   3    4.30    9.09
  14 -31  -3    1.19    7.57
 -14  31  -3    1.35    8.22
 -15 -31   0   26.51    9.22
 -15  31   0   20.11    7.95
  15 -31   0   24.73    8.50
  15 -31   0   20.11    8.25
  15 -31   2   16.81    8.92
  15  31  -2   -0.04   10.16
 -15  31   2   13.02    7.69
  15 -31   2   11.53    9.36
 -15 -31  -2   14.72    9.33
 -15  31  -2    8.13    8.28
  15 -31  -2   12.59    7.28
  15 -31  -2   17.00    7.95
 -15 -31   2   16.16    9.01
  15 -31   4   14.86   10.41
  15  31  -4   -9.37   10.61
 -15  31   4   14.51    7.92
 -15 -31  -4   29.84   10.09
  15 -31  -4   -1.71    7.90
 -15 -31   4   17.38    9.85
  15  31   4   30.96    8.60
 -15  31  -4    3.62    8.33
  16 -31   1    5.62    8.39
 -16 -31  -1    4.67    9.23
 -16  31   1   -6.39    7.59
  16 -31   1    5.74    8.91
  16 -31  -1   -1.09    7.92
  16 -31  -1    2.95    7.79
 -16 -31   1    1.12    8.95
 -16  31  -1    1.00    8.06
  16 -31   3   16.04    8.65
 -16  31   3    4.17    7.76
 -16 -31  -3    2.97    9.82
  16 -31   3   11.32    9.82
 -16 -31   3   -5.88    9.67
  16 -31  -3   -8.61    7.76
 -16  31  -3    2.96    8.43
  16  31   3   18.38    9.57
 -17 -31   0   14.97    9.03
  17 -31   0    9.05    8.60
  17 -31   0   10.14    8.62
 -17  31   0   -0.29    7.84
  17 -31   2   20.97    9.69
 -17 -31  -2   18.91    9.95
 -17  31   2    6.45    7.69
  17 -31   2   16.17    9.32
 -17 -31   2    6.06    9.63
  17 -31  -2   14.34    7.62
 -17  31  -2    3.12    8.37
  17  31   2   33.99   10.20
  17 -31  -2    2.30    7.84
 -18  31   1    7.85    7.93
  18 -31   1    9.70    9.28
  18 -31   1    6.91    9.24
 -18 -31  -1    7.86    9.58
  18  31   1    9.09   10.30
 -18 -31   1    3.97    9.60
  18 -31  -1   -2.84    8.36
  18 -31  -1    4.56    8.28
 -18  31  -1    5.96    8.29
 -19  31   0   -1.56    8.10
  19 -31   0    4.11    8.77
  19 -31   0    6.09    8.76
   0  32   0  154.23   14.83
   0 -32   0  161.64   15.31
   0  32  -2   87.71   10.57
   0 -32   2   82.00    9.52
   0 -32  -2   81.25    9.78
   0  32   2   77.84    9.13
   0 -32   4   92.13   11.32
   0  32  -4   66.82   10.20
   0  32   4   94.82   10.00
   0 -32  -4   75.98    9.88
   0 -32   6   21.54   12.14
   0  32   6    9.59   12.77
   0 -32  -6   21.62    9.19
   0  32  -6   31.15    8.52
   1 -32   1   -3.17    7.97
  -1 -32  -1    9.15    7.87
   1  32  -1   10.02    8.63
  -1  32   1    3.90    7.49
  -1 -32   1   -1.36    7.99
   1 -32  -1    0.67    8.04
  -1  32  -1   12.48    8.87
   1  32   1    2.37    7.72
   1  32  -3    7.10    8.94
   1 -32   3   11.42    7.98
  -1 -32  -3   10.21    8.52
  -1  32   3    7.75    7.28
   1  32   3    5.83    7.33
  -1  32  -3   -2.11    8.94
  -1 -32   3    3.07    8.12
   1 -32  -3    7.66    8.20
  -1 -32  -5    0.86    8.73
   1 -32   5    8.57   11.35
   1  32  -5   15.29    8.42
  -1  32   5   13.80    6.47
  -1 -32   5    7.67    6.54
  -1  32  -5    8.45    8.55
   1 -32  -5   -0.50    8.61
   1  32   5    0.00    6.33
  -1  32   7   -3.78   13.44
   1 -32   7   11.61   13.00
  -1 -32   7    4.29   11.92
   1  32   7   -4.14   12.57
  -2 -32   0  133.29   14.86
  -2  32   0  146.16   15.00
   2  32   0  144.66   15.50
   2 -32   0  138.95   14.52
   2  32  -2   73.85   10.33
  -2 -32  -2   82.41    9.47
   2 -32   2   75.51    9.45
  -2  32   2   69.29    8.72
  -2 -32   2   83.66    9.38
  -2  32  -2   77.20   10.28
   2 -32  -2   79.00    9.35
   2  32   2   72.78    8.89
  -2  32   4   76.23    8.49
  -2 -32  -4   74.76   10.19
   2  32  -4   76.26   10.31
   2 -32   4   96.14   11.48
   2  32   4   84.90   10.10
  -2  32  -4   66.00   10.37
   2 -32  -4   77.89    9.88
  -2 -32   4   76.73    8.83
   2  32  -6   32.44    8.76
  -2 -32  -6   31.65    9.49
   2 -32   6   13.94   12.56
   2  32   6   17.18   12.31
   2 -32  -6   24.35    9.17
  -2  32  -6   34.12    8.61
   3  32  -1   -0.62    8.71
  -3 -32  -1    1.83    7.99
   3 -32   1   -0.75    7.85
  -3  32   1    2.37    7.69
  -3  32  -1   -3.45    8.54
  -3 -32   1   -1.26    7.94
   3  32   1   -1.33    7.90
   3 -32  -1   -0.36    7.63
  -3  32   3    2.03    7.11
  -3 -32  -3    0.84    8.34
   3 -32   3   -1.40    7.91
   3  32  -3    2.91    9.00
   3  32   3   -0.07    7.25
  -3 -32   3    0.66    8.00
  -3  32  -3    0.66    9.30
   3 -32  -3    0.31    8.12
   3 -32   5    4.94   11.80
   3  32  -5    6.03    8.35
  -3 -32  -5    8.01    9.09
  -3  32   5   20.32    6.37
   3 -32  -5    0.86    8.52
  -3  32  -5    0.28    8.90
  -3 -32   5    4.08    6.79
   4 -32   0  166.41   15.37
  -4 -32   0  165.54   15.70
  -4  32   0  165.05   15.41
   4  32   0  175.39   15.86
   4 -32   2   89.16    9.76
   4  32  -2   93.52   10.80
  -4 -32  -2   90.92   10.06
  -4  32   2   83.84    9.22
   4  32   2   88.54    9.38
   4 -32  -2   87.84    9.62
  -4 -32   2  110.86   13.68
  -4  32  -2   80.61   10.59
   4  32  -4   52.46    9.70
   4 -32   4   47.54    7.98
  -4 -32  -4   37.45    9.36
  -4  32   4   40.90    7.56
   4 -32  -4   50.53    8.85
   4  32   4   36.44    7.64
  -4  32  -4   43.13    9.57
  -4 -32   4   52.17    8.51
   4 -32   6   12.30   12.60
  -4 -32  -6   18.35    9.43
   4  32  -6   26.86    8.70
   4  32   6   20.30   11.56
   4 -32  -6   21.95    8.97
  -4  32  -6   24.06    9.17
   5  32  -1    9.91    8.93
   5 -32   1    2.32    8.04
  -5 -32  -1   10.08    8.23
  -5  32   1   -1.07    7.60
  -5  32  -1    4.25    8.50
   5 -32  -1    1.00    7.76
   5  32   1    3.65    8.00
  -5 -32   1    4.53    7.99
   5 -32   3    0.97    7.91
   5  32  -3    6.22    9.22
  -5 -32  -3    5.92    8.60
  -5  32   3    0.38    7.08
   5 -32  -3   -2.59    7.86
  -5  32  -3   -3.16    9.05
  -5 -32   3    0.64    7.99
   5  32   3    4.18    7.86
  -5  32   5   16.26    6.87
  -5 -32  -5   11.27    9.28
   5  32  -5    7.66    8.54
  -5 -32   5   -0.44    7.06
  -5  32  -5   12.41    8.80
   5 -32  -5   -3.92    8.17
  -6  32   0   90.94    9.81
  -6 -32   0   80.49    9.67
   6  32   0   93.80   10.16
   6 -32   0   93.87    9.59
  -6 -32  -2  126.75   14.56
  -6  32   2  110.24   13.01
   6  32  -2  150.81   15.60
   6 -32   2  116.96   13.67
  -6 -32   2  117.06   14.33
   6 -32  -2  112.01   13.49
  -6  32  -2  123.13   14.46
   6  32   2  109.42   12.85
  -6 -32  -4   53.08    9.69
  -6  32   4   47.20    7.57
   6  32  -4   48.14    9.07
   6 -32   4   44.60    7.83
   6 -32  -4   30.11    8.56
  -6 -32   4   46.02    8.29
  -6  32  -4   27.37    9.18
   6 -32   6   -6.15   12.79
  -6 -32  -6   39.31    9.95
   6  32  -6   53.80    9.51
   6 -32  -6   12.60    8.95
  -6  32  -6   15.56    8.97
  -7 -32  -1    4.84    8.44
   7 -32   1    1.29    7.73
  -7  32   1    3.52    7.59
   7  32  -1   -1.94    8.91
  -7 -32   1    8.77    8.18
   7 -32  -1    3.08    7.83
   7  32   1   11.21    8.27
  -7  32  -1    7.64    8.54
  -7 -32  -3   10.36    8.86
  -7  32   3    7.00    7.14
   7  32  -3    6.09    9.12
   7 -32   3    8.44    8.18
  -7  32  -3    5.54    8.86
  -7 -32   3   -3.55    8.20
   7 -32  -3   -2.22    7.82
   7  32   3   -5.20    7.70
   7  32  -5   26.71    9.29
  -7 -32  -5    9.71    9.41
  -7  32   5   17.73    6.90
   7 -32  -5   -4.86    8.18
  -7 -32   5   -3.62    7.42
  -7  32  -5    2.65    8.60
   8 -32   0  165.14   15.23
  -8  32   0  157.27   15.55
   8  32   0  172.57   16.38
  -8 -32   0  172.20   16.11
  -8  32   2   64.98    8.65
  -8 -32  -2   76.02    9.87
   8 -32   2   76.52    9.63
   8 -32   2   82.77   10.62
   8  32  -2   86.84   10.60
  -8 -32   2   67.19    9.34
   8  32   2   68.37    9.33
   8 -32  -2   66.84    8.79
  -8  32  -2   58.68    9.81
   8  32  -4   59.30    9.96
  -8  32   4   43.78    7.78
   8 -32   4   46.82    7.79
  -8 -32  -4   36.32    9.59
  -8 -32   4   43.02    8.60
  -8  32  -4   20.70    8.95
   8 -32  -4   38.16    8.59
  -8 -32  -6   29.21   10.02
   8  32  -6   32.28    9.97
   8 -32  -6   11.26    8.68
  -8  32  -6    6.29    8.74
  -9 -32  -1    5.74    8.39
  -9  32   1    1.39    7.58
   9 -32   1    2.30    8.10
   9  32  -1    6.77    9.17
   9 -32   1    1.13    9.15
   9 -32  -1    0.69    7.63
  -9 -32   1   -1.02    8.07
  -9  32  -1    9.46    8.46
   9  32   1    5.51    8.70
   9 -32   3    5.80   10.00
  -9 -32  -3    8.72    8.83
   9  32  -3   15.24    9.56
   9 -32   3   10.89    8.22
  -9  32   3    4.64    7.32
   9 -32  -3    7.86    7.78
   9  32   3  -12.27    7.57
  -9 -32   3    2.43    8.48
  -9  32  -3   10.79    8.60
   9  32  -5   16.47    9.67
  -9 -32  -5    9.55    9.56
  -9  32   5   14.64    6.95
   9 -32  -5   -5.75    7.98
  -9  32  -5   -0.71    8.42
  -9 -32   5    7.31    8.16
  10 -32   0   55.81    8.88
  10  32   0   65.18   10.08
 -10  32   0   55.77    9.00
 -10 -32   0   58.68    9.27
  10 -32   0   65.24    9.31
  10 -32   2   56.11   10.36
  10 -32   2   48.53    8.97
 -10  32   2   40.29    8.07
  10  32  -2   51.07   10.64
 -10 -32  -2   46.94    9.28
 -10 -32   2   48.30    9.16
  10  32   2   30.27    8.67
 -10  32  -2   36.50    8.99
  10 -32  -2   47.03    8.49
  10 -32   4   56.84    7.92
 -10  32   4   47.11    7.87
  10  32  -4   53.42   10.50
  10 -32   4   40.68   10.70
 -10 -32  -4   44.17    9.73
 -10 -32   4   42.26    8.96
 -10  32  -4   21.67    8.83
  10 -32  -4   24.07    8.19
 -11  32   1   -2.14    7.58
  11 -32   1   11.90    9.04
  11  32  -1   -6.95    9.43
  11 -32   1   -3.19    8.15
 -11 -32  -1   -0.78    8.58
 -11 -32   1   12.25    8.37
  11 -32  -1    3.92    7.50
  11 -32  -1    2.00    7.68
  11  32   1   -3.29    8.78
 -11  32  -1    5.99    8.21
  11 -32   3    8.08    9.79
  11 -32   3   16.23    8.32
 -11 -32  -3   16.25    9.15
 -11  32   3    6.78    7.36
  11  32  -3   17.85   10.08
  11 -32  -3   -1.65    7.59
 -11  32  -3    2.62    8.28
 -11 -32   3    0.16    8.42
 -11  32   5   16.11    7.60
 -11 -32  -5   26.85    9.92
  11  32  -5    5.88   10.15
  11 -32   5   23.31   11.07
 -11  32  -5    4.18    8.48
 -11 -32   5   -1.08    8.60
  11 -32  -5   -3.17    8.31
 -12 -32   0   37.61    8.86
  12  32   0   28.30    9.62
  12 -32   0   28.59    8.26
  12 -32   0   31.02    8.90
 -12  32   0   25.64    8.38
  12 -32   2   35.43    8.77
  12  32  -2   34.44   10.18
  12 -32   2   30.55    9.72
 -12 -32  -2   32.29    9.23
 -12  32   2   29.68    7.87
 -12 -32   2   33.53    8.94
  12 -32  -2   23.92    7.96
  12 -32  -2   27.39    7.26
 -12  32  -2   31.93    8.47
  12 -32   4   31.89    7.78
  12  32  -4   29.78   10.63
  12 -32   4   19.89   10.17
 -12 -32  -4   39.34    9.96
 -12  32   4   29.91    7.90
 -12  32  -4   12.35    8.39
  12 -32  -4   15.76    8.29
 -12 -32   4   24.11    9.12
 -13 -32  -1    9.66    8.66
 -13  32   1    2.65    7.59
  13 -32   1   -1.50    8.31
  13  32  -1    4.58    9.67
  13 -32   1    7.83    8.71
  13 -32  -1    5.42    7.66
 -13  32  -1   -2.59    8.04
  13 -32  -1   -0.41    7.69
 -13 -32   1   12.90    8.85
  13 -32   3   21.30    8.53
 -13  32   3    7.53    7.52
  13 -32   3    8.04    9.61
  13  32  -3    5.77   10.58
 -13 -32  -3   21.32    9.45
 -13  32  -3    4.07    8.38
  13 -32  -3    4.53    7.79
 -13 -32   3    0.34    8.98
  14 -32   0   36.38    8.52
  14 -32   0   39.10    8.78
 -14 -32   0   38.31    9.16
 -14  32   0   39.46    8.42
  14 -32   2   22.82    9.00
 -14 -32  -2   28.18    9.21
 -14  32   2   10.33    7.61
  14  32  -2    9.39   10.19
  14 -32   2   21.25    9.50
 -14  32  -2    7.25    8.33
 -14 -32   2   20.06    8.99
  14 -32  -2   20.92    7.84
  14 -32  -2   15.51    7.42
  14 -32   4    8.68   10.14
  14  32  -4    1.01   10.91
 -14  32   4   16.64    7.90
 -14 -32  -4   30.75   10.24
  14 -32  -4   11.29    8.26
 -14 -32   4   18.91    9.84
 -14  32  -4    7.71    8.34
  14  32   4   31.86    8.76
  15 -32   1    4.06    8.81
  15 -32   1    6.51    8.54
 -15  32   1    4.74    7.71
 -15 -32  -1   12.36    9.27
  15 -32  -1    4.51    7.96
 -15 -32   1    4.50    8.77
 -15  32  -1    3.93    7.99
  15 -32  -1    3.78    7.81
  15 -32   3   16.82    8.61
  15  32  -3  -10.81   10.48
 -15 -32  -3    8.80    9.70
 -15  32   3    7.41    7.84
  15 -32   3    2.17    9.88
  15 -32  -3    0.31    7.98
 -15 -32   3   -2.50    9.41
  15  32   3   15.99    9.43
 -15  32  -3    6.25    8.40
  16 -32   0   15.62    8.58
 -16 -32   0   30.97    9.18
  16 -32   0   17.59    8.63
 -16  32   0   15.13    8.10
 -16  32   2   15.38    8.07
  16 -32   2   18.75    9.56
  16 -32   2   17.47    9.35
 -16 -32  -2   17.55    9.75
 -16  32  -2    9.13    8.47
  16 -32  -2    4.94    8.12
 -16 -32   2   15.02    9.62
  16 -32  -2   17.26    7.55
 -17  32   1    3.79    7.86
  17 -32   1   13.27    8.95
  17 -32   1    1.39    9.10
 -17 -32  -1    8.39    9.66
 -17 -32   1   -0.40    9.37
  17 -32  -1    1.76    8.11
 -17  32  -1    1.14    8.27
  17 -32  -1   -1.77    7.99
  18 -32   0    7.13    8.77
 -18  32   0    8.96    8.34
  18 -32   0    5.41    8.86
 -18 -32   0    0.01    9.51
   0  33   1    1.63    7.76
   0 -33  -1   -6.96    7.88
   0 -33   1   -5.74    7.98
   0  33  -1    1.72    8.58
   0  33   3   10.55    7.47
   0 -33   3    9.75    8.21
   0 -33  -3    8.91    8.32
   0  33  -3    6.47    9.25
   0  33   5   14.89    6.82
   0  33  -5   11.34    8.60
   0 -33  -5    5.21    8.74
   0 -33   5    9.50    6.67
   1  33   0   93.22   10.23
   1 -33   0   82.20    9.76
  -1  33   0  120.16   14.06
  -1 -33   0  116.62   14.15
   1 -33   2   70.39    9.33
  -1 -33  -2   64.68    9.31
  -1  33   2   63.46    8.63
   1  33  -2   62.54    9.93
  -1 -33   2   67.83    9.29
   1 -33  -2   67.44    9.26
  -1  33  -2   62.18   10.20
   1  33   2   56.36    8.70
   1 -33   4   65.26    8.59
  -1  33   4   72.41    8.26
   1  33  -4   59.73    9.83
  -1 -33  -4   70.25    9.91
   1  33   4   62.31    8.13
  -1  33  -4   57.98   10.06
  -1 -33   4   76.02    8.68
   1 -33  -4   61.14    9.60
   1  33  -6   24.79    8.94
  -1 -33  -6   25.24    9.29
   1 -33  -6   20.43    9.44
  -1  33  -6   26.17    8.78
   2 -33   1   -1.22    8.11
  -2 -33  -1    3.55    8.12
   2  33  -1    0.62    8.76
  -2  33   1   -0.89    7.60
   2  33   1    7.11    7.97
   2 -33  -1   18.25    8.24
  -2 -33   1    7.18    8.12
  -2  33  -1    4.38    8.59
   2 -33   3    5.23    8.28
   2  33  -3    3.11    9.14
  -2  33   3   -0.91    7.29
  -2 -33  -3    5.41    8.60
  -2 -33   3    4.90    8.16
   2 -33  -3    3.38    8.25
  -2  33  -3    9.80    9.27
   2  33   3    5.92    7.31
  -2 -33  -5    8.00    9.16
   2  33  -5    7.95    8.71
  -2  33   5   23.12    6.50
  -2 -33   5    6.82    6.75
   2  33   5   -2.78    6.58
   2 -33  -5   -4.89    8.72
  -2  33  -5   11.68    8.45
  -3 -33   0   91.30    9.96
   3 -33   0   92.82    9.88
  -3  33   0   92.25    9.98
   3  33   0   88.40   10.10
   3 -33   2   72.25    9.54
  -3  33   2   67.75    8.58
  -3 -33  -2   67.67    9.62
   3  33  -2   68.53   10.30
   3 -33  -2   69.57    9.18
  -3  33  -2   74.86   10.27
   3  33   2   62.53    8.69
  -3 -33   2   67.54    9.41
  -3 -33  -4   50.31    9.41
   3  33  -4   53.06    9.72
  -3  33   4   52.37    7.81
   3 -33   4   56.48    8.22
  -3  33  -4   44.68    9.86
   3  33   4   48.71    7.92
  -3 -33   4   46.34    8.50
   3 -33  -4   44.61    9.16
   3  33  -6   27.58    8.84
  -3 -33  -6   29.37    9.95
   3 -33  -6   19.15    9.38
  -3  33  -6   21.92    9.21
   4  33  -1    3.05    8.87
  -4 -33  -1    1.13    8.25
   4 -33   1    8.54    8.02
  -4  33   1    3.60    7.68
   4 -33  -1    9.32    7.92
  -4 -33   1    6.48    8.18
  -4  33  -1   14.02    9.01
   4  33   1    1.95    8.02
  -4 -33  -3    4.92    8.75
   4 -33   3   15.02    8.33
   4  33  -3    4.23    9.17
  -4  33   3    7.62    7.13
  -4 -33   3   -0.94    8.10
  -4  33  -3    2.98    9.30
   4  33   3   -5.71    7.42
   4 -33  -3    2.77    8.08
  -4  33   5   20.88    6.87
   4  33  -5   13.08    8.69
  -4 -33  -5   15.63    9.20
  -4  33  -5    1.17    9.04
   4 -33  -5    1.10    8.57
  -4 -33   5   -1.43    7.08
  -5  33   0   84.52   10.10
  -5 -33   0   92.20    9.91
   5  33   0   89.01   10.30
   5 -33   0   94.39    9.60
   5  33  -2   96.63   10.95
   5 -33   2   84.64    9.92
  -5 -33  -2   95.09   10.19
  -5  33   2   78.40    9.04
   5  33   2   89.47    9.68
  -5  33  -2   79.60   10.40
   5 -33  -2   76.83    9.56
  -5 -33   2   88.90    9.81
  -5  33   4   43.13    7.55
  -5 -33  -4   38.36    9.47
   5  33  -4   36.01    9.53
   5 -33   4   35.02    7.75
  -5 -33   4   38.96    8.41
  -5  33  -4   30.79    9.36
   5  33   4   11.29    7.45
   5 -33  -4   18.64    8.55
   5  33  -6   38.22    8.27
  -5 -33  -6   24.92   10.03
  -5  33  -6   15.49    9.34
   5 -33  -6   10.09    8.90
  -6 -33  -1    2.19    8.35
   6 -33   1   -0.57    8.22
  -6  33   1    0.82    7.87
   6  33  -1    3.69    8.82
   6  33   1    6.31    8.31
  -6 -33   1    5.31    8.27
  -6  33  -1    9.96    8.73
   6 -33  -1   -5.07    7.75
  -6 -33  -3    3.09    8.85
   6  33  -3    3.72    9.02
  -6  33   3    9.91    7.38
   6 -33   3   12.39    8.26
   6  33   3   -3.19    7.88
  -6 -33   3    5.66    8.24
  -6  33  -3    2.29    9.03
   6 -33  -3    1.19    7.93
  -6  33   5   21.23    7.08
   6  33  -5   20.33    8.32
  -6 -33  -5   10.53    9.46
  -6  33  -5   -3.21    8.87
  -6 -33   5    0.41    7.47
   6 -33  -5   -3.84    8.44
   7  33   0   61.30    9.74
  -7 -33   0   59.74    9.24
  -7  33   0   54.88    9.24
   7 -33   0   72.28    9.15
   7 -33   2   63.88    9.18
  -7  33   2   52.04    8.38
   7  33  -2   59.49   10.36
  -7 -33  -2   59.18    9.55
   7 -33  -2   50.90    8.66
  -7  33  -2   65.85    9.93
   7  33   2   56.29    9.12
  -7 -33   2   67.05    9.19
   7  33  -4   34.52    9.56
  -7 -33  -4   36.73    9.55
  -7  33   4   32.90    7.49
   7 -33   4   37.33    7.76
  -7  33  -4   23.38    9.16
   7 -33  -4   33.74    8.59
  -7 -33   4   31.55    8.39
  -7 -33  -6   27.94   10.34
   7  33  -6   33.74    9.87
  -7  33  -6   14.16    9.07
   7 -33  -6    7.75    8.99
  -8  33   1    4.11    7.82
   8  33  -1    2.20    9.41
   8 -33   1    2.22    8.05
  -8 -33  -1    2.09    8.51
  -8  33  -1   -3.67    8.58
  -8 -33   1    4.39    8.29
   8  33   1    3.99    8.73
   8 -33  -1   -3.73    7.92
   8 -33   3    4.85    8.31
   8  33  -3   13.08    9.53
  -8 -33  -3    8.90    8.95
  -8  33   3    8.51    7.36
   8  33   3   -0.07    7.79
  -8 -33   3   10.76    8.67
  -8  33  -3    0.80    8.88
   8 -33  -3   -3.98    7.97
   8  33  -5   13.68    9.59
  -8  33   5   12.21    7.12
  -8 -33  -5   10.14    9.66
   8 -33  -5   -0.09    8.43
  -8 -33   5    3.07    7.92
  -8  33  -5    5.24    8.78
   9 -33   0   65.84    9.13
   9  33   0   72.46   10.22
   9 -33   0   57.54    9.27
  -9 -33   0   62.43    9.38
  -9  33   0   57.88    9.06
   9 -33   2   34.77    9.92
  -9  33   2   31.66    7.89
   9  33  -2   39.40   10.12
   9 -33   2   38.93    9.02
  -9 -33  -2   41.13    9.21
  -9  33  -2   33.57    9.00
  -9 -33   2   40.66    8.91
   9  33   2   37.67    8.94
   9 -33  -2   35.35    8.17
   9 -33   4   23.70   10.21
   9 -33   4   44.86    7.91
  -9 -33  -4   34.62    9.58
   9  33  -4   36.42   10.18
  -9  33   4   35.64    7.72
  -9  33  -4   27.02    8.96
   9 -33  -4   20.74    8.53
  -9 -33   4   35.42    8.77
  10 -33   1    2.90    8.27
  10  33  -1   -2.75    9.50
 -10 -33  -1    3.97    8.52
 -10  33   1   15.04    7.88
  10 -33   1    7.41    9.19
 -10  33  -1    1.23    8.34
  10 -33  -1    2.90    7.13
  10  33   1   -0.30    8.90
 -10 -33   1    4.25    8.35
  10 -33  -1    7.50    7.71
  10 -33   3   16.39    8.32
  10 -33   3    4.97   10.04
 -10  33   3    2.40    7.45
 -10 -33  -3    7.07    9.11
  10  33  -3    7.45    9.87
  10 -33  -3    0.22    7.75
 -10 -33   3    4.24    8.55
 -10  33  -3    0.71    8.47
 -10 -33  -5   21.34   10.02
  10  33  -5   12.87   10.31
  10 -33   5    0.02   10.47
 -10  33   5   19.39    7.36
 -10  33  -5   -5.43    8.53
  10 -33  -5   -0.38    8.33
 -10 -33   5    1.50    8.62
  11 -33   0   27.96    8.32
 -11  33   0   22.67    8.30
 -11 -33   0   27.79    8.64
  11 -33   0   25.34    8.60
  11  33   0   31.60    9.67
  11 -33   2   33.24    9.98
  11  33  -2   49.41   10.47
 -11  33   2   36.79    7.98
 -11 -33  -2   49.08    9.41
  11 -33   2   35.12    8.75
 -11 -33   2   33.36    9.16
  11 -33  -2   36.35    8.38
 -11  33  -2   23.65    8.95
  11  33   2   13.11    8.51
 -11 -33  -4   41.28   10.13
  11 -33   4   32.57   10.73
  11  33  -4   40.18   10.80
 -11  33   4   42.97    8.02
  11 -33   4   39.53    8.03
  11 -33  -4   24.27    8.31
 -11  33  -4   11.21    8.87
 -11 -33   4   40.62    9.39
 -12  33   1   -2.76    7.59
  12 -33   1    0.36    8.47
 -12 -33  -1   10.10    8.59
  12 -33   1    7.39    9.13
  12  33  -1   -2.37    9.90
 -12  33  -1   -4.65    8.37
  12 -33  -1   -0.76    7.78
  12 -33  -1   -2.70    7.79
 -12 -33   1    4.18    8.68
  12  33   1   -9.34    8.72
  12 -33   3   18.47    8.45
  12  33  -3    6.42   10.24
  12 -33   3    4.46    9.76
 -12  33   3   16.00    7.65
 -12 -33  -3   20.02    9.41
  12 -33  -3    8.30    7.79
 -12  33  -3    4.28    8.44
 -12 -33   3   11.22    9.05
  13 -33   0   33.87    8.90
 -13  33   0   25.91    8.41
  13  33   0   26.89    9.63
  13 -33   0   35.98    8.49
 -13 -33   0   32.36    8.90
  13 -33   2   19.25    9.69
 -13 -33  -2   23.54    9.35
 -13  33   2   17.97    7.93
  13  33  -2    8.75   10.57
  13 -33   2   23.24    8.93
 -13 -33   2   24.99    8.93
  13 -33  -2   13.09    7.99
 -13  33  -2    9.75    8.30
  13 -33  -2   10.03    7.13
 -13  33   4   18.92    8.08
  13  33  -4    4.84   11.30
  13 -33   4   33.47    8.04
 -13 -33  -4   30.46   10.23
  13 -33   4   10.62   10.43
 -13  33  -4   12.07    8.57
  13 -33  -4    2.01    8.43
  13  33   4   33.37    8.96
 -13 -33   4   14.82    9.69
 -14 -33  -1    9.29    8.88
  14 -33   1    3.08    8.61
  14 -33   1    2.48    8.72
 -14  33   1    3.63    7.73
  14  33  -1   -5.69    9.76
 -14 -33   1   10.55    8.93
  14 -33  -1    3.12    7.94
 -14  33  -1    3.93    7.98
  14 -33  -1   -1.19    7.78
  14 -33   3   13.34    8.96
 -14 -33  -3    6.62    9.69
 -14  33   3    7.37    7.90
  14 -33   3   13.47    9.94
  14  33  -3   -2.61   10.80
 -14 -33   3    3.13    9.57
 -14  33  -3   -0.80    8.50
  14 -33  -3   -4.17    7.88
 -15  33   0    8.57    8.02
 -15 -33   0   25.72    9.44
  15 -33   0   16.43    8.55
  15 -33   0   13.70    8.46
  15 -33   2   15.82    9.33
 -15 -33  -2   21.14    9.53
  15  33  -2   -8.55   10.32
  15 -33   2    4.35    9.63
 -15  33   2    2.67    7.76
 -15  33  -2    3.77    8.32
  15 -33  -2    5.88    7.49
 -15 -33   2   11.87    9.42
  15 -33  -2   10.60    7.98
 -16  33   1    0.67    7.84
  16 -33   1    6.50    8.93
 -16 -33  -1   10.00    9.64
  16 -33   1    2.87    9.12
  16 -33  -1    3.98    7.99
 -16 -33   1    3.87    9.27
  16 -33  -1    7.10    8.32
 -16  33  -1    1.01    8.27
 -17  33   0   12.95    8.21
  17 -33   0    7.46    8.95
  17 -33   0   10.84    8.65
 -17 -33   0    7.11    9.45
   0 -34   0  117.83   14.38
   0  34   0  134.04   14.96
   0  34  -2   51.66   10.07
   0 -34   2   74.08    9.43
   0  34   2   59.24    8.77
   0 -34  -2   68.92    9.51
   0 -34   4   49.34    8.37
   0  34  -4   48.48    9.73
   0  34   4   53.82    7.80
   0 -34  -4   45.10    9.24
   0 -34  -6   18.55    9.55
   0  34  -6   16.01    8.70
  -1  34   1    6.89    7.89
   1  34  -1    7.33    8.88
   1 -34   1    1.08    8.35
  -1 -34  -1    9.43    8.16
  -1 -34   1   -0.08    8.33
   1 -34  -1    2.45    8.16
  -1  34  -1    6.92    8.99
   1  34   1    8.75    8.07
   1 -34   3    2.09    8.14
   1  34  -3    4.82    9.05
  -1 -34  -3    1.52    8.65
  -1  34   3    9.22    7.55
   1  34   3   12.01    7.59
  -1  34  -3    8.31    9.39
  -1 -34   3    4.23    8.37
   1 -34  -3    0.50    8.20
  -1  34   5   23.23    6.74
   1  34  -5    9.73    8.94
  -1 -34  -5   10.96    9.30
   1 -34  -5    9.35    9.02
  -1 -34   5   10.28    6.91
   1  34   5    7.08    6.61
  -1  34  -5   10.36    8.93
   2  34   0  125.18   14.92
  -2 -34   0   93.47   10.20
  -2  34   0   84.95   10.19
   2 -34   0   91.87    9.83
  -2  34   2   68.11    8.77
   2  34  -2   66.60   10.38
   2 -34   2   70.75    9.54
  -2 -34  -2   55.03    9.42
  -2 -34   2   64.60    9.41
   2  34   2   73.73    8.90
  -2  34  -2   66.47   10.20
   2 -34  -2   66.06    9.17
   2 -34   4   41.32    8.13
  -2  34   4   41.21    7.66
   2  34  -4   50.07    9.92
  -2 -34  -4   41.27    9.55
  -2  34  -4   31.71    9.43
   2 -34  -4   44.34    9.24
   2  34   4   39.39    7.62
  -2 -34   4   36.35    8.35
   2  34  -6   22.51    9.13
  -2 -34  -6   26.93   10.11
  -2  34  -6   19.56    9.02
   2 -34  -6   21.94    9.54
   3  34  -1    6.83    8.98
   3 -34   1   13.54    8.33
  -3  34   1   10.19    8.07
  -3 -34  -1    7.85    8.51
  -3  34  -1    5.02    8.78
   3  34   1   15.16    8.26
  -3 -34   1    7.63    8.36
   3 -34  -1   12.02    8.09
   3  34  -3   10.83    9.32
  -3 -34  -3   13.97    8.81
   3 -34   3    7.86    8.23
  -3  34   3   10.48    7.37
   3  34   3   12.76    7.58
  -3 -34   3    7.09    8.40
   3 -34  -3    7.44    8.42
  -3  34  -3   -2.79    9.33
   3  34  -5    8.22    8.87
  -3  34   5   18.52    6.71
  -3 -34  -5    9.81    9.15
   3 -34  -5    7.46    8.94
  -3  34  -5    2.46    9.16
  -3 -34   5    5.36    7.05
  -4  34   0   87.12   10.16
  -4 -34   0   91.60   10.00
   4 -34   0   89.92    9.93
   4  34   0   89.82   10.23
   4 -34   2   83.93    9.86
   4  34  -2   80.54   10.65
  -4 -34  -2   67.48    9.87
  -4  34   2   75.71    8.97
  -4 -34   2   78.60    9.83
  -4  34  -2   72.09   10.58
   4 -34  -2   81.17    9.56
   4  34   2   75.62    9.25
   4  34  -4   45.61    9.52
  -4 -34  -4   33.60    9.54
   4 -34   4   35.75    8.07
  -4  34   4   41.92    7.77
  -4  34  -4   26.21    9.73
   4 -34  -4   24.34    8.88
   4  34   4   16.76    7.45
  -4 -34   4   36.84    8.52
  -4 -34  -6   27.55   10.12
   4  34  -6   34.79    9.15
  -4  34  -6   24.00    9.42
   4 -34  -6   17.12    9.48
   5  34  -1    1.42    8.86
   5 -34   1    0.05    8.24
  -5 -34  -1    6.00    8.37
  -5  34   1    6.86    7.81
  -5 -34   1    1.57    8.36
  -5  34  -1    5.88    8.97
   5 -34  -1    2.16    7.92
   5  34   1    3.03    8.20
   5  34  -3   -1.41    9.33
  -5  34   3   16.13    7.34
  -5 -34  -3    7.04    8.91
   5 -34   3    6.35    8.44
   5 -34  -3   -2.15    8.13
   5  34   3    8.64    7.92
  -5 -34   3   -0.91    8.35
  -5  34  -3    4.54    9.18
  -5 -34  -5   14.14    9.65
  -5  34   5   23.80    7.28
   5  34  -5   12.90    9.05
   5 -34  -5    5.49    8.75
  -5 -34   5    4.88    7.53
  -5  34  -5    7.66    9.33
   6 -34   0   40.47    8.59
   6  34   0   39.91    9.18
  -6 -34   0   39.94    8.79
  -6  34   0   43.67    8.93
  -6  34   2   62.71    8.71
  -6 -34  -2   77.00    9.91
   6  34  -2   81.29   10.45
   6 -34   2   68.66    9.69
  -6 -34   2   77.90    9.69
   6 -34  -2   66.76    9.35
  -6  34  -2   73.16   10.23
   6  34   2   68.29    9.36
  -6  34   4   31.03    7.62
  -6 -34  -4   39.12    9.77
   6  34  -4   32.96    9.19
   6 -34   4   38.59    7.93
  -6  34  -4   19.21    9.31
   6  34   4    9.88    7.40
  -6 -34   4   33.10    8.53
   6 -34  -4   28.23    8.74
  -7  34   1   17.30    8.08
   7  34  -1   16.27    9.34
  -7 -34  -1   14.67    8.68
   7 -34   1   12.10    8.51
   7  34   1   22.61    8.67
  -7  34  -1   11.55    8.80
  -7 -34   1   13.97    8.51
   7 -34  -1   11.75    8.10
   7  34  -3    1.12    9.43
   7 -34   3    6.56    8.59
  -7 -34  -3    9.19    9.00
  -7  34   3    4.30    7.37
   7 -34  -3    0.64    8.01
   7  34   3   -5.32    7.88
  -7 -34   3    9.19    8.67
  -7  34  -3    8.49    9.10
   7  34  -5    6.23    9.60
  -7  34   5   21.42    7.35
  -7 -34  -5    5.17    9.83
  -7  34  -5    9.91    9.16
  -7 -34   5    1.30    7.86
   7 -34  -5    0.94    8.80
   8  34   0   71.83   10.08
  -8  34   0   63.32    9.38
  -8 -34   0   68.42    9.65
   8 -34   0   55.30    9.22
  -8 -34  -2   50.53    9.61
   8 -34   2   59.71    9.32
  -8  34   2   44.14    8.42
   8  34  -2   68.29   10.35
   8  34   2   45.70    9.04
  -8 -34   2   59.49    9.28
  -8  34  -2   42.86    9.63
   8 -34  -2   53.90    8.86
  -8  34   4   32.69    7.68
  -8 -34  -4   35.32    9.80
   8 -34   4   37.27    7.98
   8  34  -4   49.79   10.24
  -8  34  -4   12.87    9.15
   8 -34  -4   18.04    8.74
  -8 -34   4   29.49    8.58
  -9  34   1    7.97    7.88
   9 -34   1    7.81    8.29
   9  34  -1   13.44    9.64
  -9 -34  -1   12.11    8.68
  -9 -34   1    9.76    8.50
   9 -34  -1    6.87    7.96
   9  34   1   14.69    8.96
  -9  34  -1    2.07    8.49
   9 -34   3    5.68    8.43
  -9 -34  -3    9.55    9.24
   9 -34   3    2.64    9.71
  -9  34   3    5.69    7.41
   9  34  -3    4.89    9.86
   9 -34  -3    7.32    8.00
  -9 -34   3    8.24    8.85
   9  34   3  -12.32    7.83
  -9  34  -3    4.81    8.87
  -9 -34  -5   19.48   10.13
   9  34  -5   19.45   10.15
  -9  34   5   23.67    7.51
  -9 -34   5    0.48    8.52
   9 -34  -5    1.78    8.64
  -9  34  -5   14.95    9.05
  10 -34   0   32.14    8.41
 -10  34   0   30.01    8.51
 -10 -34   0   35.24    8.91
  10  34   0   33.43    9.79
  10 -34   0   30.24    8.51
  10 -34   2   44.06    9.27
 -10  34   2   30.23    8.02
  10 -34   2   37.44   10.04
 -10 -34  -2   40.32    9.40
  10  34  -2   51.35   10.82
 -10 -34   2   39.25    9.19
  10  34   2   27.09    8.80
  10 -34  -2   26.01    8.16
 -10  34  -2   32.67    9.08
  10  34  -4   41.72   10.68
  10 -34   4   39.68    8.15
  10 -34   4   20.11   10.39
 -10  34   4   41.36    7.95
 -10 -34  -4   35.24   10.01
  10 -34  -4   21.39    8.62
 -10  34  -4   16.76    9.02
 -10 -34   4   33.78    9.15
 -11 -34  -1    2.94    8.71
  11 -34   1    4.73    8.97
 -11  34   1    0.26    7.82
  11 -34   1    1.22    8.48
  11  34  -1    4.89    9.85
  11 -34  -1    6.21    7.85
  11  34   1   -0.46    9.15
 -11  34  -1    2.05    8.44
  11 -34  -1   -1.48    7.44
 -11 -34   1    8.51    8.63
  11  34  -3   20.49   10.50
  11 -34   3   14.04    8.58
 -11 -34  -3   20.97    9.49
  11 -34   3    0.36   10.07
 -11  34   3   12.03    7.70
 -11 -34   3    6.48    8.81
 -11  34  -3   -0.44    8.74
  11 -34  -3    1.05    8.03
  12 -34   0   28.97    8.90
  12  34   0   17.45    9.88
 -12 -34   0   24.51    8.83
 -12  34   0   25.28    8.32
  12 -34   0   30.61    8.52
  12 -34   2   27.59    8.84
  12  34  -2   12.91   10.29
 -12  34   2   19.09    7.91
 -12 -34  -2   29.62    9.36
  12 -34   2   20.21    9.80
 -12 -34   2   20.37    9.11
  12 -34  -2   17.21    8.10
 -12  34  -2   16.49    8.78
 -12  34   4   19.94    8.05
  12 -34   4   13.43   10.60
  12  34  -4   12.24   10.91
 -12 -34  -4   31.37   10.38
  12 -34   4   37.16    8.27
 -12  34  -4    8.48    9.02
 -12 -34   4   22.00    9.54
  12 -34  -4   12.21    8.33
 -13  34   1   -0.87    7.78
  13  34  -1   -4.30   10.01
 -13 -34  -1    5.80    8.84
  13 -34   1    6.70    9.11
  13 -34   1    5.01    8.72
  13 -34  -1    9.81    8.01
  13 -34  -1   -0.74    7.84
 -13  34  -1    5.88    8.51
 -13 -34   1   13.42    9.10
  13  34  -3   -5.46   11.19
 -13 -34  -3   10.02    9.75
 -13  34   3    3.96    7.80
  13 -34   3   -1.93    9.94
  13 -34   3   22.42    9.02
  13 -34  -3    1.54    7.92
 -13 -34   3    7.34    9.56
 -13  34  -3    3.78    8.69
  14 -34   0   24.43    8.58
 -14  34   0   18.57    8.24
 -14 -34   0   25.22    9.41
  14  34   0    8.43   10.09
  14 -34   0   14.90    8.77
  14  34  -2   15.40   11.01
  14 -34   2   28.12    9.40
  14 -34   2   14.38    9.88
 -14 -34  -2   27.73    9.63
 -14  34   2   15.51    8.05
  14 -34  -2   17.77    7.46
 -14  34  -2   21.32    8.74
  14 -34  -2   18.62    8.39
 -14 -34   2   17.71    9.35
  15 -34   1    2.18    8.96
 -15 -34  -1   13.95    9.39
  15 -34   1   10.09    9.06
 -15  34   1    6.12    8.05
 -15  34  -1    8.68    8.28
 -15 -34   1   11.79    9.24
  15 -34  -1    4.69    8.08
  15 -34  -1    1.59    8.35
  15 -34  -3    1.35    8.07
  16 -34   0   11.96    8.59
  16 -34   0    3.25    8.58
 -16  34   0    8.01    8.18
 -16 -34   0   11.55    9.39
  16 -34   2   21.57    9.74
 -16  34   2    8.57    8.11
  16 -34   2   14.16    9.68
  16 -34  -2   11.80    7.86
  16 -34  -2   10.19    8.27
 -16  34  -2   10.64    8.65
   0 -35  -1    5.27    8.29
   0  35  -1   -4.03    8.65
   0 -35   1   10.94    8.36
   0  35   1    1.41    8.00
   0  35  -3   15.21    9.36
   0 -35  -3   -2.54    8.65
   0  35   3   11.51    7.60
   0 -35   3   16.38    8.57
   0  35  -5   11.58    8.90
   0  35   5   16.24    7.06
   0 -35  -5   18.73    9.21
  -1  35   0   51.55    9.03
   1 -35   0   46.80    8.97
   1  35   0   44.81    9.30
  -1 -35   0   47.57    9.16
  -1  35   2   53.25    8.52
   1 -35   2   53.17    9.33
   1  35  -2   56.51   10.17
  -1 -35  -2   42.56    9.10
  -1  35  -2   52.50   10.11
  -1 -35   2   47.27    9.33
   1 -35  -2   52.11    9.20
   1  35   2   57.05    8.71
  -1  35   4   46.08    7.55
   1  35  -4   56.54   10.03
  -1 -35  -4   48.31    9.79
   1 -35   4   48.66    8.48
   1  35   4   44.88    7.89
   1 -35  -4   34.47    9.27
  -1 -35   4   52.35    8.50
  -1  35  -4   36.66    9.78
   1  35  -6   30.92    9.27
   1 -35  -6   28.22    9.78
  -1  35  -6   23.16    9.08
  -2  35   1    7.55    7.81
   2 -35   1    3.46    8.48
  -2 -35  -1    8.80    8.59
   2  35  -1   11.11    9.01
   2  35   1   13.70    8.26
  -2  35  -1    7.61    9.05
  -2 -35   1    4.94    8.48
   2 -35  -1   12.74    8.48
   2 -35   3   13.24    8.50
  -2 -35  -3   11.65    8.74
   2  35  -3    3.69    9.48
  -2  35   3    7.05    7.59
   2  35   3   16.23    7.58
  -2  35  -3   15.44    9.40
   2 -35  -3    5.23    8.52
  -2 -35   3   10.13    8.48
  -2  35   5   26.93    6.87
   2  35  -5   17.87    9.31
  -2 -35  -5   19.77    9.83
  -2  35  -5   14.00    9.10
   2 -35  -5    6.08    9.15
  -2 -35   5   11.69    7.19
  -3  35   0   62.87    9.62
   3 -35   0   47.97    9.04
  -3 -35   0   60.51    9.45
   3  35   0   62.72    9.61
  -3 -35  -2   51.14    9.34
   3  35  -2   53.01   10.23
   3 -35   2   59.69    9.46
  -3  35   2   44.58    8.24
  -3 -35   2   52.90    9.32
   3 -35  -2   47.79    8.94
  -3  35  -2   65.99   10.15
   3  35   2   47.49    8.50
   3  35  -4   34.48    9.72
   3 -35   4   46.42    8.37
  -3  35   4   33.03    7.78
  -3 -35  -4   38.47    9.46
   3 -35  -4   22.88    8.98
  -3  35  -4   22.69    9.64
  -3 -35   4   33.73    8.45
   3  35   4   30.21    7.76
  -4  35   1   11.31    8.12
   4  35  -1   13.61    9.32
   4 -35   1   16.99    8.48
  -4 -35  -1   13.38    8.61
  -4 -35   1    8.46    8.40
   4  35   1   12.58    8.42
   4 -35  -1   11.54    8.01
  -4  35  -1   16.45    9.09
   4 -35   3   20.41    8.62
   4  35  -3    2.42    9.40
  -4 -35  -3   13.28    8.99
  -4  35   3    8.64    7.45
  -4  35  -3    6.37    9.44
   4  35   3   10.74    7.80
   4 -35  -3    4.96    8.46
  -4 -35   3   10.30    8.50
   4  35  -5   10.07    9.16
  -4  35   5   14.53    7.18
  -4 -35  -5   12.17    9.67
   4 -35  -5    7.47    9.08
  -4 -35   5    5.62    7.49
  -4  35  -5   11.64    9.44
   5  35   0   41.35    9.33
   5 -35   0   41.39    8.92
  -5 -35   0   43.92    9.10
  -5  35   0   44.07    9.10
   5 -35   2   65.53    9.49
  -5  35   2   56.75    8.62
   5  35  -2   63.75   10.42
  -5 -35  -2   53.55    9.69
   5 -35  -2   53.19    9.00
  -5  35  -2   46.08   10.08
   5  35   2   52.85    9.07
  -5 -35   2   49.27    9.29
  -5  35   4   27.08    7.58
  -5 -35  -4   34.05    9.67
   5 -35   4   34.18    8.11
   5  35  -4   38.87    9.73
  -5 -35   4   30.45    8.66
  -5  35  -4   15.26    9.55
   5 -35  -4   12.35    8.65
   5  35   4   11.96    7.68
   6 -35   1   26.36    8.78
  -6  35   1    7.36    7.94
  -6 -35  -1   20.44    8.61
   6  35  -1    9.47    9.08
  -6  35  -1   12.91    8.85
  -6 -35   1   17.29    8.67
   6 -35  -1   16.74    8.16
   6  35   1   26.45    8.94
   6  35  -3   14.85    9.51
   6 -35   3    8.79    8.64
  -6  35   3   14.07    7.39
  -6 -35  -3   11.12    9.06
  -6 -35   3   12.60    8.62
  -6  35  -3    8.08    9.25
   6  35   3    4.31    7.86
   6 -35  -3    6.92    8.35
  -6 -35  -5   16.57   10.15
  -6  35   5   20.91    7.45
   6  35  -5   14.44   10.15
   6 -35  -5   11.94    8.97
  -6  35  -5   11.66    9.30
  -6 -35   5    5.54    7.89
  -7  35   0   31.77    8.86
   7 -35   0   34.08    8.60
   7  35   0   48.55    9.65
  -7 -35   0   32.18    8.89
   7 -35   2   51.44    9.31
  -7 -35  -2   52.42    9.42
  -7  35   2   46.70    8.37
   7  35  -2   47.07   10.22
  -7 -35   2   43.85    9.11
  -7  35  -2   39.77    9.68
   7 -35  -2   38.53    8.88
   7  35   2   46.05    9.04
   7  35  -4   28.62    9.95
  -7 -35  -4   24.20    9.82
  -7  35   4   31.86    7.58
   7 -35   4   28.72    8.07
   7 -35  -4   20.69    8.63
  -7 -35   4   25.03    8.67
  -7  35  -4    7.80    9.35
   8 -35   1    9.30    8.55
  -8  35   1    0.60    7.92
   8  35  -1    9.95    9.54
  -8 -35  -1    5.43    8.71
  -8  35  -1   14.44    8.88
  -8 -35   1    6.61    8.60
   8 -35  -1   11.53    8.33
   8  35   1    3.10    8.86
  -8  35   3    1.91    7.38
   8  35  -3   12.00    9.74
  -8 -35  -3    6.30    9.18
   8 -35   3   10.09    8.61
  -8  35  -3    8.87    9.12
   8 -35  -3   -0.67    7.94
  -8 -35   3   10.68    9.03
   8  35   3   -7.26    7.95
   8  35  -5   18.46   10.09
  -8 -35  -5   18.48   10.30
  -8  35   5   18.78    7.44
  -8  35  -5   10.76    9.34
  -8 -35   5    2.80    8.23
   8 -35  -5   -0.36    8.84
  -9 -35   0   24.98    8.80
   9 -35   0   31.45    8.63
  -9  35   0   24.35    8.48
   9  35   0   26.78    9.74
  -9  35   2   34.52    8.22
  -9 -35  -2   54.30    9.64
   9  35  -2   40.74   10.21
   9 -35   2   44.07    9.31
   9 -35  -2   37.33    8.39
   9  35   2   27.18    9.12
  -9  35  -2   33.20    9.49
  -9 -35   2   37.34    9.18
   9 -35   4   34.13    8.21
  -9 -35  -4   37.26   10.11
   9  35  -4   29.89   10.48
  -9  35   4   32.03    7.97
  -9  35  -4    7.70    9.21
   9 -35  -4   21.09    8.79
  -9 -35   4   33.04    9.20
  10 -35   1   11.04    8.80
 -10 -35  -1    7.43    8.67
  10  35  -1   16.24    9.95
 -10  35   1    3.93    8.02
  10 -35   1    7.87    8.49
 -10  35  -1    0.14    8.47
 -10 -35   1    8.63    8.66
  10 -35  -1    9.36    8.07
  10  35   1    7.77    9.12
  10 -35   3   14.30    8.86
 -10 -35  -3    9.56    9.39
 -10  35   3    2.49    7.65
  10  35  -3   12.79   10.47
  10 -35   3   -3.83    9.69
  10 -35  -3   -2.24    8.09
 -10  35  -3    0.11    8.91
 -10 -35   3   -0.08    8.96
 -11 -35   0   14.22    8.65
 -11  35   0    9.41    8.30
  11  35   0    7.48    9.61
  11 -35   0   15.35    8.25
  11 -35   0   19.45    8.53
  11 -35   2   15.29    9.74
 -11  35   2   11.02    7.81
 -11 -35  -2   24.77    9.34
  11 -35   2   30.50    9.28
  11  35  -2   21.85   10.43
 -11  35  -2   20.00    8.80
 -11 -35   2   29.81    9.38
  11 -35  -2   17.94    8.00
  11  35   2   -8.38    8.53
  11  35  -4   32.11   11.14
 -11  35   4   24.20    8.02
  11 -35   4   18.30   10.54
  11 -35   4   41.62    8.39
 -11 -35  -4   30.78   10.43
  11 -35  -4   13.32    8.58
 -11  35  -4   10.36    9.13
 -11 -35   4   20.34    9.57
  12  35  -1    7.89   10.34
 -12  35   1   -3.64    7.92
  12 -35   1    8.73    9.01
  12 -35   1    4.73    8.73
 -12 -35  -1   20.48    8.95
  12 -35  -1    5.56    7.50
 -12 -35   1    9.52    8.88
 -12  35  -1   15.92    8.52
  12 -35  -1    7.70    8.03
  12  35   1  -10.94    8.99
 -12 -35  -3   19.26    9.86
  12 -35   3   14.20    8.83
  12  35  -3    7.77   10.81
  12 -35   3    8.79   10.25
 -12  35   3    8.61    7.91
  12 -35  -3    0.13    8.09
 -12  35  -3    9.19    8.98
 -12 -35   3    3.76    9.48
 -13 -35   0   19.39    9.21
  13 -35   0   18.40    8.62
  13  35   0    6.75    9.76
 -13  35   0   18.83    8.35
  13 -35   0   21.28    8.96
  13 -35   2   17.35    9.09
 -13  35   2   14.74    8.03
  13 -35   2   13.69    9.85
  13  35  -2    5.88   10.84
 -13 -35  -2   27.68    9.75
 -13  35  -2   12.68    8.89
  13 -35  -2    7.85    8.33
  13 -35  -2   12.23    7.08
 -13 -35   2   29.74    9.48
 -14 -35  -1    9.52    9.22
  14  35  -1  -15.42   10.25
 -14  35   1   12.69    8.13
  14 -35   1   16.44    9.24
  14 -35   1    0.50    9.25
 -14  35  -1   -1.59    8.67
 -14 -35   1    5.82    9.29
  14 -35  -1   -2.22    8.32
  14 -35  -1    5.78    8.15
 -14  35   3   11.06    8.18
 -14  35  -3    1.98    8.85
  14 -35  -3   -2.73    8.28
  15 -35   0   10.07    8.97
  15 -35   0    7.20    8.70
 -15  35   0    7.38    8.49
 -15 -35   0   16.41    9.61
  15 -35   2   11.75    9.87
 -15 -35  -2   20.60    9.97
 -15  35   2    2.85    8.14
  15  35  -2  -13.85   10.95
  15 -35   2   20.16    9.68
  15 -35  -2    9.08    8.41
 -15  35  -2   10.31    8.68
  15 -35  -2    9.67    7.55
 -15 -35   2   11.32    9.92
   0  36   0   50.66    9.41
   0 -36   0   50.08    9.32
   0  36  -2   47.62    9.84
   0 -36  -2   50.82    9.27
   0  36   2   49.73    8.59
   0 -36   2   52.63    9.34
   0 -36  -4   28.81    9.47
   0  36  -4   26.66    9.47
   0  36   4   37.38    7.53
   0 -36   4   24.83    8.34
  -1 -36  -1    9.11    8.56
   1 -36   1   22.63    8.99
  -1  36   1   18.54    8.30
   1  36  -1   25.09    9.35
   1 -36  -1   16.63    8.44
   1  36   1   18.73    8.37
  -1 -36   1   19.55    8.72
  -1  36  -1   16.35    9.03
  -1 -36  -3   13.13    8.89
   1 -36   3   30.49    8.82
   1  36  -3   18.40    9.68
  -1  36   3   19.23    7.78
   1 -36  -3   19.73    8.90
   1  36   3   14.81    7.46
  -1  36  -3   14.50    9.59
  -1 -36   3    7.80    8.71
   1  36  -5   13.29    9.47
  -1  36   5   21.69    7.09
  -1 -36  -5   16.59    9.93
  -1  36  -5   19.58    9.27
   1 -36  -5   19.04    9.50
   2  36   0   54.67    9.63
  -2  36   0   60.69    9.43
   2 -36   0   59.86    9.41
  -2 -36   0   54.43    9.38
   2  36  -2   45.63   10.07
  -2 -36  -2   40.05    9.42
   2 -36   2   40.71    9.28
  -2  36   2   38.74    8.29
   2  36   2   41.26    8.55
   2 -36  -2   41.60    9.17
  -2  36  -2   41.34    9.99
  -2 -36   2   46.47    9.22
  -2  36   4   36.09    7.71
   2 -36   4   29.99    8.27
  -2 -36  -4   25.44    9.38
   2  36  -4   34.18    9.86
   2 -36  -4   23.96    9.14
  -2 -36   4   29.59    8.52
   2  36   4   33.04    7.72
  -2  36  -4   23.99    9.73
  -3  36   1   26.10    8.21
   3  36  -1   28.43    9.38
   3 -36   1   14.57    8.77
  -3 -36  -1   14.40    8.73
  -3  36  -1   10.30    9.12
   3 -36  -1   20.62    8.48
  -3 -36   1   15.97    8.76
   3  36   1   23.60    8.48
  -3  36   3   21.03    7.68
   3  36  -3   15.16    9.82
   3 -36   3   21.95    8.81
  -3 -36  -3   19.99    9.26
  -3 -36   3   20.91    8.90
   3 -36  -3   10.20    8.53
  -3  36  -3   17.40    9.51
   3  36   3   20.94    7.98
  -3 -36  -5   15.14    9.86
  -3  36   5   27.65    7.14
   3  36  -5   19.55    9.45
  -3 -36   5    9.18    7.51
   3 -36  -5    6.19    9.39
  -3  36  -5   13.08    9.18
   4  36   0   61.24    9.82
  -4 -36   0   63.00    9.56
  -4  36   0   61.46    9.55
   4 -36   0   60.34    9.47
  -4 -36  -2   47.38    9.61
  -4  36   2   40.99    8.33
   4 -36   2   55.12    9.71
   4  36  -2   50.90   10.26
  -4  36  -2   50.37   10.16
   4 -36  -2   51.60    9.03
   4  36   2   46.85    8.73
  -4 -36   2   54.48    9.47
   4 -36   4   34.56    8.31
  -4 -36  -4   33.70    9.91
   4  36  -4   32.43    9.92
  -4  36   4   38.56    7.78
  -4  36  -4   16.28    9.78
   4 -36  -4   26.15    9.20
  -4 -36   4   27.09    8.73
   4  36   4   19.76    7.80
  -5 -36  -1   13.48    8.72
  -5  36   1   21.29    8.12
   5  36  -1   19.27    9.22
   5 -36   1   17.25    8.56
   5  36   1   22.77    8.73
  -5 -36   1   17.73    8.79
  -5  36  -1   23.21    9.10
   5 -36  -1   13.70    8.20
  -5 -36  -3   14.97    9.37
   5  36  -3   10.30    9.87
   5 -36   3   14.20    8.74
  -5  36   3   20.43    7.59
   5  36   3   12.21    8.19
   5 -36  -3   14.01    8.49
  -5  36  -3   10.22    9.57
  -5 -36   3   11.42    8.79
  -5 -36  -5    6.02   10.07
  -5  36   5   20.71    7.39
   5  36  -5   14.49    8.88
  -5  36  -5    8.48    9.73
   5 -36  -5    3.11    9.32
  -5 -36   5    2.23    7.15
   6  36   0   25.37    9.23
   6 -36   0   23.88    8.58
  -6  36   0   18.15    8.65
  -6 -36   0   24.82    8.75
  -6 -36  -2   54.40    9.70
  -6  36   2   39.14    8.40
   6  36  -2   59.34   10.19
   6 -36   2   50.34    9.59
   6  36   2   57.19    9.18
  -6  36  -2   46.17    9.91
  -6 -36   2   52.55    9.48
   6 -36  -2   43.00    9.00
   6 -36   4   25.56    8.19
  -6 -36  -4   34.86   10.04
   6  36  -4   26.83    9.50
  -6  36   4   33.33    7.81
   6  36   4   -0.28    7.66
   6 -36  -4   18.49    8.90
  -6 -36   4   19.61    8.72
  -6  36  -4   20.42    9.72
  -7  36   1   17.40    8.15
   7 -36   1   21.00    8.90
   7  36  -1   15.89    9.51
  -7 -36  -1   16.15    8.87
  -7  36  -1   19.43    8.88
   7  36   1   16.15    8.86
   7 -36  -1   22.76    8.53
  -7 -36   1   18.47    8.81
   7 -36   3   17.88    8.89
  -7 -36  -3   13.70    9.32
   7  36  -3   24.24    9.94
  -7  36   3   16.44    7.81
  -7  36  -3    8.03    9.41
   7 -36  -3   16.51    8.49
  -7 -36   3   13.49    9.00
   7  36   3    6.88    8.18
  -7  36   5   22.24    7.71
  -7 -36  -5   12.69   10.31
   7  36  -5   18.88   10.11
   7 -36  -5    9.37    9.03
  -7  36  -5    6.93    9.45
  -7 -36   5   -2.09    7.49
   8 -36   0   15.68    8.35
  -8 -36   0   17.85    8.87
   8  36   0   14.09    9.43
  -8  36   0   17.88    8.57
   8  36  -2   33.97   10.31
  -8  36   2   32.57    8.17
   8 -36   2   36.44    9.23
  -8 -36  -2   32.82    9.38
   8  36   2   25.46    8.92
  -8 -36   2   34.29    9.18
   8 -36  -2   38.90    8.72
  -8  36  -2   29.18    9.47
  -8  36   4   26.87    7.86
  -8 -36  -4   12.05   10.03
   8  36  -4   29.64   10.27
   8 -36   4   18.31    8.13
  -8 -36   4   14.94    8.82
  -8  36  -4    8.76    9.51
   8 -36  -4   14.58    8.62
  -9  36   1    9.88    8.08
   9 -36   1   11.77    8.63
  -9 -36  -1   10.14    8.87
   9  36  -1   15.19    9.92
  -9  36  -1   11.21    8.75
   9  36   1   19.57    9.34
   9 -36  -1    9.76    8.13
  -9 -36   1   12.10    8.72
   9  36  -3   23.85   10.40
  -9 -36  -3    6.48    9.49
  -9  36   3    9.25    7.82
   9 -36   3   14.09    8.89
   9  36   3  -18.23    8.01
  -9 -36   3   10.47    9.30
   9 -36  -3    4.85    8.18
  -9  36  -3    8.21    9.20
 -10  36   0   22.22    8.44
  10  36   0   14.20    9.83
  10 -36   0   17.97    8.55
 -10 -36   0   15.10    8.87
  10 -36   2   30.32    9.47
  10  36  -2   39.14   10.78
 -10  36   2   19.69    8.18
 -10 -36  -2   35.15    9.57
  10  36   2   17.07    9.04
 -10  36  -2   22.64    9.28
 -10 -36   2   31.77    9.46
  10 -36  -2   29.86    8.48
  10  36  -4   24.08   10.98
 -10 -36  -4   33.00   10.38
 -10  36   4   25.74    8.28
  10 -36   4   31.81    8.45
 -10 -36   4   26.79    9.62
  10 -36  -4    6.42    8.91
 -10  36  -4    8.36    9.36
  11 -36   1    6.14    8.83
  11  36  -1   15.64   10.29
 -11 -36  -1   11.65    9.05
  11 -36   1   15.02    8.84
 -11  36   1    1.59    8.15
  11 -36  -1   12.96    8.20
 -11 -36   1   16.81    8.97
 -11  36  -1    1.61    8.70
  11  36   1   -0.55    9.43
  11 -36   3   12.65    9.07
 -11  36   3   10.25    8.07
  11  36  -3    6.08   10.77
  11 -36   3    5.31   10.12
 -11 -36  -3   15.77    9.85
 -11 -36   3    7.65    9.37
  11 -36  -3    0.94    8.33
 -11  36  -3    3.74    9.11
 -12 -36   0   29.51    9.27
  12 -36   0   19.47    8.62
  12 -36   0   23.81    8.82
  12  36   0    5.74   10.12
 -12  36   0   19.80    8.77
  12 -36   2   20.37    9.56
  12  36  -2   17.29   10.79
  12 -36   2    5.50    9.95
 -12  36   2   22.24    8.25
 -12 -36  -2   14.22    9.62
  12 -36  -2   14.39    8.18
 -12 -36   2   22.79    9.64
 -12  36  -2    6.46    8.87
  13 -36   1    7.16    9.30
 -13 -36  -1   21.69    9.26
  13  36  -1   -2.45   10.59
  13 -36   1    9.46    9.11
 -13  36   1    1.94    8.17
  13 -36  -1    3.65    8.42
 -13  36  -1    4.33    8.55
  13 -36  -1    3.47    7.77
  13  36   1  -11.80    9.77
 -13 -36   1    7.32    9.53
 -13  36   3   10.84    8.14
  13 -36   3   23.20    9.32
  13 -36  -3    7.60    8.53
 -13  36  -3    4.04    8.98
 -14  36   0    7.51    8.44
  14 -36   0    0.08    8.80
 -14 -36   0   13.80    9.51
  14 -36   0   11.36    8.86
  14  36   0  -18.37   10.30
  14 -36   2    4.00    9.95
 -14  36   2    8.42    8.32
 -14 -36  -2   20.82    9.88
  14 -36   2   17.46    9.44
  14  36  -2   -5.42   11.06
 -14  36  -2   -2.91    8.93
  14 -36  -2   17.16    8.72
  14 -36  -2   12.27    7.26
 -14 -36   2   13.60    9.73
  15 -36   1    8.85    9.54
 -15  36   1   11.79    8.37
  15 -36  -1    4.64    8.48
 -15  36  -1    1.71    8.75
   0 -37   1   26.05    8.95
   0  37  -1   29.49    9.55
   0  37   1   15.67    8.43
   0 -37  -1   16.52    8.73
   0 -37   3   14.72    8.91
   0 -37  -3   13.10    9.24
   0  37  -3   20.67    9.62
   0  37   3   22.10    7.89
   0 -37  -5   23.98   10.20
   0  37  -5   25.53    9.72
  -1  37   0   44.92    9.28
   1  37   0   47.14    9.43
  -1 -37   0   50.44    9.54
   1 -37   0   45.60    9.34
   1  37  -2   44.95   10.29
   1 -37   2   47.32    9.47
  -1  37   2   40.28    8.59
  -1 -37  -2   38.94    9.16
  -1  37  -2   50.98   10.04
  -1 -37   2   42.48    9.37
   1  37   2   49.49    8.79
   1 -37  -2   36.78    9.27
  -1 -37  -4   20.58    9.86
   1 -37   4   20.42    8.55
   1  37  -4   29.11   10.01
  -1  37   4   34.55    7.51
  -1  37  -4   22.58    9.71
   1  37   4   24.34    7.84
   1 -37  -4   21.87    9.32
  -1 -37   4   26.27    8.54
   2 -37   1   23.89    9.01
  -2  37   1   12.97    8.31
   2  37  -1   29.28    9.75
  -2 -37  -1   17.01    8.89
   2  37   1    7.42    8.42
   2 -37  -1   21.69    8.53
  -2 -37   1   12.39    8.84
  -2  37  -1   14.93    9.28
  -2 -37  -3   22.99    9.16
   2 -37   3   17.81    8.88
  -2  37   3   28.79    7.97
   2  37  -3   20.47    9.78
   2 -37  -3   16.18    8.65
  -2 -37   3   24.60    9.02
   2  37   3   28.59    7.93
  -2  37  -3   18.96    9.88
   2  37  -5   16.01    9.69
  -2 -37  -5   16.34    9.94
  -2  37   5   29.14    7.42
  -2  37  -5   23.47    9.68
   2 -37  -5   13.98    9.62
  -3  37   0   52.58    9.51
  -3 -37   0   58.92    9.46
   3 -37   0   54.44    9.19
   3  37   0   59.68    9.85
   3  37  -2   37.76   10.17
   3 -37   2   35.47    9.22
  -3 -37  -2   23.64    9.17
  -3  37   2   33.37    8.32
   3 -37  -2   27.54    8.82
   3  37   2   36.16    8.45
  -3 -37   2   35.62    9.23
  -3  37  -2   30.69    9.63
   3  37  -4   18.97    9.86
  -3  37   4   29.86    7.96
   3 -37   4   25.17    8.51
  -3 -37  -4   22.17    9.74
  -3 -37   4   15.00    8.75
   3  37   4   27.08    7.89
   3 -37  -4   13.76    9.08
  -3  37  -4   21.17    9.52
  -4 -37  -1   15.00    8.90
   4  37  -1   25.04    9.62
  -4  37   1   20.78    8.48
   4 -37   1   19.07    8.99
   4  37   1   23.15    8.57
  -4 -37   1   22.29    8.87
   4 -37  -1   27.27    8.64
  -4  37  -1   21.49    9.19
  -4 -37  -3   17.55    9.35
  -4  37   3   18.17    7.79
   4  37  -3   18.12    9.95
   4 -37   3   19.66    8.90
   4  37   3   19.32    8.07
   4 -37  -3    8.91    8.78
  -4 -37   3   17.11    8.96
  -4  37  -3    8.92    9.79
   4  37  -5   16.20    9.71
  -4 -37  -5   15.73   10.38
  -4  37   5   19.15    7.19
  -4  37  -5   19.63    9.93
   4 -37  -5   15.94    9.69
   5  37   0   25.77    9.01
   5 -37   0   18.44    8.70
  -5  37   0   20.55    8.76
  -5 -37   0   19.91    8.93
  -5 -37  -2   35.22    9.43
   5  37  -2   35.52   10.05
  -5  37   2   38.09    8.27
   5 -37   2   42.80    9.46
   5 -37  -2   33.61    8.90
   5  37   2   30.29    8.73
  -5  37  -2   35.15    9.78
  -5 -37   2   35.05    9.30
   5  37  -4   22.25   10.16
   5 -37   4   27.54    8.49
  -5 -37  -4   19.73   10.13
  -5  37   4   32.46    8.05
  -5 -37   4   20.61    9.05
  -5  37  -4   25.26   10.09
   5 -37  -4   14.10    9.06
   5  37   4   10.99    7.94
  -6 -37  -1   23.97    9.06
   6  37  -1   19.83    9.58
   6 -37   1   27.36    8.80
  -6  37   1   16.09    8.34
   6  37   1   33.05    9.21
  -6 -37   1   26.41    9.07
   6 -37  -1   23.43    8.51
  -6  37  -1   19.00    9.30
  -6  37   3   13.79    7.75
  -6 -37  -3   19.79    9.55
   6  37  -3   23.30    9.82
   6 -37   3   11.00    8.98
   6  37   3   15.71    8.38
   6 -37  -3   12.68    8.59
  -6  37  -3   12.55    9.69
  -6 -37   3   15.65    9.06
   7 -37   0   24.16    8.54
   7  37   0   13.96    9.58
  -7 -37   0   22.68    8.99
  -7  37   0   22.76    8.78
  -7  37   2   24.85    8.14
  -7 -37  -2   36.42    9.47
   7 -37   2   52.49    9.65
   7  37  -2   40.23   10.49
   7  37   2   41.73    9.25
   7 -37  -2   28.78    8.88
  -7 -37   2   28.91    9.19
  -7  37  -2   28.00    9.65
  -7  37   4   22.04    8.00
   7 -37   4   25.10    8.53
  -7 -37  -4   21.84   10.33
   7  37  -4   35.94   10.43
   7 -37  -4   10.01    8.91
  -7 -37   4   20.08    9.07
  -7  37  -4   13.79    9.71
   8  37  -1   18.93   10.05
  -8 -37  -1   18.01    9.04
  -8  37   1    7.94    8.27
   8 -37   1   21.38    9.05
  -8  37  -1   13.17    9.00
   8  37   1   18.33    9.33
  -8 -37   1   25.84    9.07
   8 -37  -1   13.43    8.47
   8  37  -3   20.04   10.36
  -8 -37  -3   20.59    9.65
   8 -37   3   29.51    9.42
  -8  37   3   16.87    8.07
   8 -37  -3   18.05    8.70
   8  37   3   -4.75    8.45
  -8 -37   3   21.30    9.70
  -8  37  -3    8.42    9.58
   9  37   0   15.52    9.92
  -9 -37   0   16.97    9.06
  -9  37   0   11.90    8.48
   9 -37   0   16.35    8.51
   9 -37   2   33.42    9.35
  -9 -37  -2   33.53    9.55
  -9  37   2   23.04    8.22
   9  37  -2   37.89   10.70
  -9 -37   2   28.79    9.45
   9  37   2   26.30    9.39
   9 -37  -2   25.42    8.64
  -9  37  -2   28.43    9.60
  -9 -37  -4   19.82   10.45
  -9  37   4   18.21    7.93
   9 -37   4   27.68    8.52
   9  37  -4   28.66   10.79
   9 -37  -4   13.87    8.87
  -9  37  -4   10.44    9.62
  -9 -37   4   15.87    9.55
 -10  37   1   10.40    8.28
  10 -37   1   13.70    8.80
  10  37  -1   19.35   10.30
 -10 -37  -1   10.43    9.14
  10 -37  -1   13.07    8.52
 -10 -37   1   11.08    8.96
  10  37   1    5.00    9.51
 -10  37  -1    9.20    8.83
  10  37  -3   20.14   11.20
 -10 -37  -3    9.29   10.00
  10 -37   3   13.96    9.26
 -10  37   3   11.86    8.06
 -10  37  -3   11.81    9.44
 -10 -37   3   16.23    9.65
  10 -37  -3    8.86    8.54
 -11  37   0    8.87    8.46
  11  37   0    3.66    9.98
  11 -37   0   14.54    8.83
 -11 -37   0   19.65    9.15
  11 -37   2    2.72    9.57
 -11 -37  -2   19.18    9.57
  11 -37   2   14.90    9.66
  11  37  -2   13.63   10.96
 -11  37   2   17.10    8.16
 -11 -37   2   14.42    9.69
  11 -37  -2    5.81    8.23
  11  37   2   -5.48    9.06
 -11  37  -2   21.27    9.35
 -12 -37  -1   15.12    9.36
  12 -37   1   -1.21    9.13
  12  37  -1   -1.91   11.04
  12 -37   1   13.62    9.16
 -12  37   1   13.09    8.29
 -12 -37   1   13.66    9.39
 -12  37  -1    6.72    8.93
  12 -37  -1    5.93    8.51
  12  37   1   -8.48    9.58
  12 -37  -3   12.79    8.73
 -13 -37   0   19.93    9.63
  13 -37   0   14.17    9.07
 -13  37   0   10.11    8.56
  13 -37   0   11.33    8.63
  13  37   0   -7.93   10.06
 -13  37   2    7.66    8.32
  13 -37   2   21.19    9.89
 -13 -37  -2   11.43    9.86
  13  37  -2   -4.39   11.47
  13 -37   2    9.22   10.27
 -13 -37   2   19.89    9.89
 -13  37  -2    3.99    9.03
  13 -37  -2   14.37    8.39
  14 -37   1   18.89    9.64
 -14  37   1    6.28    8.40
 -14 -37   1   12.08    9.86
 -14  37  -1   10.94    8.86
  14 -37  -1    4.29    8.59
   0 -38   0   31.80    9.22
   0  38   0   30.28    8.99
   0 -38  -2   32.25    9.00
   0  38  -2   31.86    9.99
   0  38   2   30.77    8.48
   0 -38   2   37.00    9.42
   0  38   4   22.14    7.67
   0 -38  -4   13.87    9.73
   0  38  -4   16.88    9.88
   0 -38   4   14.28    8.56
  -1 -38  -1   38.77    9.21
   1  38  -1   25.76    9.61
  -1  38   1   32.44    8.71
   1 -38   1   35.88    9.34
   1  38   1   42.58    8.86
   1 -38  -1   19.77    8.78
  -1  38  -1   29.93    9.36
  -1 -38   1   38.23    9.16
  -1 -38  -3   25.72    9.15
  -1  38   3   17.09    8.10
   1 -38   3   22.05    9.23
   1  38  -3   18.20    9.98
  -1  38  -3   27.48    9.85
   1 -38  -3   24.91    9.25
  -1 -38   3   26.06    9.37
   1  38   3   19.31    7.83
  -2 -38   0   39.70    9.23
   2  38   0   34.91    9.45
  -2  38   0   31.74    8.95
   2 -38   0   34.72    9.12
   2  38  -2   20.52    9.91
  -2 -38  -2   25.51    9.24
   2 -38   2   18.24    9.22
  -2  38   2   27.15    8.21
  -2 -38   2   19.57    9.22
   2 -38  -2   23.16    8.98
   2  38   2   28.50    8.45
  -2  38  -2   18.11    9.70
  -2 -38  -4   22.44    9.78
   2 -38   4   17.08    8.58
   2  38  -4   17.71   10.13
  -2  38   4   17.99    7.93
  -2 -38   4   23.90    8.78
  -2  38  -4   18.58   10.01
   2  38   4   20.96    7.94
   2 -38  -4    6.89    9.08
   3  38  -1   37.98    9.76
   3 -38   1   33.56    9.24
  -3 -38  -1   31.56    9.10
  -3  38   1   34.32    8.47
  -3 -38   1   30.88    9.22
   3  38   1   30.66    8.90
  -3  38  -1   37.86    9.74
   3 -38  -1   26.14    8.96
   3  38  -3   22.69   10.26
  -3  38   3   20.77    8.21
   3 -38   3   28.16    9.34
  -3 -38  -3   34.66    9.61
   3 -38  -3   18.69    8.82
  -3 -38   3   24.92    9.39
  -3  38  -3   28.08    9.91
   3  38   3   31.30    8.41
  -4  38   0   35.23    9.18
   4 -38   0   33.57    8.87
   4  38   0   41.53    9.46
  -4 -38   0   37.26    9.35
  -4 -38  -2   34.09    9.44
   4  38  -2   40.32   10.20
  -4  38   2   26.07    8.10
   4 -38   2   29.96    9.54
  -4  38  -2   18.81    9.75
   4 -38  -2   25.35    8.62
   4  38   2   25.19    8.56
  -4 -38   2   38.13    9.48
  -4  38   4   26.44    8.05
   4 -38   4   22.26    8.61
  -4 -38  -4    9.16   10.02
   4  38  -4   23.48   10.22
  -4  38  -4   14.36   10.07
   4 -38  -4   17.63    9.31
  -4 -38   4   14.20    9.08
   4  38   4   18.15    7.90
   5 -38   1   36.98    9.20
   5  38  -1   29.99    9.84
  -5 -38  -1   30.24    9.21
  -5  38   1   30.15    8.72
   5  38   1   33.45    9.10
   5 -38  -1   20.21    8.53
  -5 -38   1   31.79    9.25
  -5  38  -1   28.31    9.42
   5 -38   3   23.59    9.33
  -5 -38  -3   21.13    9.68
  -5  38   3   19.73    8.02
   5  38  -3   21.90    9.89
  -5  38  -3   25.53    9.93
   5 -38  -3    9.56    8.72
  -5 -38   3   21.16    9.30
   5  38   3   15.98    8.50
  -6 -38   0   18.85    9.01
  -6  38   0   17.74    8.82
   6  38   0   25.64    9.46
   6 -38   0   11.62    8.72
   6  38  -2   25.12   10.08
   6 -38   2   35.58    9.49
  -6  38   2   22.40    8.30
  -6 -38  -2   27.04    9.56
  -6 -38   2   25.89    9.38
   6  38   2   27.87    9.21
   6 -38  -2   24.12    8.78
  -6  38  -2   23.11    9.80
   6 -38   4   24.34    8.65
  -6  38   4   22.67    7.92
  -6 -38  -4   12.90   10.19
   6  38  -4   16.27    9.82
   6 -38  -4   15.66    9.21
   6  38   4   -6.10    7.95
  -6 -38   4   12.52    9.30
  -6  38  -4   12.50   10.20
  -7  38   1   20.12    8.40
  -7 -38  -1   23.64    9.09
   7 -38   1   19.46    9.05
   7  38  -1   24.16    9.79
   7 -38  -1   18.93    8.44
   7  38   1   24.02    9.26
  -7 -38   1   18.16    9.13
  -7  38  -1   18.76    9.34
   7  38  -3   30.86   10.55
  -7  38   3   25.67    8.01
   7 -38   3   23.67    9.41
  -7 -38  -3   22.14    9.86
  -7  38  -3   14.89    9.78
   7 -38  -3   17.16    8.87
   7  38   3    5.76    8.61
  -7 -38   3   17.96    9.64
  -8  38   0   10.96    8.90
  -8 -38   0    8.36    8.97
   8  38   0   11.96    9.66
   8 -38   0    9.35    8.46
   8  38  -2   21.84   10.71
  -8  38   2   16.87    8.16
   8 -38   2   24.20    9.46
  -8 -38  -2   21.01    9.61
  -8 -38   2   18.61    9.38
   8  38   2   23.56    9.15
   8 -38  -2   20.36    8.66
  -8  38  -2   16.47    9.51
  -8  38   4   17.13    7.98
   8 -38  -4   17.56    9.21
   9 -38   1   17.98    9.26
   9  38  -1   17.51   10.48
  -9 -38  -1   13.53    9.28
  -9  38   1   12.45    8.56
   9 -38  -1    6.65    8.53
  -9  38  -1    5.28    8.98
  -9 -38   1   16.17    9.17
   9  38   1   12.07    9.68
  -9 -38  -3   11.01    9.84
   9  38  -3   12.66   10.87
   9 -38   3   27.30    9.77
  -9  38   3   12.22    8.16
   9  38   3  -22.43    8.52
   9 -38  -3    5.83    8.63
  -9 -38   3   17.63    9.98
  -9  38  -3    3.69    9.65
 -10 -38   0    2.49    9.09
  10  38   0    6.88   10.24
  10 -38   0   -0.29    8.65
 -10  38   0    9.24    8.51
  10  38  -2   20.09   11.27
 -10 -38  -2   22.66    9.77
  10 -38   2   23.82    9.52
 -10  38   2   14.59    8.31
 -10  38  -2   15.98    9.57
  10 -38  -2    9.81    8.60
 -10 -38   2   18.13    9.81
  10  38   2   -1.52    9.11
  11 -38   1   14.36    9.13
  11  38  -1   22.48   10.84
 -11  38   1   21.98    8.75
 -11 -38  -1   24.52    9.62
  11 -38  -1   13.57    8.81
  11  38   1   -0.93    9.98
 -11 -38   1   27.09    9.57
 -11  38  -1   20.68    9.44
 -12 -38   0   15.46    9.39
  12 -38   0   13.53    9.14
 -12  38   0   17.97    8.90
  12  38   0   -2.46   10.62
  12 -38   2   14.47   10.06
  12  38  -2    4.32   11.03
 -12  38   2   11.86    8.37
 -12 -38  -2   26.32   10.09
  12 -38  -2    0.00    8.33
 -12 -38   2   14.37   10.00
 -12  38  -2   10.16    9.43
 -13  38   1   16.20    8.63
  13 -38   1   10.19    9.53
 -13  38  -1    5.09    9.30
  13 -38  -1   13.04    8.91
   0  39  -1   48.73   10.12
   0 -39  -1   35.95    9.30
   0  39   1   48.82    9.31
   0 -39   1   47.30    9.58
   0 -39   3   26.62    9.51
   0  39  -3   23.12   10.29
   0 -39  -3   18.71    9.27
   0  39   3   28.03    8.49
  -1 -39   0   28.77    9.20
   1  39   0   37.93    9.56
   1 -39   0   22.17    9.12
  -1  39   0   34.49    9.42
   1 -39   2   23.52    9.47
   1  39  -2   34.88   10.29
  -1 -39  -2   34.93    9.47
  -1  39   2   26.95    8.63
   1  39   2   34.34    8.68
   1 -39  -2   27.23    8.95
  -1 -39   2   27.08    9.38
  -1  39  -2   22.70    9.75
   1  39  -4   11.75   10.19
  -1 -39  -4    8.21    9.69
  -1  39   4   11.81    7.80
   1 -39   4   17.88    8.96
  -1 -39   4   18.25    8.87
   1 -39  -4    6.01    9.88
  -1  39  -4    5.61    9.81
   1  39   4   18.71    7.92
  -2  39   1   39.73    8.93
  -2 -39  -1   36.60    9.42
   2 -39   1   32.76    9.57
   2  39  -1   36.38    9.99
   2  39   1   31.54    9.09
  -2 -39   1   37.01    9.47
   2 -39  -1   29.51    8.93
  -2  39  -1   36.65    9.49
   2 -39   3   40.06    9.62
  -2  39   3   34.23    8.51
   2  39  -3   28.58   10.53
  -2 -39  -3   36.16    9.97
   2  39   3   46.15    8.51
  -2  39  -3   33.86   10.31
   2 -39  -3   26.21    9.51
  -2 -39   3   37.45    9.76
   3 -39   0   31.73    9.19
   3  39   0   48.31    9.62
  -3 -39   0   33.80    9.22
  -3  39   0   34.35    9.02
  -3  39   2   21.63    8.30
   3  39  -2   15.87    9.93
   3 -39   2   25.97    9.55
  -3 -39  -2   16.06    9.53
   3  39   2   22.96    8.58
  -3  39  -2   17.44    9.98
   3 -39  -2   20.92    9.11
  -3 -39   2   23.24    9.43
   3 -39   4   23.45    8.86
  -3  39   4   18.03    8.02
   3  39  -4    8.69   10.10
  -3 -39  -4   17.82   10.30
  -3 -39   4   11.56    9.09
   3  39   4    5.88    7.84
   3 -39  -4    8.49    9.37
  -3  39  -4   12.68   10.27
  -4 -39  -1   32.48    9.19
   4  39  -1   35.87   10.09
  -4  39   1   30.31    8.61
   4 -39   1   37.65    9.46
  -4  39  -1   25.83    9.53
   4  39   1   32.92    9.08
   4 -39  -1   37.96    9.16
  -4 -39   1   32.30    9.32
   4  39  -3   32.58   10.59
  -4 -39  -3   29.73   10.26
   4 -39   3   31.05    9.64
  -4  39   3   25.64    8.31
  -4 -39   3   32.70    9.62
  -4  39  -3   19.34    9.96
   4 -39  -3   13.98    8.93
   4  39   3   27.55    8.66
  -5  39   0   21.67    8.85
   5  39   0   26.84    9.44
   5 -39   0   18.76    8.86
  -5 -39   0   17.06    9.07
  -5  39   2   25.93    8.29
  -5 -39  -2   19.40    9.46
   5 -39   2   31.98    9.77
   5  39  -2   21.88   10.09
   5 -39  -2   19.01    8.60
  -5  39  -2   25.34    9.89
  -5 -39   2   29.16    9.58
   5  39   2   21.32    8.86
  -5 -39  -4   12.24   10.43
  -5  39   4   28.27    8.29
   5  39  -4    6.99    9.77
   5 -39   4   15.25    8.75
   5 -39  -4    8.31    9.35
  -5  39  -4   10.25   10.16
  -5 -39   4    5.78    9.47
   5  39   4   -1.52    8.12
   6 -39   1   33.34    9.41
   6  39  -1   37.92   10.07
  -6  39   1   30.52    8.76
  -6 -39  -1   31.24    9.59
  -6  39  -1   26.71    9.41
   6  39   1   33.31    9.66
  -6 -39   1   34.90    9.60
   6 -39  -1   29.81    8.59
  -6 -39  -3   35.45   10.23
   6  39  -3   38.69   10.70
   6 -39   3   32.68    9.73
  -6  39   3   39.79    8.48
  -6  39  -3   23.27   10.27
  -6 -39   3   41.03    9.96
   6  39   3   25.52    8.90
   6 -39  -3   19.48    9.09
  -7 -39   0    9.73    8.97
   7  39   0   27.15    9.94
   7 -39   0   10.08    8.93
  -7  39   0   18.17    8.81
  -7 -39  -2   20.69    9.66
  -7  39   2   21.52    8.45
   7  39  -2   21.31   10.57
   7 -39   2   19.71    9.65
   7 -39  -2   19.73    8.80
  -7  39  -2   12.22    9.72
  -7 -39   2   10.14    9.47
   7  39   2   16.15    9.18
  -8 -39  -1   22.37    9.55
   8  39  -1   38.16   10.48
  -8  39   1   27.75    8.82
   8 -39   1   24.01    9.50
   8 -39  -1   25.29    8.81
  -8 -39   1   29.94    9.56
  -8  39  -1   29.75    9.68
   8  39   1   35.52    9.96
   8  39  -3   36.59   11.13
  -8  39   3   27.70    8.44
   8 -39   3   26.76    9.87
  -8 -39  -3   33.70   10.37
  -8  39  -3   25.56   10.15
   8 -39  -3   16.60    9.32
   8  39   3    2.67    8.86
  -8 -39   3   35.01   10.45
   9  39   0   13.24   10.34
   9 -39   0   12.09    8.72
  -9 -39   0   10.47    9.34
  -9  39   0   12.58    8.77
  -9  39   2   20.04    8.33
  -9 -39  -2   20.48    9.84
   9 -39   2   23.63    9.83
   9  39  -2   14.81   10.88
   9  39   2    1.61    9.51
  -9  39  -2    7.44    9.64
  -9 -39   2   14.80    9.80
   9 -39  -2   15.76    8.86
  10  39  -1   25.67   10.97
 -10 -39  -1   26.60    9.84
  10 -39   1   17.11    9.67
 -10  39   1   16.82    8.70
 -10  39  -1   19.93    9.36
  10  39   1   16.92   10.08
 -10 -39   1   14.04    9.53
  10 -39  -1   12.81    8.97
  11  39   0    3.62   10.66
  11 -39   0    7.18    9.07
 -11 -39   0   14.32    9.38
 -11  39   0    7.12    8.87
 -11  39   2    9.82    8.53
 -11  39  -2    2.35    9.47
  11 -39  -2   14.08    8.83
   0  40   0   19.71    9.23
   0 -40   0   16.15    9.23
   0 -40  -2   20.97    9.34
   0 -40   2   25.83    9.70
   0  40  -2   17.35   10.11
   0  40   2   19.88    8.70
   0  40   4   13.45    7.80
   0 -40   4   14.85    9.00
   0 -40  -4    3.14   10.06
   0  40  -4   15.16   10.38
  -1 -40  -1   37.59    9.55
   1  40  -1   35.00    9.99
   1 -40   1   37.90    9.63
  -1  40   1   32.01    8.87
  -1  40  -1   45.48   10.11
   1 -40  -1   23.80    9.41
   1  40   1   32.41    9.19
  -1 -40   1   38.28    9.57
   1  40  -3   36.79   10.71
  -1  40   3   40.81    8.90
  -1 -40  -3   34.03    9.99
   1 -40   3   35.99   10.09
   1  40   3   42.35    8.65
  -1  40  -3   35.85   10.34
   1 -40  -3   31.04    9.87
  -1 -40   3   42.31   10.10
   2  40   0    9.36    9.27
  -2  40   0   20.97    9.05
  -2 -40   0    5.91    9.09
   2 -40   0   18.78    8.97
   2 -40   2   20.86    9.57
  -2  40   2   17.76    8.55
   2  40  -2   13.08   10.33
  -2 -40  -2   13.24    9.45
   2 -40  -2   22.22    9.35
  -2 -40   2   16.54    9.64
   2  40   2   25.90    8.52
  -2  40  -2   10.30    9.86
  -2  40   4   24.87    8.32
  -2  40  -4    7.10    9.98
   2  40   4   20.30    8.39
  -3 -40  -1   30.47    9.48
   3 -40   1   33.56    9.70
  -3  40   1   34.98    8.92
   3  40  -1   43.32   10.21
   3 -40  -1   32.09    9.00
  -3 -40   1   35.41    9.52
  -3  40  -1   27.17    9.67
   3  40   1   32.26    9.22
   3  40  -3   48.70   10.98
   3 -40   3   43.78   10.06
  -3 -40  -3   50.14   10.40
  -3  40   3   52.78    8.99
   3  40   3   50.17    9.16
  -3  40  -3   32.17   10.69
  -3 -40   3   52.45   10.32
   3 -40  -3   34.91    9.81
  -4  40   0   15.07    9.08
  -4 -40   0   21.23    9.39
   4 -40   0   18.95    9.13
   4  40   0   25.48    9.43
  -4  40   2   14.82    8.51
   4  40  -2   28.33   10.47
   4 -40   2   31.21    9.85
  -4 -40  -2   15.75    9.63
  -4  40  -2   14.25   10.02
   4 -40  -2   13.71    9.09
  -4 -40   2   25.30    9.76
   4  40   2   28.39    8.93
   5 -40   1   33.31    9.71
   5  40  -1   38.70   10.47
  -5 -40  -1   34.69    9.50
  -5  40   1   25.12    8.82
   5  40   1   40.31    9.46
  -5  40  -1   32.36    9.76
  -5 -40   1   27.95    9.63
   5 -40  -1   24.22    9.36
   5 -40   3   45.07   10.02
  -5  40   3   34.49    8.76
   5  40  -3   38.83   10.75
  -5 -40  -3   43.29   10.60
   5  40   3   42.04    9.20
  -5  40  -3   34.44   10.69
  -5 -40   3   47.62   10.36
   5 -40  -3   30.95    9.47
   6 -40   0   25.77    9.35
  -6  40   0   26.28    9.04
  -6 -40   0   18.39    9.43
   6  40   0   18.95    9.78
   6 -40   2   18.46   10.02
  -6 -40  -2   26.14    9.76
  -6  40   2   16.80    8.32
   6  40  -2   24.76   10.54
  -6 -40   2   23.91    9.86
   6 -40  -2   19.31    8.83
  -6  40  -2   19.23    9.94
   6  40   2   22.95    9.56
   7  40  -1   24.72   10.43
  -7  40   1   15.75    8.63
  -7 -40  -1   12.32    9.36
   7 -40   1   22.42    9.45
   7 -40  -1   26.20    8.75
   7  40   1   24.33    9.84
  -7 -40   1   17.29    9.55
  -7  40  -1   17.36    9.53
  -7  40   3   33.90    8.50
   7 -40   3   42.11   10.21
   7  40  -3   49.40   11.41
   7  40   3   18.42    9.17
  -7  40  -3   26.67   10.69
   7 -40  -3   29.70    9.45
  -7 -40   3   32.14   10.44
   8 -40   0    6.83    9.06
  -8 -40   0   17.35    9.64
  -8  40   0    7.78    9.00
   8  40   0   29.96   10.37
   8  40  -2    8.84   11.06
  -8 -40  -2   13.90    9.73
   8 -40   2    9.36   10.02
  -8  40   2   16.68    8.46
   8 -40  -2    9.77    8.99
   8  40   2   10.71    9.38
  -8 -40   2   15.75    9.86
  -8  40  -2   12.07    9.99
  -9 -40  -1   10.08    9.63
  -9  40   1   16.78    8.72
   9 -40   1    9.40    9.74
   9  40  -1    7.08   10.89
   9  40   1   12.81   10.08
  -9  40  -1    7.48    9.42
   9 -40  -1    6.77    8.78
  -9 -40   1    6.97    9.50
 -10  40   0    1.54    8.81
  10 -40   0    6.43    9.02
 -10 -40   0    9.81    9.76
  10  40   0    5.00   10.46
   0 -41   1   46.81   10.09
   0  41  -1   51.18   10.39
   0  41   1   46.99    9.56
   0 -41  -1   54.15    9.93
   0 -41  -3   41.60   10.08
   0 -41   3   44.79   10.52
   0  41   3   42.27    9.13
   0  41  -3   42.88   11.05
   1  41   0   12.65    9.35
   1 -41   0   15.20    9.46
  -1 -41   0   15.11    9.28
  -1  41   0   14.95    9.19
  -1 -41  -2   11.13    9.56
  -1  41   2   16.18    8.68
   1 -41   2   13.69    9.85
   1  41  -2   17.31   10.33
   1 -41  -2   18.58    9.48
   1  41   2   14.23    8.68
  -1 -41   2   14.56    9.78
  -1  41  -2   11.11   10.09
   2  41  -1   45.43   10.53
   2 -41   1   52.52   10.08
  -2 -41  -1   57.02   10.10
  -2  41   1   41.72    9.31
  -2  41  -1   42.29   10.16
   2  41   1   51.50    9.59
   2 -41  -1   43.49    9.71
  -2 -41   1   44.63   10.14
  -2  41   3   51.91    9.21
   2  41  -3   50.54   11.23
   2 -41   3   55.12   10.53
  -2 -41  -3   53.82   10.69
  -2  41  -3   39.43   10.84
   2 -41  -3   51.56   10.32
   2  41   3   39.91    8.91
  -2 -41   3   45.76   10.47
  -3 -41   0   12.84    9.38
  -3  41   0   20.29    9.09
   3 -41   0   18.12    9.30
   3  41   0   19.64    9.47
  -3  41   2   12.17    8.54
   3  41  -2   17.16   10.42
  -3 -41  -2   17.98    9.66
   3 -41   2   18.29   10.03
  -3 -41   2    9.45    9.91
  -3  41  -2   15.30   10.08
   3  41   2   17.15    8.97
   3 -41  -2    0.12    9.26
  -4  41   1   21.61    8.76
  -4 -41  -1   34.22    9.91
   4 -41   1   34.94    9.87
   4  41  -1   33.73   10.28
  -4  41  -1   33.35   10.26
   4  41   1   37.17    9.61
  -4 -41   1   39.78    9.93
   4 -41  -1   33.81    9.52
   4 -41   3   58.88   10.60
  -4  41   3   54.51    9.30
  -4 -41  -3   51.04   10.85
   4  41  -3   53.87   11.47
  -4 -41   3   45.72   10.49
  -4  41  -3   39.91   10.91
   4  41   3   61.96    9.82
   4 -41  -3   51.65   10.13
   5  41   0    5.99    9.65
  -5  41   0    4.30    9.12
  -5 -41   0    5.13    9.16
   5 -41   0    1.88    8.91
   5  41  -2   10.30   10.46
  -5  41   2   20.34    8.55
  -5 -41  -2   18.23    9.76
   5 -41   2   14.76   10.07
   5  41   2   10.40    9.12
  -5  41  -2   14.15   10.01
   5 -41  -2   10.56    9.38
  -5 -41   2   11.72    9.93
   6 -41   1   36.44   10.06
  -6  41   1   35.68    9.27
   6  41  -1   37.72   10.67
  -6 -41  -1   30.33    9.88
   6 -41  -1   24.81    9.47
  -6  41  -1   28.65    9.93
  -6 -41   1   29.60   10.04
   6  41   1   26.86    9.83
   7 -41   0    9.19    9.36
   7  41   0   14.86   10.18
  -7  41   0   15.19    9.19
  -7 -41   0    8.92    9.61
  -7  41   2   12.53    8.52
  -7 -41  -2   11.12   10.03
   7  41  -2    5.19   10.79
   7 -41   2   20.92   10.16
  -7 -41   2    6.50    9.87
  -7  41  -2   11.95   10.09
   7 -41  -2    2.32    8.87
   7  41   2   11.71    9.51
  -8 -41  -1   18.92   10.03
  -8  41   1   21.82    8.92
   8 -41   1   27.96    9.82
   8  41  -1   38.13   10.93
  -8  41  -1   22.57    9.81
   8  41   1   29.53   10.30
  -8 -41   1   35.03   10.14
   8 -41  -1   16.93    9.00
   9 -41   0    4.98    9.36
  -9  41   0   -2.08    8.98
   9  41   0   10.03   10.44
  -9 -41   0    4.75    9.81
   0  42   0    4.35    9.53
   0 -42   0   14.06    9.37
   0 -42   2   14.89   10.03
   0  42  -2   15.82   10.43
   0 -42  -2   12.59    9.75
   0  42   2   11.98    8.97
   1  42  -1   48.21   10.86
  -1 -42  -1   54.24   10.17
   1 -42   1   42.84   10.40
  -1  42   1   52.67    9.91
  -1 -42   1   54.40   10.41
   1  42   1   46.83    9.93
   1 -42  -1   52.80    9.99
  -1  42  -1   43.52   10.47
  -2 -42   0    8.51    9.40
   2 -42   0    7.51    9.44
   2  42   0    8.65    9.70
  -2  42   0   11.68    9.37
  -2 -42  -2   19.26   10.12
   2  42  -2   10.24   10.62
   2 -42   2   17.17   10.06
  -2  42   2    9.51    8.73
  -2 -42   2   10.53   10.12
  -2  42  -2    7.88    9.99
   2 -42  -2    6.96    9.40
   2  42   2   21.57    8.92
  -3  42   1   43.42    9.51
   3 -42   1   39.92   10.40
   3  42  -1   46.82   10.93
  -3 -42  -1   44.94   10.20
   3 -42  -1   43.76    9.92
  -3 -42   1   37.86   10.11
  -3  42  -1   39.37   10.25
   3  42   1   45.24    9.72
   4  42   0   12.75    9.62
   4 -42   0   13.46    9.52
  -4  42   0   14.91    9.11
  -4 -42   0    3.88    9.66
   4 -42   2   18.32   10.36
  -4 -42  -2    8.27    9.88
   4  42  -2   10.31   10.57
  -4  42   2   10.07    8.71
  -4 -42   2   17.54   10.13
   4  42   2   19.81    9.39
  -4  42  -2   11.76   10.54
   4 -42  -2    7.99    9.37
  -5 -42  -1   42.55   10.23
  -5  42   1   32.10    9.26
   5 -42   1   48.81   10.53
   5  42  -1   46.04   10.94
  -5 -42   1   35.24   10.22
  -5  42  -1   35.87   10.46
   5 -42  -1   39.36   10.06
   5  42   1   45.27   10.16
   6  42   0   16.06   10.16
  -6 -42   0    6.87    9.77
   6 -42   0   13.52    9.44
  -6  42   0   12.74    9.39
  -7  42   1   37.79    9.49
  -7  42  -1   28.79   10.03
   0  43  -1   45.43   10.79
   0 -43   1   56.66   10.67
   0 -43  -1   52.62   10.72
   0  43   1   49.93   10.01
   1  43   0    5.73    9.71
  -1 -43   0    3.60    9.82
  -1  43   0    5.54    9.51
   1 -43   0   -0.42    9.63
   2  43  -1   56.06   11.15
  -2 -43  -1   49.44   10.64
   2 -43   1   61.32   10.88
  -2  43   1   48.37    9.79
   2 -43  -1   55.91   10.40
  -2 -43   1   48.61   10.68
  -2  43  -1   49.44   10.74
   2  43   1   63.37   10.27
   3  43   0   12.92    9.98
   3 -43   0    8.03    9.72
  -3 -43   0    8.78    9.91
  -3  43   0    2.10    9.36
   4  43  -1   47.23   10.94
  -4  43   1   36.31    9.59
   4 -43   1   42.91   10.75
   4  43   1   41.20   10.19
  -4  43  -1   37.08   10.44
   4 -43  -1   42.77    9.65
  -5  43   0    4.60    9.24
   0   0   0    0.00    0.00
;
_shelx_hkl_checksum              46020
loop_
_space_group_symop_operation_xyz
'x, y, z'
'-x, -y, z'
'-x+1/2, y, z'
'x+1/2, -y, z'
'x+1/2, y+1/2, z+1/2'
'-x+1/2, -y+1/2, z+1/2'
'-x+1, y+1/2, z+1/2'
'x+1, -y+1/2, z+1/2'
loop_
_atom_site_label
_atom_site_type_symbol
_atom_site_fract_x
_atom_site_fract_y
_atom_site_fract_z
_atom_site_U_iso_or_equiv
_atom_site_adp_type
_atom_site_occupancy
_atom_site_site_symmetry_order
_atom_site_calc_flag
_atom_site_refinement_flags_posn
_atom_site_refinement_flags_adp
_atom_site_refinement_flags_occupancy
_atom_site_disorder_assembly
_atom_site_disorder_group
C1 C 0.7500 0.1786(11) 0.519(7) 0.054(9) Uani 1 2 d S TU P . .
C2 C 0.7500 0.1368(6) 0.505(5) 0.064(10) Uani 1 2 d DGS TU P . .
C3 C 0.7500(10) 0.1159(9) 0.654(4) 0.114(15) Uani 1 2 d DG TU P . .
H3 H 0.7500 0.1293 0.7574 0.137 Uiso 1 2 calc R U P . .
C4 C 0.7500(10) 0.0753(9) 0.651(4) 0.116(16) Uani 1 2 d DG TU P . .
H4 H 0.7500 0.0610 0.7523 0.140 Uiso 1 2 calc R U P . .
C5 C 0.7500(3) 0.0556(6) 0.499(4) 0.112(14) Uani 1 2 d DG TU P . .
C6 C 0.7500(9) 0.0765(7) 0.351(4) 0.087(12) Uani 1 2 d DG TU P . .
H6 H 0.7500 0.0631 0.2472 0.104 Uiso 1 2 calc R U P . .
C7 C 0.7500(9) 0.1171(7) 0.354(4) 0.055(9) Uani 1 2 d DG TU P . .
H7 H 0.7500 0.1314 0.2523 0.066 Uiso 1 2 calc R U P . .
C8 C 0.7500 0.013(2) 0.49243(2) 0.131(17) Uani 1 2 d DS TU P . .
C9 C 0.7500 -0.0233(19) 0.487(4) 0.114(16) Uani 1 2 d DS TU P . .
C10 C 0.7500 -0.0648(16) 0.475(10) 0.113(17) Uani 1 2 d DS TU P . .
C11 C 0.8075(17) -0.0838(10) 0.462(8) 0.137(18) Uani 1 1 d D U . . .
H11 H 0.8453 -0.0695 0.4729 0.164 Uiso 1 1 calc R U . . .
C12 C 0.8091(13) -0.1241(9) 0.433(6) 0.102(13) Uani 1 1 d D U . . .
C13 C 0.7500 -0.1420(14) 0.432(8) 0.093(17) Uani 1 2 d DS TU P . .
H13 H 0.7500 -0.1697 0.4304 0.112 Uiso 1 2 calc R U P . .
C14 C 0.8613(13) -0.1451(8) 0.451(7) 0.15(2) Uani 1 1 d D U . . .
C15 C 0.9094(14) -0.1638(8) 0.478(7) 0.20(3) Uani 1 1 d D U . . .
C16 C 0.9612(18) -0.1842(8) 0.505(6) 0.23(2) Uani 1 1 d DG U . . .
C17 C 0.989(2) -0.2049(12) 0.375(6) 0.24(2) Uani 1 1 d DG U . . .
H17 H 0.9706 -0.2045 0.2674 0.283 Uiso 1 1 calc R U . . .
C18 C 1.043(2) -0.2262(12) 0.404(8) 0.23(2) Uani 1 1 d G U . . .
H18 H 1.0619 -0.2403 0.3152 0.271 Uiso 1 1 calc R U . . .
C19 C 1.0698(19) -0.2267(11) 0.562(8) 0.21(2) Uani 1 1 d DG U . . .
C20 C 1.042(2) -0.2060(15) 0.691(7) 0.24(2) Uani 1 1 d G U . . .
H20 H 1.0604 -0.2064 0.7991 0.284 Uiso 1 1 calc R U . . .
C21 C 0.988(2) -0.1847(14) 0.663(6) 0.27(2) Uani 1 1 d DG U . . .
H21 H 0.9691 -0.1706 0.7514 0.319 Uiso 1 1 calc R U . . .
O1 O 0.7500 0.1963(8) 0.666(6) 0.072(8) Uani 1 2 d S TU P . .
O2 O 0.7500 0.1971(8) 0.382(11) 0.081(7) Uani 1 2 d S TU P . .
O5 O 0.8223(11) 0.1839(6) 0.997(5) 0.087(7) Uani 1 1 d . U . . .
Ho1 Ho 0.7500 0.23370(4) 0.883(4) 0.0355(7) Uani 1 2 d S TU P . .
O6 O 0.891(3) 0.1431(18) 1.196(11) 0.28(3) Uiso 1 1 d . . . . .
O3 O 1.1503(10) -0.2478(7) 0.773(5) 0.071(6) Uani 1 1 d D U . . .
O4 O 1.188(2) -0.2346(16) 0.528(8) 0.25(3) Uani 1 1 d D U . . .
O7 O 0.7500 -0.244(3) 0.441(15) 0.26(4) Uiso 1 2 d DS . P . .
N1 N 0.681(4) -0.286(3) 0.494(19) 0.23(6) Uiso 0.5 1 d D . P . .
C23 C 0.696(4) -0.254(4) 0.396(19) 0.21(6) Uiso 0.5 1 d D . P . .
C24 C 0.613(4) -0.296(3) 0.507(13) 0.11(3) Uiso 0.5 1 d D . P . .
C25 C 0.734(6) -0.311(5) 0.56(3) 0.39(14) Uiso 0.5 1 d D . P . .
C22 C 1.130(3) -0.2382(10) 0.644(12) 0.168(19) Uiso 1 1 d D U . . .
loop_
_atom_site_aniso_label
_atom_site_aniso_U_11
_atom_site_aniso_U_22
_atom_site_aniso_U_33
_atom_site_aniso_U_23
_atom_site_aniso_U_13
_atom_site_aniso_U_12
C1 0.064(14) 0.045(13) 0.054(14) 0.014(11) 0.000 0.000
C2 0.075(14) 0.050(13) 0.066(14) -0.013(11) 0.000 0.000
C3 0.124(18) 0.107(18) 0.112(19) 0.000(12) 0.000 0.000
C4 0.129(19) 0.104(19) 0.116(19) 0.002(12) 0.000 0.000
C5 0.119(17) 0.104(17) 0.114(17) 0.007(12) 0.000 0.000
C6 0.091(15) 0.081(15) 0.088(17) -0.004(12) 0.000 0.000
C7 0.065(12) 0.045(11) 0.054(15) -0.009(11) 0.000 0.000
C8 0.14(2) 0.12(2) 0.13(2) -0.005(13) 0.000 0.000
C9 0.117(19) 0.108(19) 0.118(19) -0.003(12) 0.000 0.000
C10 0.11(2) 0.11(2) 0.12(2) -0.006(13) 0.000 0.000
C11 0.13(2) 0.13(2) 0.15(2) -0.005(13) -0.013(13) 0.004(13)
C12 0.106(16) 0.089(15) 0.112(18) -0.005(11) -0.016(12) 0.010(11)
C13 0.094(19) 0.087(19) 0.10(2) 0.007(12) 0.000 0.000
C14 0.15(2) 0.14(2) 0.16(2) -0.006(13) -0.021(13) 0.010(13)
C15 0.20(3) 0.20(3) 0.21(3) -0.006(13) -0.014(13) 0.007(13)
C16 0.23(2) 0.23(2) 0.22(2) -0.001(12) -0.005(12) 0.005(12)
C17 0.23(2) 0.23(2) 0.24(2) 0.000(13) 0.000(13) 0.008(13)
C18 0.23(2) 0.23(2) 0.23(2) 0.002(12) -0.006(12) 0.003(12)
C19 0.21(2) 0.21(2) 0.22(2) -0.003(12) -0.004(12) 0.001(12)
C20 0.23(3) 0.24(3) 0.24(3) 0.003(13) -0.009(13) 0.003(13)
C21 0.26(3) 0.26(3) 0.27(3) -0.001(13) -0.002(13) 0.001(13)
O1 0.079(12) 0.055(11) 0.084(13) -0.005(10) 0.000 0.000
O2 0.102(12) 0.077(11) 0.063(11) 0.009(13) 0.000 0.000
O5 0.101(15) 0.051(11) 0.110(15) -0.020(10) 0.040(13) 0.008(10)
Ho1 0.0596(10) 0.0034(7) 0.0435(10) -0.0046(12) 0.000 0.000
O3 0.066(10) 0.070(9) 0.077(11) 0.011(9) -0.007(8) 0.013(8)
O4 0.24(3) 0.25(3) 0.25(3) -0.018(13) 0.003(13) 0.008(13)
loop_
_atom_type_symbol
_atom_type_description
_atom_type_scat_dispersion_real
_atom_type_scat_dispersion_imag
_atom_type_scat_source
C C 0.0181 0.0091 'International Tables Vol C Tables 4.2.6.8 and 6.1.1.4'
H H 0.0000 0.0000 'International Tables Vol C Tables 4.2.6.8 and 6.1.1.4'
O O 0.0492 0.0322 'International Tables Vol C Tables 4.2.6.8 and 6.1.1.4'
Ho Ho -14.9734 3.7046 'International Tables Vol C Tables 4.2.6.8 and 6.1.1.4'
N N 0.0311 0.0180 'International Tables Vol C Tables 4.2.6.8 and 6.1.1.4'
loop_
_geom_angle_atom_site_label_1
_geom_angle_atom_site_label_2
_geom_angle_atom_site_label_3
_geom_angle
_geom_angle_site_symmetry_1
_geom_angle_site_symmetry_3
O2 C1 O1 123(4) . .
O2 C1 C2 115(4) . .
O1 C1 C2 122(3) . .
C3 C2 C7 120.0 . .
C3 C2 C1 117(2) . .
C7 C2 C1 123(2) . .
C2 C3 C4 120.0 . .
C5 C4 C3 120.0 . .
C4 C5 C6 120.0 . .
C4 C5 C8 121.2(18) . .
C6 C5 C8 118.8(18) . .
C5 C6 C7 120.0 . .
C6 C7 C2 120.0 . .
C9 C8 C5 180.0(2) . .
C8 C9 C10 178(4) . .
C11 C10 C11 124(6) 3_655 .
C11 C10 C9 118(3) 3_655 .
C11 C10 C9 118(3) . .
C10 C11 C12 120(5) . .
C14 C12 C11 122(2) . .
C14 C12 C13 121(2) . .
C11 C12 C13 114(4) . .
C12 C13 C12 128(5) 3_655 .
C15 C14 C12 176(4) . .
C14 C15 C16 179(3) . .
C15 C16 C17 119.9(11) . .
C15 C16 C21 120.1(11) . .
C17 C16 C21 120.0 . .
C18 C17 C16 120.0 . .
C17 C18 C19 120.0 . .
C20 C19 C18 120.0 . .
C20 C19 C22 100(4) . .
C18 C19 C22 139(4) . .
C19 C20 C21 120.0 . .
C20 C21 C16 120.0 . .
C1 O1 Ho1 171(3) . .
C1 O2 Ho1 120(4) . 6_654
O4 Ho1 O4 80(3) 7_655 5_455
O4 Ho1 O1 139.6(17) 7_655 .
O4 Ho1 O1 139.6(17) 5_455 .
O4 Ho1 O3 133.1(17) 7_655 4_455
O4 Ho1 O3 61.4(16) 5_455 4_455
O1 Ho1 O3 79.7(7) . 4_455
O4 Ho1 O3 61.4(16) 7_655 2_755
O4 Ho1 O3 133.1(17) 5_455 2_755
O1 Ho1 O3 79.7(7) . 2_755
O3 Ho1 O3 129.7(12) 4_455 2_755
O4 Ho1 O2 58.6(19) 7_655 6_655
O4 Ho1 O2 58.6(19) 5_455 6_655
O1 Ho1 O2 126.2(19) . 6_655
O3 Ho1 O2 78.2(9) 4_455 6_655
O3 Ho1 O2 78.2(9) 2_755 6_655
O4 Ho1 O5 75.6(16) 7_655 .
O4 Ho1 O5 123.5(16) 5_455 .
O1 Ho1 O5 83.7(8) . .
O3 Ho1 O5 147.5(8) 4_455 .
O3 Ho1 O5 73.3(8) 2_755 .
O2 Ho1 O5 133.5(10) 6_655 .
O4 Ho1 O5 123.5(16) 7_655 3_655
O4 Ho1 O5 75.6(16) 5_455 3_655
O1 Ho1 O5 83.7(8) . 3_655
O3 Ho1 O5 73.3(8) 4_455 3_655
O3 Ho1 O5 147.5(8) 2_755 3_655
O2 Ho1 O5 133.5(10) 6_655 3_655
O5 Ho1 O5 77.3(11) . 3_655
C22 O3 Ho1 128(4) . 2_755
C22 O4 Ho1 144(3) . 5_544
C23 O7 C23 133(10) 3_655 .
C23 N1 C24 117(3) . .
C23 N1 C25 116(4) . .
C24 N1 C25 126(5) . .
O7 C23 N1 106(10) . .
C25 C25 N1 140(5) 3_655 .
O3 C22 C19 142(7) . .
O3 C22 O4 104(4) . .
C19 C22 O4 114(6) . .
loop_
_geom_bond_atom_site_label_1
_geom_bond_atom_site_label_2
_geom_bond_distance
_geom_bond_site_symmetry_2
C1 O2 1.27(8) .
C1 O1 1.32(5) .
C1 C2 1.44(4) .
C2 C3 1.3900 .
C2 C7 1.3900 .
C3 C4 1.3900 .
C4 C5 1.3900 .
C5 C6 1.3900 .
C5 C8 1.47(7) .
C6 C7 1.3900 .
C8 C9 1.24(3) .
C9 C10 1.43(8) .
C10 C11 1.396(18) 3_655
C10 C11 1.396(18) .
C11 C12 1.401(18) .
C12 C14 1.34(3) .
C12 C13 1.406(18) .
C13 C12 1.406(18) 3_655
C14 C15 1.23(3) .
C15 C16 1.33(3) .
C16 C17 1.3900 .
C16 C21 1.3900 .
C17 C18 1.3900 .
C18 C19 1.3900 .
C19 C20 1.3900 .
C19 C22 1.49(3) .
C20 C21 1.3900 .
O1 Ho1 2.16(3) .
O2 Ho1 2.37(3) 6_654
O5 Ho1 2.48(3) .
Ho1 O4 2.08(5) 7_655
Ho1 O4 2.08(5) 5_455
Ho1 O3 2.36(2) 4_455
Ho1 O3 2.36(2) 2_755
Ho1 O2 2.37(3) 6_655
Ho1 O5 2.48(3) 3_655
O3 C22 1.17(7) .
O3 Ho1 2.36(2) 2_755
O4 C22 1.56(9) .
O4 Ho1 2.08(5) 5_544
O7 C23 1.26(3) 3_655
O7 C23 1.26(3) .
N1 C23 1.40(3) .
N1 C24 1.49(3) .
N1 C25 1.51(3) .
C25 C25 0.7(2) 3_655
loop_
_platon_squeeze_void_nr
_platon_squeeze_void_average_x
_platon_squeeze_void_average_y
_platon_squeeze_void_average_z
_platon_squeeze_void_volume
_platon_squeeze_void_count_electrons
1 -0.003 -0.003 -0.083 3425.0 1319.7
