#------------------------------------------------------------------------------
#$Date: 2015-07-16 18:05:34 +0300 (Thu, 16 Jul 2015) $
#$Revision: 152130 $
#$URL: svn://www.crystallography.net/cod/cif/7/11/75/7117541.cif $
#------------------------------------------------------------------------------
#
# This file is available in the Crystallography Open Database (COD),
# http://www.crystallography.net/
#
# All data on this site have been placed in the public domain by the
# contributors.
#
data_7117541
loop_
_publ_author_name
'L. H. Blair'
'A. Colakel'
'R. M. Vrcelj'
'I. Sinclair'
'S. J. Coles'
_publ_section_title
;
 Metal-organic fireworks: MOFs as integrated structural scaffolds for
 pyrotechnic materials
;
_journal_name_full               Chem.Commun.
_journal_page_first              12185
_journal_paper_doi               10.1039/C5cc04174K
_journal_volume                  51
_journal_year                    2015
_chemical_formula_moiety         'C8 H2 Ca F4 N O8, C5 H6 N'
_chemical_formula_sum            'C13 H8 Ca F4 N2 O8'
_chemical_formula_weight         436.29
_chemical_name_systematic
;
 ?
;
_space_group_crystal_system      orthorhombic
_space_group_IT_number           33
_space_group_name_Hall           'P 2c -2n'
_space_group_name_H-M_alt        'P n a 21'
_symmetry_space_group_name_Hall  'P 2c -2n'
_symmetry_space_group_name_H-M   'P n a 21'
_atom_sites_solution_hydrogens   mixed
_atom_sites_solution_primary     iterative
_audit_creation_date             2015-01-25
_audit_creation_method
;
Olex2 1.2
(compiled 2015.01.19 svn.r3143 for OlexSys, GUI svn.r4992)
;
_audit_update_record
;
2015-01-30 deposited with the CCDC.
2015-06-23 downloaded from the CCDC.
;
_cell_angle_alpha                90
_cell_angle_beta                 90
_cell_angle_gamma                90
_cell_formula_units_Z            4
_cell_length_a                   14.2384(10)
_cell_length_b                   16.3862(11)
_cell_length_c                   6.8450(5)
_cell_measurement_reflns_used    0
_cell_measurement_temperature    100(2)
_cell_measurement_theta_max      27.5
_cell_measurement_theta_min      2.9
_cell_volume                     1597.03(19)
_computing_cell_refinement
'CrystalClear-SM Expert 3.1 b27 (Rigaku, 2013)'
_computing_data_collection
'CrystalClear-SM Expert 3.1 b27 (Rigaku, 2013)'
_computing_data_reduction
'CrystalClear-SM Expert 3.1 b27 (Rigaku, 2013)'
_computing_molecular_graphics    'Olex2 (Dolomanov et al., 2009)'
_computing_publication_material  'Olex2 (Dolomanov et al., 2009)'
_computing_structure_refinement  'ShelXL (Sheldrick, 2008)'
_computing_structure_solution
;
Superflip (Palatinus & Chapuis, 2007;Palatinus & van der Lee, 2008;
Palatinus et al., 2012)
;
_diffrn_ambient_temperature      100(2)
_diffrn_detector                 'CCD area detector'
_diffrn_detector_area_resol_mean 28.5714
_diffrn_detector_type            'Rigaku HG Saturn724+ (2x2 bin mode)'
_diffrn_measured_fraction_theta_full 0.997
_diffrn_measured_fraction_theta_max 0.995
_diffrn_measurement_details
;
scan:
    Number of images: 208
               Slice: -31.0000 - 73.0000
         Image width: 0.5000
            Exp time: 40.0000
       Rotation axis: Omega
               Omega: 0.0000
               Kappa: 72.0000
                 Phi: -30.0000
                 XTD: 45.0766
              2theta: -16.8910
scan:
    Number of images: 182
               Slice: -69.0000 - 22.0000
         Image width: 0.5000
            Exp time: 40.0000
       Rotation axis: Omega
               Omega: 0.0000
               Kappa: -72.0000
                 Phi: -150.0000
                 XTD: 45.0766
              2theta: -16.8910
scan:
    Number of images: 182
               Slice: -69.0000 - 22.0000
         Image width: 0.5000
            Exp time: 40.0000
       Rotation axis: Omega
               Omega: 0.0000
               Kappa: -72.0000
                 Phi: 30.0000
                 XTD: 45.0766
              2theta: -16.8910
scan:
    Number of images: 126
               Slice: -55.0000 - 8.0000
         Image width: 0.5000
            Exp time: 40.0000
       Rotation axis: Omega
               Omega: 0.0000
               Kappa: 0.0000
                 Phi: -180.0000
                 XTD: 45.0766
              2theta: -16.8910
scan:
    Number of images: 34
               Slice: -31.0000 - -14.0000
         Image width: 0.5000
            Exp time: 40.0000
       Rotation axis: Omega
               Omega: 0.0000
               Kappa: 54.0000
                 Phi: -180.0000
                 XTD: 45.0766
              2theta: -16.8910
scan:
    Number of images: 360
               Slice: -107.0000 - 73.0000
         Image width: 0.5000
            Exp time: 40.0000
       Rotation axis: Omega
               Omega: 0.0000
               Kappa: 0.0000
                 Phi: 0.0000
                 XTD: 45.0766
              2theta: -16.8910
scan:
    Number of images: 32
               Slice: -64.0000 - -48.0000
         Image width: 0.5000
            Exp time: 40.0000
       Rotation axis: Omega
               Omega: 0.0000
               Kappa: -72.0000
                 Phi: 120.0000
                 XTD: 45.0766
              2theta: -16.8910
;
_diffrn_measurement_device       'four-circle \k diffractometer'
_diffrn_measurement_device_type  Ros
_diffrn_measurement_method       'profile data from \w-scans'
_diffrn_measurement_specimen_support 'MiTeGen MicroMesh'
_diffrn_orient_matrix_type       d*Trek
_diffrn_orient_matrix_UB_11      0.110372
_diffrn_orient_matrix_UB_12      0.095304
_diffrn_orient_matrix_UB_13      -0.008827
_diffrn_orient_matrix_UB_21      0.023175
_diffrn_orient_matrix_UB_22      -0.032206
_diffrn_orient_matrix_UB_23      -0.057951
_diffrn_orient_matrix_UB_31      -0.034541
_diffrn_orient_matrix_UB_32      0.036826
_diffrn_orient_matrix_UB_33      -0.034279
_diffrn_radiation_collimation    0.3
_diffrn_radiation_monochromator  'Confocal mirrors, VHF Varimax'
_diffrn_radiation_probe          x-ray
_diffrn_radiation_type           MoK\a
_diffrn_radiation_wavelength     0.71075
_diffrn_reflns_av_R_equivalents  0.0518
_diffrn_reflns_av_unetI/netI     0.0252
_diffrn_reflns_laue_measured_fraction_full 0.997
_diffrn_reflns_laue_measured_fraction_max 0.995
_diffrn_reflns_limit_h_max       18
_diffrn_reflns_limit_h_min       -18
_diffrn_reflns_limit_k_max       21
_diffrn_reflns_limit_k_min       -21
_diffrn_reflns_limit_l_max       8
_diffrn_reflns_limit_l_min       -8
_diffrn_reflns_number            19489
_diffrn_reflns_point_group_measured_fraction_full 0.998
_diffrn_reflns_point_group_measured_fraction_max 0.994
_diffrn_reflns_theta_full        25.242
_diffrn_reflns_theta_max         27.487
_diffrn_reflns_theta_min         2.861
_diffrn_source                   'Rotating Anode'
_diffrn_source_current           55.0
_diffrn_source_power             2.475
_diffrn_source_target            Mo
_diffrn_source_type              'Rotating Anode'
_diffrn_source_voltage           45.0
_exptl_absorpt_coefficient_mu    0.488
_exptl_absorpt_correction_T_max  1.000
_exptl_absorpt_correction_T_min  0.779
_exptl_absorpt_correction_type   multi-scan
_exptl_absorpt_process_details
'CrystalClear-SM Expert 3.1 b27 (Rigaku, 2013)'
_exptl_crystal_colour            colourless
_exptl_crystal_colour_primary    colourless
_exptl_crystal_density_diffrn    1.815
_exptl_crystal_description       Block
_exptl_crystal_F_000             880
_exptl_crystal_size_max          0.07
_exptl_crystal_size_mid          0.06
_exptl_crystal_size_min          0.04
_refine_diff_density_max         0.458
_refine_diff_density_min         -0.213
_refine_diff_density_rms         0.085
_refine_ls_abs_structure_details
;
 Flack x determined using 1570 quotients [(I+)-(I-)]/[(I+)+(I-)]
 (Parsons and Flack (2004), Acta Cryst. A60, s61).
;
_refine_ls_abs_structure_Flack   0.139(16)
_refine_ls_extinction_coef       .
_refine_ls_extinction_method     none
_refine_ls_goodness_of_fit_ref   1.042
_refine_ls_hydrogen_treatment    mixed
_refine_ls_matrix_type           full
_refine_ls_number_parameters     258
_refine_ls_number_reflns         3646
_refine_ls_number_restraints     1
_refine_ls_restrained_S_all      1.042
_refine_ls_R_factor_all          0.0366
_refine_ls_R_factor_gt           0.0354
_refine_ls_shift/su_max          0.001
_refine_ls_shift/su_mean         0.000
_refine_ls_structure_factor_coef Fsqd
_refine_ls_weighting_details
'w=1/[\s^2^(Fo^2^)+(0.0641P)^2^+0.3399P] where P=(Fo^2^+2Fc^2^)/3'
_refine_ls_weighting_scheme      calc
_refine_ls_wR_factor_gt          0.0913
_refine_ls_wR_factor_ref         0.0923
_reflns_Friedel_coverage         0.841
_reflns_friedel_fraction_full    0.998
_reflns_friedel_fraction_max     0.992
_reflns_number_gt                3514
_reflns_number_total             3646
_reflns_threshold_expression     'I > 2\s(I)'
_cod_data_source_file            c5cc04174k2.cif
_cod_data_source_block           ca_fbdc_2
_cod_database_code               7117541
_shelxl_version_number           2013-3
_shelx_space_group_comment
;
The symmetry employed for this shelxl refinement is uniquely defined
by the following loop, which should always be used as a source of
symmetry information in preference to the above space-group names.
They are only intended as comments.
;
_olex2_refinement_description
;
1. Fixed Uiso
 At 1.2 times of:
  All C(H) groups
 At 1.5 times of:
  All O(H,H) groups
2.a Rotating group:
 O1W(H1Wa,H1Wb)
2.b Aromatic/amide H refined with riding coordinates:
 C101(H101), C102(H102), C103(H103), C104(H104), C105(H105)
;
_shelx_res_file
;
TITL 2014lhb054b
CELL 0.71075 14.2384 16.3862 6.845 90 90 90
ZERR 4 0.001 0.0011 0.0005 0 0 0
LATT -1
SYMM -X,-Y,0.5+Z
SYMM 0.5-X,0.5+Y,0.5+Z
SYMM 0.5+X,0.5-Y,+Z

SFAC C H Ca F N O
UNIT 52 32 4 16 8 32
EQIV $1 0.5+X,1.5-Y,+Z
EQIV $2 0.5+X,1.5-Y,1+Z

L.S. 4 0 0
PLAN  20
TEMP -173(2)
HTAB O1W O3_$1
HTAB O1W O4_$2
HTAB N101 O13
MORE -1
BOND $H
CONF
fmap 2 53
acta
REM <HKL>C:/Users/lhb1u10/Desktop/My%20Structures/2014lhb054b_Ca%20fBDC/Ca_fBD
REM C.hkl</HKL>

WGHT    0.064100    0.339900
FVAR       1.90338
C1    1    0.420885    0.907226    0.110365    11.00000    0.01888    0.02078 =
         0.01923   -0.00099    0.00024    0.00076
C2    1    0.359094    0.831143    0.105834    11.00000    0.02160    0.02482 =
         0.01604    0.00133   -0.00059   -0.00233
C3    1    0.267715    0.831880    0.177120    11.00000    0.02521    0.02394 =
         0.01857   -0.00073   -0.00023    0.00172
C4    1    0.212207    0.762072    0.174582    11.00000    0.01849    0.03053 =
         0.01937    0.00027    0.00012   -0.00226
C5    1    0.245313    0.688410    0.101953    11.00000    0.02254    0.02735 =
         0.01656    0.00099   -0.00175   -0.00417
C6    1    0.184692    0.611641    0.101540    11.00000    0.02017    0.02375 =
         0.02243    0.00052   -0.00044   -0.00217
C7    1    0.337334    0.687607    0.032969    11.00000    0.02279    0.02407 =
         0.01920   -0.00057    0.00089    0.00087
C8    1    0.392500    0.757431    0.032445    11.00000    0.01850    0.02825 =
         0.01737    0.00060   -0.00009   -0.00127
CA1   3    0.431286    0.969484    0.612801    11.00000    0.01898    0.02108 =
         0.01669   -0.00024    0.00029    0.00010
F1    4    0.231138    0.901325    0.249622    11.00000    0.02495    0.02560 =
         0.02875   -0.00455    0.00360    0.00081
F2    4    0.123936    0.767366    0.244309    11.00000    0.01954    0.03293 =
         0.03134   -0.00499    0.00532   -0.00370
F3    4    0.375506    0.617113   -0.030794    11.00000    0.02595    0.02392 =
         0.02951   -0.00331    0.00241   -0.00055
F4    4    0.480972    0.752644   -0.037414    11.00000    0.01937    0.02945 =
         0.02862   -0.00253    0.00430   -0.00154
N11   5    0.271311    0.848877    0.660232    11.00000    0.02841    0.02968 =
         0.02310    0.00105   -0.00308   -0.00166
O1    6    0.450015    0.934875   -0.049435    11.00000    0.02447    0.02616 =
         0.01757    0.00032    0.00042   -0.00434
O1W   6    0.562315    0.875168    0.608956    11.00000    0.02442    0.03273 =
         0.01918    0.00184    0.00148    0.00416
AFIX   7
H1WA  2    0.595985    0.880398    0.497697    11.00000   -1.50000
H1WB  2    0.601515    0.884367    0.710487    11.00000   -1.50000
AFIX   0
O2    6    0.441346    0.936558    0.272563    11.00000    0.02454    0.02602 =
         0.01901   -0.00079    0.00009   -0.00274
O3    6    0.153384    0.587763    0.262636    11.00000    0.02714    0.02752 =
         0.02398   -0.00187    0.00427   -0.00522
O4    6    0.170467    0.577064   -0.058530    11.00000    0.03205    0.03020 =
         0.02172   -0.00045   -0.00298   -0.00701
O11   6    0.251713    0.920789    0.704543    11.00000    0.03699    0.03199 =
         0.03570   -0.00509   -0.00332    0.00612
O12   6    0.215131    0.792099    0.667915    11.00000    0.02671    0.03739 =
         0.04259    0.00302    0.00010   -0.00724
O13   6    0.356055    0.835500    0.602337    11.00000    0.02364    0.03015 =
         0.02746    0.00010    0.00175   -0.00359

C101  1    0.500506    0.656943    0.561288    11.00000    0.03383    0.04959 =
         0.02741   -0.00116    0.00352   -0.01284
AFIX  43
H101  2    0.548159    0.696389    0.584074    11.00000   -1.20000
AFIX   0
C102  1    0.523349    0.575813    0.533360    11.00000    0.03081    0.06108 =
         0.03361   -0.00113    0.00308    0.00734
AFIX  43
H102  2    0.587054    0.558661    0.537381    11.00000   -1.20000
AFIX   0
C103  1    0.452067    0.519526    0.499297    11.00000    0.05028    0.03338 =
         0.03284   -0.00140   -0.00048    0.00992
AFIX  43
H103  2    0.466770    0.463555    0.479969    11.00000   -1.20000
AFIX   0
C104  1    0.359155    0.545629    0.493687    11.00000    0.03880    0.03684 =
         0.02749    0.00138   -0.00569   -0.00662
AFIX  43
H104  2    0.309926    0.507925    0.468611    11.00000   -1.20000
AFIX   0
C105  1    0.339567    0.626559    0.524854    11.00000    0.03246    0.03879 =
         0.02607    0.00289   -0.00488    0.00097
AFIX  43
H105  2    0.276340    0.645074    0.524494    11.00000   -1.20000
AFIX   0
N101  5    0.409323    0.679093    0.555602    11.00000    0.03821    0.03273 =
         0.02539   -0.00032    0.00112   -0.00056
H10A  2    0.394131    0.733848    0.580161    11.00000    0.05122
HKLF 4

REM  2014lhb054b
REM R1 =  0.0354 for    3514 Fo > 4sig(Fo)  and  0.0366 for all    3646 data
REM    258 parameters refined using      1 restraints

END

WGHT      0.0615      0.2292

REM Highest difference peak  0.458,  deepest hole -0.213,  1-sigma level  0.085
Q1    1   0.4014  1.0144  0.6344  11.00000  0.05    0.46
Q2    1   0.2175  0.6447  0.1111  11.00000  0.05    0.45
Q3    1   0.4624  1.0148  0.6194  11.00000  0.05    0.41
Q4    1   0.4049  0.9258  0.6594  11.00000  0.05    0.40
Q5    1   0.4011  0.9252  0.5773  11.00000  0.05    0.40
Q6    1   0.3608  0.7211 -0.0168  11.00000  0.05    0.39
Q7    1   0.4552  0.9257  0.6162  11.00000  0.05    0.38
Q8    1   0.3893  0.8695  0.1000  11.00000  0.05    0.38
Q9    1   0.3808  0.7943  0.0837  11.00000  0.05    0.37
Q10   1   0.4626  1.0054  0.5562  11.00000  0.05    0.35
Q11   1   0.2357  0.8007  0.1183  11.00000  0.05    0.32
Q12   1   0.3706  0.7164  0.0915  11.00000  0.05    0.32
Q13   1   0.2204  0.7219  0.0853  11.00000  0.05    0.31
Q14   1   0.2437  0.7964  0.2382  11.00000  0.05    0.30
Q15   1   0.2868  0.6787  0.1076  11.00000  0.05    0.28
Q16   1   0.3566  0.5800  0.5470  11.00000  0.05    0.28
Q17   1   0.1972  0.5799  0.0404  11.00000  0.05    0.28
Q18   1   0.2334  0.7186  0.1527  11.00000  0.05    0.28
Q19   1   0.5027  0.6182  0.4933  11.00000  0.05    0.28
Q20   1   0.3657  0.6586  0.0303  11.00000  0.05    0.27
;
_shelx_res_checksum              87073
_shelx_hkl_file
;
   2   0   0 590.070 28.4600   1
  -2   0   0 653.950 31.1100   1
  -2   0   0 613.950 35.5900   1
  -1   2   0 3688.39 120.440   1
  -1  -2   0 3586.49 90.6400   1
   1  -2   0 2978.77 94.3400   1
   1   2   0 2724.13 58.0400   1
   0   0   1 -5.8800 45.1300   1
   0   0  -1 0.99000 43.3400   1
   2  -1   0 31802.0 191.560   1
  -2   1   0 31494.1 199.760   1
  -2   1   0 32203.4 191.980   1
   0  -1   1 7118.21 131.820   1
   0  -1  -1 7177.01 107.710   1
   0   1  -1 6744.80 126.810   1
   0   1   1 7402.69 122.120   1
   0   1  -1 5966.34 96.6700   1
   1   0  -1 11.0300 23.3500   1
  -1   0   1 -10.180 31.8700   1
  -1   0   1 3.58000 21.9400   1
   1   0   1 1.20000 36.9700   1
  -1   0  -1 18.0100 33.6300   1
   1   0   1 33.1600 38.8000   1
  -1   0  -1 -11.810 41.9700   1
   1   0  -1 10.8900 26.1100   1
   1   0  -1 2.58000 27.9600   1
  -1   0  -1 0.47000 31.0500   1
  -1   0   1 -2.2800 28.0900   1
   1  -1   1 10713.8 159.050   1
   1   1   1 10372.7 144.520   1
  -1  -1  -1 11089.6 136.780   1
  -1   1  -1 10127.7 161.640   1
  -1   1   1 10598.0 142.690   1
   1  -1  -1 11122.4 134.840   1
   1   1  -1 10885.0 117.180   1
  -1  -1  -1 9568.73 142.330   1
  -1  -1   1 9946.47 113.300   1
  -1   1   1 11197.1 143.910   1
  -1   1  -1 11127.2 133.810   1
  -1   1   1 9154.34 171.530   1
   1   1  -1 10703.3 123.530   1
   1  -1   1 9908.69 118.400   1
   1  -1  -1 9547.98 177.580   1
   1   1   1 10704.2 177.470   1
   1  -1  -1 9930.74 115.140   1
   1   1  -1 10113.2 129.330   1
   1  -1  -1 10188.9 124.770   1
  -1  -1   1 10351.1 125.320   1
   1  -1   1 9281.86 162.680   1
   0  -3   0 24.9300 28.6400   1
   0   3   0 -2.9900 30.8900   1
   0  -3   0 -16.440 27.5600   1
   0   3   0 6.00000 25.5100   1
   0  -3   0 13.9800 19.1900   1
  -2   2   0 39241.2 255.250   1
   2  -2   0 41719.1 249.770   1
   2   2   0 38912.7 183.030   1
  -2  -2   0 38837.5 216.170   1
   0  -2  -1 -3.6200 28.7600   1
   0   2   1 10.7600 27.9200   1
   0   2   1 17.6900 36.2700   1
   0   2   1 -10.920 31.0200   1
   0  -2   1 -25.000 19.2100   1
   0   2  -1 4.11000 24.8100   1
   0   2  -1 -0.1900 32.8100   1
   0  -2  -1 2.75000 38.9100   1
   0  -2   1 11.9200 34.3300   1
  -1  -3   0 14602.6 125.980   1
  -1  -3   0 14851.2 123.620   1
   1   3   0 15386.1 129.190   1
   1  -3   0 16219.6 170.370   1
  -1   3   0 16107.3 166.880   1
  -1  -3   0 16305.6 181.300   1
  -1   3   0 15086.0 230.090   1
  -2   0  -1 26715.9 180.220   1
  -2   0   1 28194.0 192.370   1
   2   0  -1 28238.2 188.660   1
   2   0  -1 27981.8 230.990   1
  -2   0   1 26600.4 213.680   1
   2   0  -1 26719.0 193.200   1
  -1   2  -1 9318.47 153.810   1
   1   2   1 9816.80 128.750   1
   1  -2   1 9279.02 108.260   1
   1   2  -1 9505.91 107.610   1
  -1  -2   1 9989.93 118.740   1
   1   2   1 9358.64 120.540   1
  -1  -2  -1 8827.24 121.570   1
  -1   2   1 10223.3 125.020   1
  -3   0   0 -4.3100 26.9500   1
   3   0   0 9.42000 27.8300   1
  -3   0   0 3.22000 19.1000   1
   3   0   0 2.77000 24.3100   1
   3   0   0 2.58000 17.2900   1
  -3   0   0 -4.6600 18.6000   1
  -2  -1   1 11114.8 124.150   1
   2   1  -1 11282.8 125.490   1
  -2   1   1 10576.1 127.080   1
   2  -1  -1 11251.7 133.160   1
   2  -1   1 11781.0 212.050   1
  -2  -1  -1 11329.2 132.500   1
   2   1   1 10565.5 130.320   1
  -2  -1  -1 10007.1 114.830   1
  -2  -1   1 11166.6 132.130   1
  -2   1   1 10550.0 127.020   1
   2  -1   1 10047.4 111.310   1
   2   1   1 10510.9 134.490   1
  -2   1   1 11041.0 135.630   1
   2  -1  -1 11357.5 156.940   1
  -2  -1   1 10638.4 129.500   1
  -2   1  -1 11531.5 179.120   1
   2  -1  -1 10142.2 100.330   1
  -2   1  -1 9756.54 159.880   1
  -2  -1  -1 10172.9 137.210   1
  -2  -1   1 9844.03 104.250   1
   2   1  -1 10836.2 125.540   1
  -2   1   1 10235.1 118.900   1
   2  -1  -1 10542.3 121.630   1
  -3  -1   0 122.650 21.3300   1
  -3   1   0 135.190 22.1500   1
   3   1   0 145.590 34.9900   1
  -3   1   0 149.990 23.9000   1
   3   1   0 132.750 19.0700   1
   3  -1   0 128.720 24.2200   1
   3   1   0 130.370 31.3100   1
  -3  -1   0 133.570 28.6300   1
   3  -1   0 139.610 31.8500   1
  -3   1   0 124.410 30.2700   1
  -3   1   0 173.160 40.4200   1
   3  -1   0 131.000 19.2300   1
  -3  -1   0 136.170 27.1100   1
   3  -1   0 149.490 26.0500   1
  -3   1   0 136.570 24.2300   1
  -2   3   0 9227.65 115.600   1
   2  -3   0 9974.20 128.510   1
  -2   3   0 9270.97 127.950   1
   2  -3   0 9966.80 125.830   1
   2  -3   0 9443.30 107.550   1
   2   3   0 9439.19 96.2300   1
   2  -3   0 9662.05 121.920   1
   0   3   1 26122.6 234.030   1
   0   3   1 24540.9 188.750   1
   0   3  -1 25913.4 203.260   1
   0  -3  -1 24259.4 197.020   1
  -2  -2   1 25142.9 169.260   1
  -2   2   1 24620.3 181.080   1
  -2  -2   1 26606.4 208.840   1
  -2   2  -1 26025.0 269.090   1
   2   2   1 24805.6 175.420   1
  -2   2  -1 23703.5 243.560   1
   2  -2  -1 26793.3 222.380   1
  -2  -2  -1 26631.8 220.820   1
   2   2   1 23807.9 204.550   1
  -2  -2  -1 26702.0 207.280   1
   2   2  -1 24052.2 181.940   1
   2  -2   1 25457.6 240.060   1
  -2  -2  -1 26494.2 218.420   1
   2  -2   1 24225.0 169.900   1
  -2   2   1 25696.0 193.820   1
  -2   2   1 26090.8 212.170   1
   2   2  -1 25020.6 189.860   1
   2  -2  -1 25186.4 159.570   1
  -3   2   0 10729.2 153.300   1
  -3  -2   0 11152.2 122.090   1
   3  -2   0 11258.1 118.240   1
  -3  -2   0 11888.6 159.340   1
   3  -2   0 10782.9 115.320   1
  -3   2   0 11529.5 126.370   1
  -3   2   0 11429.1 119.040   1
   3  -2   0 11535.5 120.530   1
   3   2   0 11969.1 152.070   1
   3  -2   0 11235.9 127.630   1
  -3   2   0 12082.4 140.440   1
  -3  -2   0 10577.9 132.240   1
   0  -4   0 15966.8 143.760   1
   0  -4   0 15488.6 135.130   1
   0   4   0 15472.9 127.870   1
   1   3  -1 3711.55 76.2000   1
   1  -3   1 3462.88 94.1200   1
  -1  -3  -1 3506.60 86.2500   1
  -1   3   1 3307.40 72.9200   1
   1  -3  -1 3422.69 76.1000   1
  -1  -3   1 3587.00 80.6100   1
   1  -3  -1 3634.81 105.550   1
  -1   3  -1 3340.22 108.450   1
   1   3   1 3254.69 85.4900   1
   1  -3   1 3014.63 61.7500   1
   1   3  -1 2870.42 61.0300   1
  -1  -3   1 3224.76 60.4700   1
  -1   3  -1 3586.06 94.6900   1
   1  -3  -1 3276.89 76.4700   1
  -1  -3  -1 3586.18 74.1400   1
   1   3   1 3304.17 64.4700   1
  -1  -3  -1 3039.70 64.6600   1
   1  -3  -1 2775.23 77.6600   1
  -1   3   1 3244.55 79.3700   1
   1   4   0 2815.48 74.6000   1
  -1  -4   0 2765.06 69.0700   1
  -1   4   0 3142.60 77.5400   1
  -1  -4   0 2886.48 55.6800   1
  -1  -4   0 2645.08 49.0400   1
   1   4   0 3017.09 54.3300   1
  -1   4   0 3167.23 116.460   1
   1  -4   0 2563.98 58.8500   1
  -1   4   0 3242.13 83.7700   1
   3   0   1 -14.530 22.0800   1
  -3   0   1 -5.2800 19.1400   1
   3   0   1 17.3300 25.9400   1
  -3   0  -1 17.0400 26.3700   1
   3   0  -1 -17.360 30.6500   1
   3   0  -1 10.9000 16.7600   1
  -3   0   1 -3.5600 20.6200   1
   3   0  -1 0.34000 26.0000   1
  -3   0  -1 1.18000 16.1700   1
  -3   0   1 12.9800 30.3000   1
  -3   0  -1 -21.060 28.0900   1
   3   0   1 -4.8100 22.4400   1
  -3   0   1 -0.6000 23.3200   1
   3   0  -1 9.56000 24.6100   1
   3  -1   1 2609.98 66.6000   1
  -3   1  -1 2440.44 76.0800   1
  -3   1   1 2596.32 72.9100   1
   3  -1  -1 2718.72 68.7000   1
  -3  -1   1 2797.05 69.8900   1
   3   1  -1 2448.78 63.5600   1
  -3   1  -1 2701.14 68.3000   1
   3  -1   1 3061.23 82.7800   1
  -3  -1  -1 2879.98 70.7100   1
   3   1   1 2899.32 72.2900   1
   3  -1  -1 2572.31 58.8100   1
  -3   1   1 2935.31 65.6400   1
   3   1  -1 2657.33 57.5400   1
  -3   1   1 2864.99 60.1300   1
   3  -1   1 2379.98 49.7900   1
   3  -1  -1 2776.61 55.3000   1
  -3  -1  -1 2499.40 56.5100   1
   3   1   1 2575.08 65.7500   1
  -3  -1   1 2827.40 67.0000   1
   3   1  -1 2778.94 78.2700   1
   3  -1  -1 2464.82 54.3100   1
   3   1  -1 2407.02 55.9800   1
  -3   1   1 2849.59 56.7500   1
  -3  -1   1 2663.09 56.4200   1
   3   1   1 2380.10 58.0800   1
  -3  -1  -1 2308.59 56.3400   1
  -2   3  -1 11115.4 160.570   1
  -2   3   1 11051.5 136.730   1
  -2  -3  -1 11792.7 144.910   1
   2  -3   1 11699.0 183.750   1
   2   3  -1 10796.1 115.840   1
  -2  -3   1 11056.3 128.360   1
   2  -3   1 10536.0 174.080   1
   2  -3  -1 11954.0 140.220   1
   2  -3   1 11584.5 187.730   1
   2  -3   1 10385.1 108.800   1
  -2   3   1 11327.6 133.010   1
   2  -3  -1 9799.62 193.770   1
   2   3   1 10867.2 112.280   1
  -2  -3   1 11142.2 111.570   1
  -3   3   0 3174.18 73.0700   1
  -3   3   0 3036.98 65.4000   1
   3  -3   0 2822.88 62.4300   1
   3   3   0 2877.94 72.1300   1
  -3  -3   0 2887.27 68.3500   1
   3  -3   0 3370.50 82.7000   1
  -3   3   0 3054.22 74.8500   1
  -3   3   0 2991.46 77.8700   1
   3  -3   0 3163.62 59.1000   1
   3   3   0 2859.59 54.3700   1
   3  -3   0 3338.31 91.1100   1
  -3  -3   0 2879.86 56.4200   1
   4   0   0 586.370 24.9300   1
  -4   0   0 553.480 25.4700   1
   4   0   0 746.790 40.1300   1
  -4   0   0 764.360 38.1800   1
  -4   0   0 587.830 28.3600   1
   4   0   0 650.870 32.1800   1
  -2  -4   0 36409.2 200.480   1
   2   4   0 35573.6 193.080   1
   2  -4   0 34355.2 214.080   1
   2  -4   0 34312.2 343.550   1
   2  -4   0 35441.6 215.950   1
  -2  -4   0 36874.0 253.270   1
  -3  -2  -1 619.080 38.0400   1
   3  -2  -1 602.000 36.3600   1
  -3   2   1 606.450 35.6600   1
  -3  -2   1 620.880 35.4600   1
   3  -2   1 504.790 26.0700   1
  -3   2   1 535.790 26.3400   1
   3  -2   1 507.260 28.0200   1
  -3   2   1 597.950 32.4700   1
   3  -2  -1 609.010 32.4700   1
  -3  -2  -1 565.100 33.6400   1
   3   2  -1 650.050 36.6300   1
  -3  -2  -1 553.770 33.4000   1
   3   2   1 502.230 36.6600   1
  -3  -2   1 547.630 36.0600   1
  -3  -2   1 464.260 25.2400   1
   3  -2   1 497.570 31.4900   1
  -3  -2  -1 459.850 29.1300   1
   3   2   1 457.510 25.2300   1
   3  -2  -1 587.690 27.7600   1
   3   2  -1 506.980 26.8100   1
  -3   2   1 576.890 27.6600   1
   3  -2   1 598.960 35.0100   1
  -3   2  -1 544.850 33.4700   1
  -3   2  -1 501.900 45.5100   1
  -3   2  -1 563.010 28.3300   1
   3  -2  -1 611.820 32.0400   1
   0  -4   1 -16.540 22.3900   1
   0  -4   1 -3.8000 16.3900   1
   0   4   1 10.5000 25.7400   1
   0  -4   1 -8.7300 22.4200   1
   0  -4  -1 2.97000 25.7200   1
   0  -4  -1 -4.2500 30.0000   1
   0  -4  -1 7.95000 24.1300   1
   0   4   1 1.34000 19.9700   1
   0   4  -1 3.77000 20.4400   1
  -4  -1   0 18480.6 164.540   1
   4  -1   0 18218.7 152.510   1
  -4  -1   0 17989.6 154.770   1
  -4   1   0 18190.9 146.740   1
   4  -1   0 18226.3 149.830   1
   4   1   0 17901.1 144.920   1
   0   0  -2 316467. 2421.85   1
   1  -4  -1 960.740 46.2400   1
  -1   4  -1 873.740 40.1700   1
   1   4   1 787.740 39.9800   1
  -1  -4  -1 774.180 39.3200   1
   1  -4   1 848.240 38.2000   1
  -1   4   1 885.670 41.8700   1
   1  -4  -1 873.030 40.5800   1
  -1  -4   1 968.020 42.4300   1
   1   4  -1 919.670 39.1800   1
  -1   4  -1 725.660 60.9300   1
  -1   4   1 978.200 63.9600   1
  -1  -4  -1 745.420 33.5000   1
  -1   4  -1 752.220 35.3200   1
   1  -4   1 651.990 27.4300   1
   1   4  -1 692.150 30.8200   1
  -1  -4   1 746.340 28.8500   1
   1   4   1 751.850 29.8400   1
  -1   4   1 866.630 38.6100   1
   1  -4  -1 825.000 46.7800   1
   0   1   2 16.0100 39.3700   1
   0  -1   2 -0.6500 43.8800   1
   0   1   2 6.30000 24.9900   1
   0  -1   2 3.00000 24.7000   1
   0  -1  -2 -6.3700 26.9900   1
   0   1  -2 -0.8300 24.1500   1
   0  -1  -2 3.31000 42.3000   1
   0   1   2 4.17000 24.0200   1
   0   1  -2 22.1300 22.7100   1
  -1   0  -2 2.48000 16.6600   1
  -1   0   2 -13.340 24.9600   1
  -1   0   2 14.0000 20.3500   1
   1   0  -2 8.41000 24.8500   1
   1   0   2 6.07000 22.6500   1
  -1   0  -2 18.0800 24.3300   1
   1   0   2 8.47000 33.0200   1
  -1   0  -2 7.00000 47.1800   1
  -1   0   2 17.1000 21.1300   1
  -1   0   2 -6.7100 43.7400   1
   1   0  -2 5.27000 25.6600   1
   1   0  -2 -3.5900 20.5100   1
  -1   0   2 -7.9000 29.7400   1
   1   0   2 2.56000 17.4100   1
   0  -5   0 -18.090 17.3900   1
   0   5   0 7.83000 14.1800   1
   0  -5   0 -13.820 27.1700   1
   0   5   0 7.89000 25.9500   1
   4   2   0 23.6200 27.0900   1
  -4  -2   0 9.26000 21.9100   1
  -4   2   0 21.5900 16.9000   1
   4  -2   0 23.6000 16.1200   1
   4   2   0 16.3300 15.5100   1
   4   2   0 13.3700 30.0100   1
  -4  -2   0 15.5200 22.1000   1
  -4   2   0 17.6800 17.9500   1
   4  -2   0 23.9700 20.8100   1
  -4  -2   0 21.7700 19.2100   1
  -4   2   0 19.3100 17.3500   1
  -4   2   0 -4.3000 26.7700   1
   4  -2   0 6.62000 23.6100   1
   1   1   2 31722.8 258.910   1
   1  -1   2 30645.3 236.670   1
  -1  -1  -2 29805.5 239.530   1
   1  -1  -2 31400.2 254.490   1
  -1  -1   2 30593.1 235.550   1
   1   1  -2 29890.0 249.300   1
  -1  -1   2 30741.3 212.820   1
  -1  -1   2 29145.6 199.500   1
   1   1  -2 30144.3 214.930   1
   1   1   2 28125.6 271.430   1
  -1   1  -2 29291.1 243.210   1
  -1  -1   2 29189.4 337.340   1
  -1   1  -2 28142.1 301.290   1
  -1   1   2 29646.7 287.200   1
   1   1  -2 30944.8 241.220   1
   1  -1   2 28552.3 232.720   1
   1  -1  -2 30938.6 251.640   1
  -1  -5   0 10475.9 109.300   1
  -1   5   0 11768.3 153.080   1
  -1   5   0 11012.9 210.830   1
   1  -5   0 11270.9 132.450   1
  -1  -5   0 11340.7 137.580   1
   1   5   0 10798.3 154.160   1
   1  -5   0 11541.6 119.780   1
  -3   3   1 32419.7 241.570   1
  -3   3  -1 31833.8 259.990   1
  -3  -3   1 31006.0 211.240   1
   3   3  -1 33209.6 242.640   1
   3  -3  -1 32180.5 213.030   1
  -3   3   1 32802.1 213.370   1
  -3   3  -1 32124.0 227.320   1
  -3   3   1 32064.2 205.730   1
   3  -3   1 30622.2 188.240   1
  -3  -3  -1 30208.2 219.380   1
   3  -3  -1 31367.9 203.400   1
  -3   3   1 30382.1 189.710   1
   3   3   1 31209.7 203.940   1
  -3  -3  -1 31662.5 228.670   1
   3  -3  -1 32895.9 224.630   1
   3  -3   1 31534.1 251.120   1
  -3  -3  -1 32277.2 221.490   1
   4   0  -1 15165.2 161.750   1
  -4   0   1 16666.3 131.660   1
   4   0  -1 15743.7 133.360   1
   4   0  -1 17233.8 151.150   1
  -4   0  -1 15592.8 151.440   1
  -4   0   1 16325.2 141.390   1
   4   0   1 15781.3 134.920   1
  -4   0   1 16640.7 148.760   1
   4   0  -1 16706.7 144.410   1
  -4   0   1 16882.2 184.130   1
  -4   0  -1 16866.0 164.920   1
   4   0   1 16919.1 150.340   1
   0  -2   2 7845.42 146.160   1
   0   2  -2 8259.57 135.650   1
   0   2  -2 8549.33 126.390   1
   0  -2  -2 9124.22 138.400   1
   0   2   2 8269.10 124.970   1
   0  -2   2 8713.86 121.330   1
   0  -2   2 8237.01 99.8500   1
   0   2   2 7925.69 131.950   1
   0  -2  -2 8418.17 169.490   1
   0   2  -2 8509.21 108.740   1
   0  -2   2 8282.05 134.890   1
  -2  -4  -1 8974.31 104.750   1
   2   4   1 9110.01 103.840   1
   2   4   1 9398.27 156.530   1
   2   4  -1 8792.50 101.090   1
   2  -4   1 9048.55 113.470   1
  -2   4  -1 8812.75 127.800   1
  -2   4  -1 9475.62 135.220   1
   2  -4  -1 9457.25 159.050   1
   2  -4   1 9509.95 146.900   1
  -2  -4   1 9219.26 127.560   1
   2  -4   1 9081.24 169.630   1
  -2   4   1 8835.06 125.480   1
  -3   4   0 16340.4 186.940   1
  -3  -4   0 17299.7 165.100   1
   3   4   0 17530.5 176.180   1
  -3  -4   0 16331.9 132.440   1
  -3   4   0 17221.2 176.680   1
   3  -4   0 16443.1 140.980   1
   3   4   0 16732.1 139.430   1
   4   1  -1 4478.80 73.8100   1
  -4   1   1 4666.92 67.8800   1
  -4   1   1 4704.70 85.2900   1
   4  -1  -1 4677.61 80.3900   1
  -4  -1   1 4737.83 87.9800   1
   4   1  -1 4994.84 90.4000   1
  -4   1  -1 4900.36 92.8500   1
   4  -1   1 5423.05 114.770   1
  -4  -1  -1 5078.46 94.0200   1
  -4  -1   1 4366.52 62.2100   1
   4   1   1 4339.13 75.4100   1
   4  -1   1 4757.90 77.1500   1
  -4  -1  -1 4448.06 77.6400   1
  -4   1  -1 4741.19 91.2100   1
   4   1   1 4951.91 99.4600   1
   4   1  -1 5030.02 92.5600   1
   4  -1  -1 4994.63 82.0300   1
   4   1  -1 4403.83 81.5500   1
  -4   1  -1 4578.84 80.3000   1
  -4   1   1 5115.57 79.1100   1
   4  -1   1 4393.02 64.9200   1
  -4  -1  -1 4292.73 71.3800   1
  -4  -1   1 4789.40 81.7400   1
   4   1   1 4781.27 85.1100   1
   4  -1  -1 4651.28 77.2300   1
   2   0   2 86966.5 355.790   1
   2   0  -2 86413.4 338.800   1
  -2   0  -2 85030.8 499.730   1
   1   2   2 76082.7 388.870   1
  -1  -2   2 73134.6 301.320   1
   1   2  -2 72880.6 340.730   1
  -1  -2  -2 71944.6 325.010   1
   1   2  -2 75375.1 345.070   1
   1  -2  -2 76651.9 463.690   1
   1   2  -2 74498.3 399.560   1
   1  -2  -2 72879.6 502.660   1
  -1   2  -2 76322.3 454.920   1
   1  -2   2 72155.8 305.460   1
  -1   2  -2 73305.8 474.080   1
   2   1  -2 68740.9 303.780   1
   2   1   2 64868.1 317.420   1
  -2   1   2 64900.3 339.190   1
  -2   1   2 64541.8 450.400   1
   2  -1  -2 67036.9 344.010   1
  -4   3   0 19460.9 222.040   1
  -4  -3   0 18921.9 144.750   1
  -4  -3   0 19397.1 182.060   1
   4  -3   0 19210.6 189.730   1
  -4   3   0 20761.5 173.100   1
  -4   3   0 19245.5 174.100   1
   4  -3   0 19284.8 173.200   1
  -4  -3   0 19214.2 180.660   1
  -4   3   0 18513.2 192.860   1
   4  -3   0 19756.5 146.980   1
  -2  -5   0 757.550 31.0300   1
   2  -5   0 750.450 36.7300   1
   2   5   0 666.010 26.5100   1
  -2   5   0 642.900 39.6900   1
  -2   5   0 512.260 46.9600   1
  -2  -5   0 631.030 35.9700   1
  -2   5   0 480.690 33.4200   1
   2  -5   0 483.790 32.6800   1
  -2  -5   0 483.750 34.1700   1
   2  -5   0 485.920 54.0000   1
   0   5   1 9076.14 137.830   1
   0  -5   1 8475.43 113.940   1
   0  -5  -1 8791.70 122.050   1
   0  -5  -1 7659.10 106.880   1
   0   5   1 8795.80 101.530   1
   0  -5   1 7984.56 96.5000   1
   4  -2  -1 1315.03 45.1400   1
  -4   2   1 1118.29 39.8100   1
   4  -2   1 930.200 36.0700   1
  -4   2  -1 919.050 33.3400   1
  -4   2   1 1038.54 35.0700   1
   4  -2   1 844.570 29.4600   1
  -4   2   1 938.710 30.8400   1
  -4  -2   1 945.710 29.8800   1
   4   2   1 942.620 35.5000   1
  -4  -2  -1 1050.57 36.0600   1
   4  -2   1 981.680 40.8100   1
  -4   2  -1 1026.10 46.1900   1
   4  -2  -1 1266.56 35.7900   1
  -4  -2  -1 1005.70 35.4400   1
  -4  -2   1 1114.31 44.0900   1
   4   2   1 1008.66 43.4000   1
   4  -2  -1 1279.65 42.7500   1
   4   2  -1 1000.60 33.9900   1
  -4   2   1 1174.59 49.1200   1
   4  -2  -1 1222.23 46.8300   1
  -4   2  -1 1136.92 48.4100   1
  -4  -2   1 1031.83 44.4300   1
   4   2  -1 1134.65 42.4800   1
   4  -2   1 1016.28 42.0400   1
  -4  -2  -1 1177.04 43.7000   1
   4   2   1 1041.66 43.9500   1
   0  -3  -2 -3.1900 37.8200   1
   0   3   2 -1.7600 27.1000   1
   0  -3   2 6.52000 20.9000   1
   0  -3  -2 13.4300 25.7500   1
   0   3   2 14.4500 22.1400   1
   0   3  -2 6.40000 18.5300   1
   0   3  -2 16.4600 18.3600   1
   0   3   2 0.94000 36.7800   1
   0   3  -2 5.06000 20.2800   1
   0  -3   2 -8.1200 22.7200   1
  -1  -5   1 1827.24 45.5500   1
  -1  -5  -1 1644.65 46.4700   1
  -1  -5   1 1916.78 59.3400   1
  -1   5  -1 1744.14 57.8400   1
   1   5   1 1657.28 53.9000   1
  -1  -5  -1 1804.57 54.9400   1
  -1   5  -1 1513.40 49.2700   1
  -1   5   1 2027.16 65.3000   1
   1  -5   1 1594.61 50.3800   1
   1  -5  -1 1852.08 55.8200   1
  -1  -5   1 1857.23 57.1600   1
  -1   5   1 1892.91 80.5500   1
   1  -5  -1 1834.90 58.2700   1
   1  -5   1 1553.50 44.0200   1
  -1   5  -1 1675.00 82.7400   1
   1   5   1 1860.32 46.6900   1
   1   5  -1 1563.49 46.5200   1
  -1   5   1 1782.21 46.9600   1
  -2   2   2 29036.6 193.510   1
  -2   2  -2 27668.0 290.920   1
   2   2  -2 28400.4 232.610   1
   2  -2   2 28431.4 329.950   1
  -2   2   2 29981.8 210.490   1
   2   2  -2 28901.4 208.760   1
  -2  -2   2 30121.5 192.280   1
  -2  -2   2 29712.6 203.020   1
   2   2   2 29540.2 240.830   1
   2   2   2 28906.2 260.940   1
  -2  -2  -2 29785.4 237.050   1
  -2   2  -2 28695.3 270.140   1
  -2  -2  -2 27700.2 255.820   1
   2  -2   2 27367.8 269.350   1
  -2   2   2 27497.6 273.090   1
  -2   2  -2 28969.1 198.090   1
  -2   2   2 27984.0 194.360   1
   2  -2   2 28214.6 186.500   1
   5   0   0 12.2000 16.9300   1
   5   0   0 1.79000 15.6100   1
   5   0   0 1.02000 20.3500   1
  -5   0   0 -4.6500 16.7100   1
  -5   0   0 17.6800 22.9200   1
   5   0   0 -14.940 24.4900   1
   1   3  -2 1139.57 41.6700   1
   1  -3  -2 1132.97 39.9600   1
   1  -3   2 1019.54 36.0900   1
   1   3  -2 1145.61 41.9200   1
  -1  -3   2 1080.69 35.5400   1
   1   3   2 1131.73 44.6300   1
  -1  -3  -2 1118.72 51.3800   1
  -1   3   2 1060.98 50.2800   1
   1  -3  -2 1135.01 62.3100   1
   1  -3   2 1123.38 65.7600   1
  -1  -3  -2 1229.92 47.5000   1
   1   3   2 1203.65 54.1300   1
   1   3   2 1197.58 50.8100   1
   1  -3   2 1072.06 45.3300   1
  -1   3   2 1361.71 54.3800   1
   1  -3  -2 1386.23 51.5000   1
  -1  -3   2 993.660 43.0900   1
   1   3  -2 1213.74 49.2000   1
  -1   3  -2 1163.33 48.9900   1
   1  -3  -2 1435.92 72.2700   1
  -1   3  -2 1148.11 69.5000   1
  -1   3   2 1501.54 55.1500   1
  -3   4  -1 4796.22 122.230   1
   3  -4   1 4543.24 86.8400   1
  -3   4   1 5227.60 88.9100   1
  -3   4  -1 4525.17 85.6800   1
   3  -4  -1 4812.03 81.7200   1
  -3   4   1 5239.25 89.4300   1
  -3   4   1 4577.46 108.380   1
   3  -4   1 4509.87 66.5400   1
   3   4  -1 4582.60 74.1000   1
  -3  -4   1 4605.66 66.8300   1
   3   4   1 4395.24 68.5200   1
  -3  -4  -1 4744.06 80.2500   1
  -3  -4  -1 5055.06 90.5500   1
   3  -4   1 4475.34 97.6100   1
  -3   4   1 5028.72 102.840   1
  -3   4  -1 5061.15 102.190   1
   3  -4  -1 5162.69 92.5800   1
   3  -4   1 4374.65 92.5400   1
  -3  -4   1 4551.40 83.9700   1
   3   4  -1 4932.05 89.9900   1
   3  -4  -1 4894.56 71.5100   1
   3  -4   1 5571.90 124.400   1
   3  -4  -1 5197.80 91.4000   1
  -5   1   0 7254.08 95.2000   1
   5  -1   0 6865.42 98.7200   1
   5   1   0 7623.53 119.070   1
  -5  -1   0 6745.70 106.940   1
   5  -1   0 7534.61 113.620   1
  -5   1   0 6841.00 88.6800   1
  -5  -1   0 6461.13 84.5100   1
   5  -1   0 6879.33 93.1900   1
   5   1   0 6698.61 85.5800   1
  -5   1   0 7277.57 115.730   1
   5   1   0 6870.58 109.200   1
  -5  -1   0 7310.36 105.100   1
   5  -1   0 6749.21 90.2200   1
   3   0   2 -4.1600 24.3900   1
  -3   0   2 3.01000 17.7100   1
   3   0  -2 -7.6700 19.9100   1
  -3   0   2 -1.5300 17.7700   1
  -3   0  -2 -6.3100 16.4300   1
  -3   0   2 -4.9200 21.0200   1
   3   0  -2 -2.1700 20.8800   1
  -3   0  -2 5.04000 21.5000   1
   3   0  -2 6.97000 25.8300   1
  -3   0   2 7.11000 23.7000   1
   3   0   2 12.3500 17.9900   1
  -3   0  -2 20.3700 21.5900   1
   3   0  -2 -4.2600 24.7300   1
  -3   0  -2 -19.910 33.7700   1
   3   1   2 733.790 42.1200   1
  -3   1  -2 809.550 41.8500   1
  -3  -1  -2 783.980 38.6800   1
  -3   1   2 776.460 38.3200   1
  -3  -1   2 723.680 37.5000   1
   3  -1  -2 839.880 40.3100   1
   3   1  -2 903.320 41.2500   1
  -3   1  -2 823.520 40.8900   1
   3  -1  -2 846.890 36.9900   1
   3   1  -2 911.780 40.4900   1
  -3   1   2 876.670 37.6700   1
  -3   1  -2 735.640 30.9400   1
  -3   1   2 784.910 32.4300   1
   3   1  -2 802.030 34.7400   1
   3  -1  -2 843.350 35.9300   1
  -3  -1   2 799.010 37.0300   1
  -3  -1   2 689.700 28.9500   1
   3  -1  -2 808.730 32.2000   1
  -3   1  -2 769.820 52.7400   1
   3   1   2 665.720 32.5100   1
  -3  -1  -2 606.040 26.7000   1
   3  -1   2 629.980 28.1400   1
  -3   1   2 700.070 30.1400   1
   3   1   2 666.230 34.4700   1
  -3  -1  -2 740.560 44.5600   1
   3  -1   2 717.350 40.2000   1
  -3  -1   2 775.090 32.7700   1
  -4  -3  -1 8253.92 122.360   1
  -4  -3  -1 7199.23 97.7500   1
  -4   3   1 7483.61 103.590   1
  -4   3  -1 7708.24 97.8600   1
  -4   3   1 8353.66 105.730   1
   4  -3   1 8026.02 95.0600   1
  -4  -3   1 8378.10 118.790   1
   4  -3   1 7422.10 119.200   1
  -4   3  -1 7652.43 119.830   1
  -4   3   1 7357.02 113.190   1
   4   3   1 7368.83 99.4100   1
  -4  -3  -1 7374.76 92.4000   1
   4  -3   1 7747.12 117.400   1
  -4   3  -1 7342.85 126.760   1
  -4  -3   1 7600.09 85.2900   1
  -4  -3  -1 8133.03 126.200   1
   4   3  -1 8500.91 121.750   1
  -4   3   1 8184.06 93.7500   1
   4  -3  -1 7868.75 113.340   1
   4  -3  -1 7406.67 88.6700   1
   2   5   1 2459.86 49.7400   1
   2   5   1 2540.85 71.1200   1
  -2  -5  -1 2370.17 61.2200   1
  -2   5  -1 2530.19 70.1300   1
  -2   5   1 2584.99 70.9300   1
   2  -5  -1 2702.64 67.3200   1
   2  -5   1 2656.98 75.8700   1
  -2  -5   1 2604.23 68.2200   1
   2   5  -1 2505.09 62.3100   1
   2  -5  -1 2666.55 93.4600   1
  -2   5  -1 2579.23 87.7600   1
  -2   5   1 2650.00 64.1200   1
  -2   5  -1 2305.26 65.1900   1
  -2   5   1 2209.55 57.1300   1
   2  -5   1 2216.24 51.8800   1
   2   5  -1 2186.68 51.5700   1
  -2  -5   1 2456.03 49.4600   1
  -2  -5  -1 2314.32 51.3500   1
  -2   5   1 2643.92 64.7900   1
   2  -5  -1 2417.76 80.4400   1
   2  -5   1 2422.01 87.4500   1
   3  -5   0 3510.16 110.930   1
  -3   5   0 3208.71 69.3500   1
  -3  -5   0 4015.76 84.7500   1
  -3   5   0 3444.41 84.0500   1
   3  -5   0 3764.77 70.0500   1
   3   5   0 3227.70 58.9800   1
  -3  -5   0 3402.09 61.9500   1
   3  -5   0 3616.28 80.6500   1
  -3  -5   0 3987.64 84.0400   1
  -5  -2   0 92444.8 378.400   1
   5  -2   0 94657.4 368.570   1
  -5   2   0 92856.4 324.110   1
   5  -2   0 93452.2 343.180   1
  -5  -2   0 95643.9 419.590   1
   4  -4   0 373.340 28.0000   1
  -4   4   0 381.770 29.3900   1
  -4   4   0 303.660 22.8300   1
  -4  -4   0 287.280 29.8000   1
   4  -4   0 335.280 21.0800   1
   4   4   0 331.460 21.8300   1
   4  -4   0 446.750 31.3100   1
  -4  -4   0 342.890 24.8600   1
  -4   4   0 412.670 33.0200   1
   4  -4   0 352.510 30.9300   1
   4  -4   0 315.530 21.9900   1
  -4   4   0 309.140 34.3800   1
  -4  -4   0 412.610 30.5300   1
   4   4   0 352.750 30.7600   1
   2  -3   2 1508.55 43.0900   1
  -2   3   2 1746.47 45.7800   1
   2   3   2 1706.11 60.5900   1
   2   3   2 1635.62 51.6500   1
   2  -3  -2 1486.08 40.3400   1
   2  -3   2 1508.46 40.8500   1
   2   3  -2 1448.65 43.7000   1
  -2   3  -2 1615.76 79.2300   1
  -2  -3   2 1937.00 48.9300   1
   2  -3  -2 1440.24 64.5000   1
   2  -3   2 1671.12 64.4400   1
   2   3  -2 1834.02 56.1100   1
  -2   3   2 1632.23 66.4800   1
  -2  -3  -2 1575.76 50.5300   1
   2   3  -2 1613.20 48.8700   1
  -2  -3  -2 1529.29 54.6400   1
  -2  -3   2 1459.08 46.6800   1
   2  -3  -2 1632.30 49.7400   1
  -2   3   2 1764.85 56.8000   1
  -2  -3  -2 1752.22 54.8100   1
   2   3   2 1694.67 59.0500   1
  -2   3   2 1791.64 49.9700   1
  -1  -6   0 15824.8 161.570   1
  -1   6   0 16437.6 180.120   1
  -1   6   0 15985.4 276.150   1
   1  -6   0 15039.2 131.270   1
   1  -6   0 15047.5 154.020   1
  -1   6   0 15038.5 139.360   1
   1   6   0 16267.7 192.550   1
   5   0  -1 -3.3100 14.4800   1
   5   0   1 -4.3500 19.5200   1
  -5   0  -1 -3.3200 23.1200   1
   5   0   1 -9.0500 15.1700   1
  -5   0   1 2.59000 14.0300   1
  -5   0   1 -6.9600 16.3000   1
  -5   0   1 4.56000 22.9900   1
  -5   0  -1 -4.7600 19.8100   1
   5   0  -1 -5.0600 21.0500   1
   5   0  -1 8.60000 25.0200   1
   5   0   1 -9.8000 21.6900   1
   5   0  -1 -11.320 19.8000   1
  -5   0  -1 12.8500 15.7300   1
  -3   2   2 6579.95 97.9800   1
  -3   2  -2 6323.17 106.570   1
   3   2  -2 6222.08 95.5100   1
  -3  -2   2 6115.37 102.460   1
  -3   2   2 6445.30 110.200   1
  -3  -2  -2 6537.25 108.420   1
   3  -2   2 5474.83 78.1700   1
   3   2   2 5578.77 116.390   1
   3   2   2 6418.40 133.110   1
  -3   2  -2 6729.48 117.320   1
   3  -2  -2 6660.84 96.8400   1
   3   2   2 5561.11 99.4300   1
  -3  -2   2 6331.92 107.250   1
   3  -2  -2 6317.66 92.1100   1
   3   2  -2 6107.08 93.5100   1
  -3  -2   2 5945.60 81.2700   1
   3   2   2 5812.60 95.0000   1
   3  -2   2 5754.10 108.210   1
  -3   2  -2 5947.97 125.420   1
  -3   2   2 5649.91 137.370   1
   3  -2  -2 5947.36 80.6600   1
  -3   2   2 5858.48 86.6700   1
  -3   2  -2 5703.27 85.5800   1
   3   2  -2 6292.05 98.0800   1
   0  -4  -2 2743.79 77.7700   1
   0  -4  -2 2649.46 66.4300   1
   0   4   2 2484.75 68.1400   1
   0   4   2 2677.65 111.160   1
   0   4  -2 2956.83 74.6700   1
   0   4  -2 2409.54 60.2100   1
   0  -4   2 2469.34 71.7200   1
   0   4   2 3058.67 75.2900   1
   0   4   2 2393.88 67.0400   1
   0   4  -2 2726.59 69.9100   1
   5   1   1 462.680 24.2100   1
   5  -1   1 574.930 34.8000   1
   5   1   1 617.500 36.2100   1
   5  -1  -1 522.170 34.9700   1
   5   1  -1 492.230 28.0500   1
  -5   1   1 552.540 32.5700   1
  -5   1  -1 502.740 23.5200   1
  -5   1   1 605.090 27.8900   1
   5  -1   1 567.400 28.2700   1
  -5  -1  -1 511.670 26.3600   1
   5  -1  -1 436.010 31.6600   1
   5   1   1 597.310 32.8700   1
   5   1  -1 514.180 33.0600   1
   5  -1  -1 474.580 24.3300   1
   5   1  -1 500.050 24.7900   1
  -5   1   1 469.650 27.9800   1
  -5  -1   1 536.300 23.1000   1
   5  -1   1 540.760 27.9800   1
  -5  -1  -1 441.880 27.7100   1
  -5   1  -1 462.660 29.5700   1
  -5   1   1 579.910 42.2300   1
  -5  -1   1 534.140 31.8900   1
   5  -1  -1 498.240 36.2900   1
  -5   1  -1 537.420 32.2400   1
   5   1  -1 577.430 35.4500   1
  -5  -1  -1 531.370 31.6000   1
  -5  -1   1 575.420 28.6700   1
   1   4   2 68.2200 22.1700   1
   1  -4  -2 40.2800 37.6000   1
  -1  -4   2 51.0800 21.1700   1
  -1   4   2 63.8900 26.4600   1
  -1  -4  -2 86.8700 30.6400   1
  -1   4   2 69.2800 26.2200   1
   1   4  -2 54.2600 15.7000   1
   1  -4   2 51.1900 15.7300   1
   1   4   2 71.7000 22.8800   1
   1   4  -2 78.1400 19.4700   1
   1   4  -2 79.3500 22.0300   1
  -1   4  -2 113.380 44.3400   1
   1  -4   2 70.6900 37.4600   1
   1  -4   2 42.3600 17.2800   1
   1  -4  -2 93.6000 27.6900   1
  -1   4   2 91.0500 25.1600   1
  -1  -4  -2 71.1300 26.4400   1
   1   4   2 60.4500 25.0400   1
  -1   4   2 90.5900 31.3400   1
  -1  -4   2 51.9100 18.5000   1
  -2   6   0 195.870 25.9900   1
  -2  -6   0 220.540 29.3200   1
  -2   6   0 219.350 45.5500   1
  -2   6   0 172.600 21.3900   1
   2  -6   0 193.180 21.5300   1
  -2  -6   0 176.870 20.4200   1
   2   6   0 153.590 16.0700   1
  -2   6   0 171.240 25.8100   1
   2  -6   0 146.750 25.7400   1
   0  -6  -1 -1.1300 19.9700   1
   0   6   1 10.2000 14.8200   1
   0  -6   1 1.54000 14.6700   1
   0   6  -1 6.44000 22.1100   1
   0  -6  -1 13.1800 24.2700   1
   0   6  -1 8.12000 16.8900   1
   0  -6   1 -5.8100 22.6600   1
   0   6   1 14.1600 24.1500   1
   5  -3   0 2180.19 61.8700   1
   5  -3   0 2349.43 52.5500   1
   5  -3   0 2120.58 58.5000   1
   5  -3   0 2278.19 52.9400   1
  -5  -3   0 2082.34 59.5500   1
  -5   3   0 2089.19 63.3700   1
  -5  -3   0 1989.37 45.1700   1
  -5   3   0 1946.03 49.6800   1
   5   3   0 2027.92 54.5600   1
   5   3   0 2286.17 63.9200   1
  -5   3   0 2116.23 54.6200   1
  -5   3   0 2378.83 60.6700   1
   3   5   1 408.590 39.2700   1
  -3  -5  -1 331.600 32.2700   1
  -3   5   1 345.160 20.8000   1
   3   5  -1 339.870 31.5400   1
   3   5   1 387.180 22.4800   1
  -3  -5  -1 348.600 25.8000   1
   3  -5  -1 502.420 47.9600   1
  -3   5  -1 366.290 29.5800   1
  -3   5  -1 316.440 24.0400   1
   3  -5   1 343.470 22.4600   1
   3  -5  -1 401.440 25.4700   1
   3  -5   1 418.600 26.3500   1
   3   5  -1 386.790 30.2800   1
  -3   5   1 462.830 33.9800   1
   3  -5  -1 418.880 33.4000   1
   3  -5   1 333.040 27.8400   1
  -3  -5   1 363.250 27.6200   1
   3  -5   1 412.920 50.1700   1
  -3  -5   1 397.510 22.3100   1
   3  -5   1 364.420 37.0900   1
  -3   5   1 404.360 28.4400   1
   3  -5  -1 573.490 44.7300   1
  -3   5   1 430.970 31.0000   1
   5   2  -1 11694.7 126.170   1
   5  -2  -1 12728.6 127.310   1
   5   2  -1 12016.1 149.880   1
   5   2   1 11984.6 138.680   1
  -5  -2   1 12307.7 133.310   1
   5  -2  -1 11798.6 111.500   1
   5  -2   1 11964.7 107.600   1
  -5   2   1 11641.1 120.470   1
  -5   2  -1 11536.4 120.780   1
   5  -2   1 11057.3 128.620   1
  -5   2  -1 12457.1 145.350   1
  -5  -2  -1 12281.1 128.140   1
   5  -2   1 12212.3 124.940   1
   5   2   1 12458.5 161.660   1
   5   2  -1 12061.6 133.480   1
  -5  -2   1 12029.2 102.380   1
  -5   2   1 11875.1 147.170   1
   5  -2  -1 12564.2 139.010   1
  -5   2  -1 12419.3 150.660   1
  -5  -2   1 12733.0 154.420   1
   5   2  -1 12546.5 149.370   1
   5  -2   1 12684.4 155.900   1
  -5  -2  -1 11537.2 139.390   1
   5  -2  -1 12704.5 140.200   1
  -5   2   1 12411.1 127.700   1
  -5   2   1 11878.0 107.560   1
   4  -4  -1 42915.6 244.390   1
   4  -4  -1 44687.3 215.190   1
  -4   4  -1 43514.9 253.960   1
  -4  -4  -1 44980.1 288.270   1
  -4   4   1 43902.2 218.780   1
   4   4   1 43979.4 236.460   1
  -4  -4   1 45296.1 202.230   1
   4  -4   1 46330.8 311.470   1
  -4  -4  -1 44328.3 233.640   1
   1   6   1 4398.87 71.3600   1
  -1  -6   1 3936.92 62.3300   1
   1  -6   1 3823.36 68.3500   1
  -1   6   1 4985.30 137.760   1
   1  -6  -1 4349.37 82.8100   1
   1  -6   1 4249.65 84.5200   1
   1  -6  -1 3818.58 78.8800   1
  -1   6   1 4681.20 102.110   1
  -1  -6  -1 3869.60 80.2500   1
  -1  -6  -1 3839.49 73.4600   1
   1   6   1 4299.47 100.830   1
  -1  -6   1 4689.06 91.0800   1
  -1   6  -1 4507.64 96.1900   1
  -1   6   1 4321.52 70.7400   1
  -3  -3   2 8431.31 98.1900   1
  -3   3  -2 7668.71 102.330   1
   3   3  -2 8145.78 102.720   1
   3  -3   2 8961.92 125.720   1
   3   3  -2 7895.60 98.8900   1
  -3   3   2 7777.79 96.3200   1
   3  -3  -2 8167.59 104.700   1
   3  -3  -2 8274.10 96.4200   1
   3  -3   2 7805.06 94.2400   1
  -3   3   2 8186.54 106.520   1
   3  -3   2 7778.07 156.240   1
   3   3  -2 8669.10 115.550   1
  -3  -3   2 7966.25 113.030   1
  -3   3  -2 8800.84 146.410   1
   3  -3  -2 7787.03 114.900   1
  -3  -3  -2 8522.15 124.320   1
  -3   3  -2 8773.79 179.100   1
   3   3   2 7338.54 124.370   1
  -3   3  -2 7300.45 137.080   1
  -3   3   2 7409.22 139.000   1
   3  -3   2 7340.95 126.110   1
  -3  -3  -2 8265.02 125.000   1
   3   3   2 8262.45 108.910   1
   4   0  -2 13340.4 127.590   1
   4   0   2 13836.3 140.390   1
   4   0  -2 14231.0 141.300   1
  -4   0   2 14863.8 156.420   1
  -4   0   2 14627.2 138.060   1
   4   0  -2 13084.1 132.930   1
  -4   0  -2 13841.5 154.520   1
  -4   0  -2 14260.7 159.680   1
  -4   0   2 14480.0 127.500   1
  -2  -4   2 145.890 24.7800   1
   2  -4  -2 106.040 39.6100   1
   2  -4   2 84.1400 31.8200   1
  -2   4   2 103.140 28.7000   1
  -2  -4  -2 140.770 29.2000   1
   2   4   2 103.720 21.3000   1
  -2  -4   2 101.160 18.4400   1
   2   4  -2 98.4200 16.0900   1
  -2   4   2 88.4100 18.7200   1
   2  -4   2 114.820 17.7500   1
  -2  -4  -2 166.740 32.4000   1
   2  -4  -2 116.440 17.0100   1
   2  -4   2 122.940 18.8000   1
  -2   4   2 133.050 26.5300   1
   2  -4  -2 145.840 35.3500   1
   2   4  -2 160.510 26.3600   1
   2  -4  -2 180.590 30.6000   1
  -2   4   2 166.480 28.5400   1
  -2  -4  -2 142.860 24.3400   1
   2   4   2 107.870 21.2700   1
  -2   4   2 178.170 32.4700   1
   2   4  -2 135.980 16.7700   1
  -4  -1   2 1254.46 44.9400   1
  -4   1   2 1297.20 50.3800   1
   4  -1  -2 1205.34 41.3700   1
  -4  -1  -2 1268.26 47.0400   1
  -4   1  -2 1233.61 48.0900   1
   4   1  -2 1231.45 50.2000   1
  -4  -1   2 1244.46 52.4200   1
   4  -1   2 1042.53 34.3100   1
  -4  -1  -2 1234.13 49.6200   1
  -4   1  -2 1336.05 52.3400   1
  -4   1  -2 1067.34 36.5400   1
  -4   1   2 1244.51 38.4800   1
  -4  -1  -2 982.450 31.4500   1
  -4  -1   2 1206.87 40.5500   1
   4   1   2 1218.03 43.0600   1
  -4  -1  -2 1051.23 47.3200   1
  -4   1  -2 1005.80 48.6500   1
   4  -1  -2 1305.86 42.7400   1
   4  -1   2 1165.07 44.0800   1
   4   1   2 1100.31 40.8500   1
   4   1  -2 1124.03 42.0500   1
  -4   1   2 1265.51 36.8000   1
   4  -1  -2 1161.20 44.9500   1
   4  -1  -2 1109.66 39.2900   1
  -4  -1   2 1096.99 41.7400   1
  -4   1   2 1397.77 46.3900   1
   4   1  -2 1170.08 42.4700   1
  -4   5   0 102270. 395.630   1
  -4   5   0 103024. 369.960   1
  -2  -6   1 11185.0 142.910   1
   2   6   1 9954.36 159.410   1
   2   6   1 9983.22 102.540   1
  -2  -6  -1 10566.8 114.140   1
   2  -6  -1 9846.56 136.220   1
  -2   6  -1 10639.6 173.350   1
   2  -6  -1 10009.5 121.800   1
  -2  -6   1 10808.5 133.320   1
  -2   6  -1 10798.3 149.540   1
  -2  -6  -1 9731.94 121.740   1
  -2  -6   1 9531.72 96.9500   1
  -2   6  -1 10819.3 144.580   1
  -2   6   1 10485.3 147.740   1
  -6   0   0 16558.3 177.200   1
   6   0   0 16675.7 165.250   1
   6   0   0 14873.2 156.220   1
   6   0   0 15021.9 134.700   1
  -5   3   1 9494.28 103.690   1
   5  -3  -1 9737.32 116.090   1
   5   3   1 9393.22 134.740   1
  -5  -3   1 9985.10 128.040   1
  -5  -3  -1 9163.64 115.310   1
   5  -3  -1 9771.95 102.880   1
  -5   3   1 10042.3 117.490   1
  -5   3  -1 9706.32 107.250   1
   5  -3   1 8551.10 113.700   1
   5  -3  -1 9666.80 120.260   1
   5   3   1 8656.80 133.830   1
  -5  -3  -1 9077.97 129.000   1
   5   3  -1 9292.83 126.940   1
  -5   3   1 9427.66 132.420   1
   5  -3  -1 9890.23 132.100   1
  -5   3  -1 9898.10 133.230   1
  -5  -3   1 9455.08 125.520   1
  -5   3   1 9849.47 119.170   1
  -5   3  -1 8806.23 126.500   1
   5  -3   1 9214.36 110.640   1
  -5  -3  -1 8939.21 115.720   1
  -3   6   0 42778.5 305.930   1
   3  -6   0 40872.1 290.130   1
  -3  -6   0 41016.7 264.540   1
  -3   6   0 39886.9 263.140   1
   0   5   2 -0.2200 18.5700   1
   0  -5  -2 -13.290 25.1600   1
   0  -5   2 1.82000 21.5400   1
   0   5   2 1.04000 41.5400   1
   0  -5   2 9.75000 18.1600   1
   0   5  -2 0.76000 14.5000   1
   0  -5   2 -1.0800 16.1300   1
   0   5   2 9.04000 19.0900   1
   0  -5  -2 -12.640 30.3000   1
  -4   2  -2 1723.58 56.1600   1
   4   2  -2 2013.52 59.1000   1
   4  -2  -2 1864.78 54.7500   1
  -4   2   2 1937.10 50.8800   1
  -4  -2   2 1923.52 56.8500   1
   4   2  -2 1971.45 55.7000   1
  -4   2  -2 1735.36 49.9200   1
  -4   2   2 1898.60 48.0900   1
   4  -2  -2 2040.38 55.4800   1
  -4   2   2 1890.26 58.5400   1
   4  -2   2 1783.79 44.7100   1
  -4   2  -2 1767.13 71.8200   1
  -4  -2  -2 1712.72 46.8900   1
   4   2  -2 1625.89 43.4200   1
  -4   2   2 2180.58 54.7900   1
  -4  -2   2 1656.60 41.1100   1
   4   2   2 1537.32 50.0700   1
  -4  -2  -2 1969.78 60.4300   1
  -4  -2  -2 2012.74 63.0200   1
   4  -2   2 1692.69 57.5400   1
  -4  -2  -2 1859.62 60.7200   1
  -4  -2   2 1878.46 54.3500   1
   4   2   2 1706.52 52.9100   1
   4  -2  -2 1925.24 53.0800   1
   4  -2  -2 1738.68 43.2900   1
  -6  -1   0 6723.55 93.0300   1
  -6   1   0 6532.64 86.6400   1
   6  -1   0 6772.31 103.850   1
  -6  -1   0 6619.85 95.7900   1
   6  -1   0 7460.79 120.610   1
  -6  -1   0 6474.97 101.470   1
  -6   1   0 6678.84 107.290   1
   6  -1   0 6840.42 87.4000   1
   6   1   0 6690.38 84.5400   1
   6   1   0 7224.04 119.720   1
   6   1   0 7151.99 123.680   1
   0   7   0 6.76000 23.1500   1
   0   7   0 6.01000 11.8100   1
   0  -7   0 13.0800 15.7800   1
   0  -7   0 -2.1300 20.7900   1
   5  -4   0 112013. 407.750   1
  -5   4   0 115571. 402.700   1
  -5   4   0 115197. 475.760   1
   5  -4   0 113317. 366.410   1
   5  -4   0 112112. 459.630   1
  -5  -4   0 111923. 400.590   1
  -1  -5   2 853.160 41.7500   1
  -1   5   2 830.870 40.6200   1
   1   5   2 849.030 37.9300   1
  -1  -5   2 915.040 33.6500   1
   1  -5   2 808.170 30.4400   1
   1   5  -2 941.530 40.5300   1
  -1   5  -2 940.440 38.7700   1
  -1  -5  -2 988.660 45.6100   1
  -1   5  -2 951.600 68.1800   1
  -1   5   2 877.080 40.4500   1
   1   5   2 887.550 51.6800   1
   1  -5   2 1036.59 76.3700   1
  -1   5   2 974.060 47.3600   1
  -1  -5  -2 947.380 40.1000   1
   1  -5  -2 1185.78 48.1900   1
   1   5  -2 1028.26 44.0000   1
   1  -5   2 935.630 54.0300   1
   1  -5  -2 1007.55 53.6200   1
  -1   7   0 1179.93 38.9000   1
   1   7   0 1150.72 38.3700   1
   1  -7   0 1225.13 37.6900   1
   1  -7   0 1235.24 44.5500   1
  -1   7   0 1168.30 67.0200   1
  -1  -7   0 1234.86 42.4000   1
   1   7   0 1412.94 58.5900   1
  -1   7   0 1453.15 59.7800   1
  -1  -7   0 1516.95 52.8100   1
   3   4   2 6257.08 134.850   1
  -3   4  -2 6361.52 148.230   1
  -3   4   2 6631.32 142.130   1
  -3  -4  -2 6619.58 110.540   1
   3   4  -2 7058.16 113.990   1
  -3  -4   2 7034.21 108.690   1
  -3  -4  -2 6381.60 113.560   1
  -3   4   2 5943.82 95.9700   1
   3   4  -2 6710.96 119.370   1
  -3   4   2 7285.75 127.090   1
   3  -4  -2 6097.49 105.800   1
   3  -4   2 6574.13 170.760   1
  -3  -4   2 6145.87 123.390   1
  -3   4   2 6695.16 132.670   1
   3  -4   2 6485.59 101.680   1
   3  -4  -2 6600.43 93.6500   1
  -3  -4  -2 6541.70 115.300   1
   0   0   3 -21.550 27.1000   1
   0   0   3 -6.5700 19.8900   1
   0   0   3 13.1800 21.2000   1
   0   0   3 12.0600 17.7200   1
   0   0  -3 23.6700 36.3700   1
   0   0  -3 24.2100 23.7500   1
   0   0   3 27.5200 23.8700   1
  -6  -2   0 8126.13 132.180   1
  -6  -2   0 7166.88 100.190   1
  -6   2   0 7693.38 128.100   1
   6   2   0 7177.67 98.1400   1
   6  -2   0 7756.11 114.460   1
   6   2   0 7761.05 137.520   1
  -6   2   0 8719.28 126.820   1
  -6  -2   0 8012.73 114.370   1
  -6   2   0 8157.02 114.190   1
   6  -2   0 8558.65 131.040   1
   6  -2   0 7658.85 118.230   1
  -4   5   1 8606.49 152.930   1
   4  -5  -1 7672.93 118.790   1
  -4  -5  -1 8576.40 145.030   1
  -4   5  -1 8572.75 153.530   1
   4  -5  -1 8593.41 137.300   1
   4  -5   1 7781.00 134.650   1
  -4  -5   1 8276.54 134.360   1
  -4  -5  -1 7385.28 133.820   1
   4  -5   1 7896.06 155.010   1
   4  -5  -1 7513.23 126.580   1
   4  -5   1 8016.82 128.500   1
  -4   5   1 7830.25 122.770   1
  -4   5  -1 7974.43 124.460   1
   4  -5   1 7659.39 109.660   1
  -4  -5  -1 8845.47 149.350   1
  -4   5   1 7668.60 106.900   1
  -4  -5   1 8522.69 110.960   1
   4   5   1 8005.98 113.990   1
  -4  -5  -1 8081.40 110.870   1
   4  -5   1 7550.33 128.640   1
   0  -1  -3 57432.3 406.010   1
   0   1   3 58168.9 287.240   1
   0  -1   3 55024.8 446.020   1
   0   1   3 59547.9 422.040   1
   0   1   3 59260.7 322.000   1
   0  -1   3 57607.8 328.360   1
   0  -1  -3 57815.8 331.510   1
   0   1   3 58466.3 326.440   1
   0  -1   3 56772.1 338.170   1
   1   0  -3 -2.7400 19.4900   1
  -1   0   3 -8.7800 20.7300   1
  -1   0  -3 1.76000 21.7900   1
   1   0   3 -7.9600 19.9500   1
   1   0  -3 11.1200 21.8300   1
   1   0   3 -5.2400 23.1000   1
  -1   0  -3 13.5600 38.9300   1
  -1   0   3 8.98000 18.1200   1
  -1   0   3 -0.1000 18.4900   1
   1   0   3 1.22000 14.2500   1
  -1   0   3 9.16000 23.0900   1
  -1   0   3 7.46000 32.5200   1
   1   0   3 2.23000 31.0200   1
  -1   0   3 -10.640 18.8600   1
   4   3  -2 2686.13 68.7300   1
   4  -3   2 2521.08 69.2500   1
  -4   3   2 2980.05 67.0100   1
   4  -3  -2 3252.85 78.6700   1
  -4  -3  -2 3467.12 86.1000   1
   4  -3   2 3436.22 91.1000   1
   4   3  -2 3520.72 82.2900   1
  -4  -3   2 2808.52 71.7500   1
  -4   3   2 3305.18 85.5400   1
  -4  -3  -2 3255.54 80.8200   1
  -4  -3   2 3051.29 62.0700   1
  -4   3   2 3017.05 64.8800   1
  -4   3   2 3408.52 68.1000   1
   4  -3  -2 2984.84 65.9300   1
  -4  -3   2 3435.80 86.3700   1
  -4  -3  -2 2629.51 60.3800   1
   4  -3  -2 2792.53 58.2100   1
   4  -3   2 3107.10 63.4700   1
  -4   3  -2 2830.54 78.5000   1
   4  -3   2 2874.75 73.3100   1
  -4   3   2 2883.63 102.950   1
  -4   3  -2 2657.81 83.9000   1
  -4   3  -2 2881.13 66.6700   1
  -4  -3  -2 2769.51 71.4700   1
   4   3   2 2806.92 63.3900   1
   2   5  -2 2189.48 63.1500   1
   2  -5  -2 1915.33 49.5100   1
  -2   5   2 1654.98 53.1200   1
   2  -5   2 1853.71 50.2500   1
   2   5  -2 1803.47 54.6800   1
  -2  -5   2 1681.33 44.4000   1
   2  -5  -2 2295.93 62.6000   1
  -2   5   2 2127.90 73.2100   1
  -2  -5   2 1534.13 56.4300   1
  -2  -5  -2 2177.24 71.4100   1
   2   5   2 1836.64 68.6700   1
  -2  -5  -2 1990.25 79.2900   1
   2   5   2 1631.06 46.5800   1
   2  -5   2 1877.96 50.4700   1
  -2   5   2 1706.25 58.7600   1
   2  -5  -2 1707.09 66.8300   1
   2  -5   2 1664.04 71.4300   1
  -2  -5  -2 1883.22 60.7800   1
   2  -5  -2 2045.44 87.8100   1
  -2   5  -2 1778.25 69.8900   1
  -2   5   2 1971.03 61.1000   1
  -6   0   1 1599.32 49.8400   1
   6   0  -1 2175.07 60.9700   1
  -6   0  -1 1923.26 58.3000   1
   6   0   1 2144.63 67.6900   1
   6   0  -1 1784.62 51.0900   1
  -6   0  -1 1740.65 45.3400   1
   6   0   1 1983.01 52.1300   1
   6   0  -1 2104.91 51.9400   1
   6   0  -1 1854.22 52.8400   1
   6   0   1 2087.99 56.4800   1
  -6   0   1 1933.15 51.0600   1
  -6   0   1 2194.21 54.0100   1
  -6   0  -1 1882.69 50.6000   1
   3   6  -1 399.430 28.2700   1
   3  -6   1 429.730 52.6600   1
  -3   6   1 377.210 22.7700   1
   3   6   1 373.680 21.9700   1
  -3  -6   1 380.670 21.4800   1
   3   6  -1 374.660 23.3100   1
  -3   6   1 440.710 33.4000   1
   3  -6   1 387.470 26.5900   1
   3  -6  -1 397.360 23.1800   1
   3  -6   1 431.410 26.4900   1
  -3   6  -1 372.820 27.3500   1
  -3   6   1 399.790 28.9600   1
   3  -6  -1 515.460 53.8100   1
   3  -6  -1 391.590 43.8100   1
   3  -6   1 334.620 38.1900   1
  -3  -6  -1 424.990 25.7400   1
   3  -6  -1 540.060 35.0300   1
   3   6   1 400.170 33.0900   1
  -3  -6  -1 466.610 31.8400   1
  -3   6  -1 479.810 32.4300   1
  -3   6   1 339.750 26.4300   1
   3  -6  -1 479.360 33.2400   1
   3  -6   1 387.000 29.3400   1
  -3  -6   1 323.520 25.0400   1
  -1   1   3 4995.08 127.160   1
  -1  -1  -3 5248.00 120.900   1
  -1  -1   3 5557.45 142.700   1
  -1   1  -3 4615.05 119.010   1
   1  -1  -3 4853.31 113.020   1
   1  -1   3 5114.93 105.260   1
  -1  -1  -3 5565.45 115.610   1
   1   1  -3 4788.67 107.080   1
   1   1  -3 5335.68 108.300   1
   1  -1   3 4289.73 92.7700   1
  -1   1   3 4371.83 86.7800   1
  -1  -1   3 5373.25 100.370   1
  -1  -1  -3 4992.30 92.1500   1
   1   1   3 5605.77 111.920   1
   1  -1   3 5036.96 90.6200   1
  -1   1   3 5245.27 90.1500   1
  -1  -1   3 4405.37 77.2800   1
   1  -1   3 4577.35 109.820   1
   1   1   3 4908.15 115.620   1
   1   1   3 5356.96 115.000   1
  -1   1   3 4756.75 100.160   1
   1  -1  -3 5587.10 114.280   1
  -1   1  -3 4405.89 93.6500   1
  -1  -1   3 5297.82 106.660   1
   2  -7   0 52771.2 309.570   1
   2   7   0 53427.7 369.930   1
  -2  -7   0 51895.1 471.330   1
  -2   7   0 54041.6 327.160   1
  -2   7   0 55437.8 469.010   1
  -2  -7   0 55318.2 238.240   1
   6  -1  -1 2453.81 60.5800   1
   6   1   1 2349.35 61.6300   1
   6   1  -1 2369.68 62.7700   1
   6  -1  -1 1998.96 54.8000   1
   6  -1  -1 2473.27 65.8300   1
  -6   1   1 2253.57 51.5500   1
  -6  -1   1 2358.07 52.0200   1
   6   1   1 1945.82 50.9500   1
   6  -1   1 2038.03 52.9200   1
  -6  -1  -1 2282.84 56.0500   1
  -6   1  -1 2320.15 60.0700   1
   6   1  -1 2138.90 50.3300   1
   6   1  -1 2033.86 55.9100   1
  -6   1   1 2049.17 48.5600   1
  -6   1  -1 2240.00 57.2000   1
  -6   1   1 2031.58 50.3300   1
  -6  -1  -1 2200.19 53.2600   1
   6  -1   1 2028.10 51.7900   1
  -6  -1   1 2318.18 58.1400   1
   6   1   1 2302.43 72.8200   1
   6  -1   1 2266.81 66.1400   1
  -6  -1  -1 2069.12 59.7300   1
   6   1  -1 2309.17 64.3700   1
  -6   1  -1 2229.67 68.2100   1
   6  -1  -1 2094.95 61.7000   1
  -6  -1   1 2190.96 66.9000   1
  -6   1   1 2325.11 69.6900   1
   0   7   1 62355.4 245.800   1
   5   4  -1 5745.86 102.300   1
   5  -4  -1 5509.66 92.5500   1
  -5  -4   1 5682.99 91.5300   1
  -5  -4  -1 5246.77 86.3400   1
  -5   4  -1 5981.29 95.9000   1
  -5  -4  -1 5431.46 114.260   1
  -5   4   1 6354.78 122.740   1
   5   4   1 5381.51 89.2600   1
   5  -4   1 5591.40 102.780   1
  -5   4  -1 5437.00 115.790   1
  -5  -4   1 6032.13 111.530   1
  -5  -4  -1 5273.45 97.2400   1
   5  -4  -1 6186.25 91.0500   1
  -5   4   1 5638.18 95.7400   1
  -5   4  -1 5464.30 95.3900   1
   5  -4   1 5982.52 91.6500   1
  -5   4   1 5764.28 94.5800   1
  -5   4  -1 5108.24 113.360   1
   5  -4  -1 6139.77 109.980   1
   5  -4   1 5188.45 102.430   1
  -5  -4   1 5565.46 100.410   1
   5   4  -1 6010.99 112.300   1
  -5  -4  -1 5652.95 118.380   1
   5  -4   1 5587.09 102.950   1
  -5   4   1 5129.37 90.3600   1
   0  -2  -3 81.2800 45.1000   1
   0  -2   3 10.0700 42.9900   1
   0   2   3 13.9600 31.4600   1
   0  -2   3 1.07000 15.4100   1
   0  -2   3 7.84000 15.5900   1
   0   2   3 18.8500 24.6700   1
   0   2  -3 7.87000 18.4000   1
   0  -2  -3 20.1300 24.3900   1
   0  -2   3 -9.0900 19.1300   1
   0   2   3 8.39000 21.7300   1
   5   0   2 8.94000 16.0300   1
   5   0  -2 5.61000 27.0500   1
   5   0  -2 21.5700 27.5500   1
  -5   0   2 9.75000 25.7600   1
   5   0   2 -3.9800 14.4900   1
  -5   0   2 36.3100 22.3900   1
  -5   0  -2 11.0400 14.9600   1
  -5   0   2 55.5700 26.0200   1
   5   0  -2 10.2300 25.8400   1
  -5   0   2 24.1800 25.0700   1
  -1   7  -1 937.090 38.6100   1
  -1   7   1 998.200 98.2300   1
  -1  -7   1 936.560 32.0900   1
  -1   7  -1 883.590 59.1400   1
   1   7   1 929.880 47.5100   1
  -1  -7   1 916.400 40.7100   1
  -1   7   1 916.830 49.4500   1
  -1  -7  -1 912.530 40.6000   1
   1  -7   1 737.450 45.3300   1
   1  -7  -1 873.990 70.0300   1
   1  -7  -1 725.330 43.3800   1
  -1  -7   1 1028.64 44.6700   1
  -1   7   1 1042.83 57.6400   1
   1   7   1 998.530 32.8700   1
   1   7  -1 986.070 38.2800   1
  -1  -7  -1 1104.32 41.0800   1
   6   3   0 2.43000 15.4100   1
   6  -3   0 23.7400 12.2000   1
   6   3   0 6.79000 23.9500   1
  -6  -3   0 54.0800 19.7200   1
   6  -3   0 26.8900 16.1200   1
  -6   3   0 33.9700 14.0400   1
  -6   3   0 42.5900 15.0500   1
   6  -3   0 33.9800 18.7200   1
   6   3   0 23.2900 21.4500   1
  -6  -3   0 49.1800 20.4400   1
   6  -3   0 43.5000 22.0800   1
  -6   3   0 67.7900 27.1100   1
  -6   3   0 18.3500 15.5600   1
  -6  -3   0 -0.2100 15.9800   1
   2   0   3 2313.64 55.7100   1
  -2   0   3 2612.57 66.0800   1
   2   0  -3 2558.81 65.7000   1
  -2   0   3 2794.30 63.0800   1
   2   0   3 2123.65 65.7400   1
  -2   0  -3 1996.16 75.4600   1
  -2   0   3 2256.76 88.1400   1
   2   0   3 2636.57 74.1000   1
   2   0  -3 2617.29 71.2500   1
  -2   0  -3 2272.64 60.4200   1
   2   0  -3 2877.98 76.3400   1
  -2   0  -3 2443.26 74.7400   1
  -1   2   3 8999.77 142.560   1
  -1   2   3 9372.87 131.500   1
   1   2   3 8716.09 151.340   1
  -1   2   3 7885.16 153.590   1
   1  -2   3 8182.16 155.310   1
  -1  -2  -3 9259.87 173.450   1
   1  -2  -3 9716.05 200.070   1
  -1  -2   3 9065.61 173.150   1
  -1   2  -3 8657.38 144.460   1
   1   2  -3 9944.90 158.930   1
   1  -2  -3 8149.23 206.990   1
   1   2  -3 8637.09 133.470   1
  -1   2   3 8865.63 133.110   1
   1  -2   3 8677.54 137.570   1
  -1  -2   3 8574.09 129.250   1
   1  -2   3 8782.28 119.020   1
  -1  -2   3 8767.85 147.130   1
   1   2   3 9869.08 167.040   1
   1  -2   3 9268.08 140.170   1
   5  -1   2 9755.76 152.810   1
  -5   1  -2 9553.34 163.930   1
  -5  -1  -2 9488.86 145.780   1
  -5  -1  -2 9050.06 140.990   1
   5  -1   2 9308.46 140.840   1
   5   1   2 9167.23 130.210   1
  -5  -1   2 9293.58 119.130   1
   5  -1  -2 10375.0 145.490   1
   5   1  -2 9938.69 153.610   1
  -5   1  -2 8777.77 150.500   1
   5  -1  -2 8957.07 129.940   1
   5  -1  -2 10118.7 134.100   1
  -5  -1   2 9821.51 147.600   1
  -5   1   2 9228.82 145.290   1
  -5   1   2 9942.06 132.950   1
   5  -1   2 9891.17 132.110   1
  -5  -1  -2 10222.4 166.630   1
   5   1   2 9332.07 133.150   1
  -5  -1   2 9896.50 133.370   1
  -5   1   2 9464.00 127.560   1
   5   1  -2 10154.8 148.370   1
   5  -1  -2 9858.69 138.410   1
  -4  -6   0 496.230 32.0600   1
  -4  -6   0 510.360 25.5800   1
   4   6   0 473.530 22.8900   1
   4  -6   0 493.410 25.9800   1
  -4   6   0 426.210 26.7400   1
   4  -6   0 540.640 47.5600   1
  -4  -6   0 501.900 39.3000   1
  -4   6   0 452.920 32.4500   1
   4  -6   0 445.970 31.0000   1
   6   2   1 5064.73 85.6900   1
   6  -2  -1 5560.49 94.0300   1
   6   2  -1 5446.48 105.920   1
   6   2   1 6115.87 112.240   1
  -6  -2   1 5651.12 95.8800   1
  -6  -2  -1 5314.23 88.7500   1
   6  -2  -1 5545.04 89.9700   1
   6  -2   1 5836.88 88.0900   1
  -6   2   1 5988.89 103.080   1
  -6   2  -1 4882.10 84.2500   1
   6   2  -1 5202.51 97.1700   1
  -6   2   1 5131.14 86.9400   1
   6  -2   1 5078.46 96.2600   1
   6  -2  -1 5196.44 94.7800   1
   6   2   1 5180.41 103.170   1
  -6  -2  -1 5246.52 102.580   1
   6  -2   1 6179.99 117.190   1
  -6  -2   1 5678.65 109.590   1
   6  -2  -1 5301.14 103.520   1
  -6   2  -1 5357.84 104.010   1
  -6   2   1 5008.26 102.590   1
   6  -2   1 5021.42 92.3400   1
  -6  -2  -1 5575.10 97.8000   1
  -6   2  -1 5723.34 99.7500   1
   6   2  -1 5942.35 117.480   1
  -2  -1  -3 9009.34 144.800   1
   2   1   3 9105.88 153.830   1
   2  -1   3 8549.85 146.420   1
  -2  -1   3 8734.17 177.560   1
   2  -1   3 8524.06 148.440   1
   2   1  -3 9367.13 136.560   1
   2   1   3 8628.45 133.010   1
  -2  -1   3 8475.29 141.980   1
  -2   1   3 9648.00 131.620   1
  -2  -1   3 8766.39 117.410   1
   2   1   3 8296.49 149.010   1
  -2   1  -3 8117.65 153.940   1
  -2   1   3 8197.46 165.650   1
  -2  -1  -3 8318.24 159.880   1
   2   1  -3 9165.27 140.310   1
   2   1  -3 9139.74 150.270   1
   2  -1  -3 8529.55 132.970   1
  -2  -1   3 8943.62 149.080   1
  -2   1  -3 8089.07 154.540   1
  -2   1   3 9538.82 146.250   1
  -2  -1   3 9017.68 145.690   1
  -2   1   3 9716.06 172.440   1
  -5   5   0 1289.14 71.0700   1
  -5  -5   0 1311.12 49.5800   1
  -5  -5   0 1283.30 43.6900   1
   5   5   0 1207.10 38.4500   1
  -5  -5   0 1153.35 48.7500   1
   5  -5   0 1188.78 37.5800   1
  -5   5   0 1162.51 42.8100   1
  -5   5   0 1214.23 43.6200   1
   5  -5   0 1363.21 53.2600   1
   5   5   0 1192.67 47.2300   1
   5  -5   0 1217.62 51.7100   1
  -5   5   0 1240.84 53.4700   1
   5  -5   0 1198.79 43.9800   1
   5  -5   0 1591.62 63.2400   1
   0  -6   2 39498.2 347.360   1
   0   6  -2 39001.5 374.620   1
   0   6   2 38440.8 355.090   1
   0   6   2 40798.3 521.370   1
   0  -6   2 38289.5 378.610   1
   0  -6  -2 40773.8 386.180   1
   0   6   2 39553.3 416.370   1
   0  -6  -2 36973.1 401.940   1
   0  -6  -2 40859.5 396.450   1
   0  -6   2 37085.1 370.890   1
  -3   5   2 2015.64 63.1100   1
  -3  -5  -2 1442.31 62.7800   1
   3   5   2 1316.63 51.8800   1
  -3  -5  -2 1655.14 57.7900   1
   3  -5   2 1573.01 44.9000   1
  -3   5   2 1524.83 44.2200   1
   3   5  -2 1449.90 43.8000   1
  -3  -5   2 1773.89 45.2100   1
  -3   5   2 2045.97 60.2600   1
   3   5   2 1527.73 44.0600   1
  -3  -5  -2 1631.83 48.8400   1
  -3   5   2 1663.99 69.1900   1
   3  -5  -2 1474.95 62.2100   1
   3  -5   2 1833.51 60.4700   1
  -3  -5   2 1666.21 56.8800   1
   3  -5  -2 2056.53 62.5500   1
   3  -5   2 1873.60 49.9500   1
  -3   5   2 1783.56 57.3500   1
  -3  -5  -2 1717.83 56.7600   1
   3   5  -2 1812.99 57.2200   1
   3  -5  -2 1703.87 69.6300   1
   3  -5  -2 1805.23 47.7800   1
   3  -5   2 1726.32 68.3900   1
   2  -7  -1 13570.2 192.480   1
  -2  -7  -1 13243.0 163.770   1
  -2   7   1 12573.6 152.170   1
   2   7   1 13018.5 158.960   1
  -2  -7   1 12429.0 148.280   1
  -2   7   1 12586.8 210.840   1
  -2   7  -1 13397.8 237.640   1
  -2  -7   1 12618.9 175.330   1
  -2   7   1 13690.4 201.830   1
  -2   7  -1 11773.0 153.450   1
   2  -7   1 11838.4 144.130   1
   2  -7   1 12450.0 177.240   1
  -2  -7   1 13383.9 185.230   1
  -2   7  -1 12193.2 184.390   1
  -2  -7  -1 14082.8 194.050   1
   5  -2  -2 2284.23 60.0400   1
   5  -2   2 2297.50 61.2600   1
  -5  -2   2 2361.02 53.7300   1
   5   2   2 2001.33 52.1400   1
  -5  -2  -2 2228.93 64.2800   1
  -5   2   2 2435.69 77.3800   1
   5  -2  -2 2595.30 72.3600   1
  -5  -2   2 2085.24 58.9900   1
  -5   2  -2 2265.39 76.3300   1
   5   2   2 2025.08 58.2100   1
   5   2  -2 2340.87 68.2100   1
  -5  -2  -2 2115.61 68.7600   1
  -5   2   2 2518.47 55.7200   1
   5  -2   2 2363.55 74.6700   1
   5  -2  -2 2541.45 73.5900   1
  -5   2   2 2529.85 63.4300   1
   5   2  -2 2285.38 64.3700   1
  -5   2  -2 1984.95 63.0500   1
  -5  -2  -2 2000.03 50.5300   1
   5  -2  -2 2390.31 59.7200   1
   5  -2   2 2024.34 49.7300   1
   5   2  -2 2170.29 57.8900   1
  -5   2   2 2332.40 57.0400   1
  -5  -2   2 2070.60 57.8500   1
  -5  -2  -2 2201.76 69.1900   1
  -5   2  -2 2277.37 58.4200   1
  -4  -4  -2 16335.7 193.740   1
   4   4   2 16662.7 184.910   1
  -4  -4   2 17906.0 188.350   1
  -4   4   2 17934.1 185.420   1
   4  -4  -2 17512.5 197.640   1
  -4  -4  -2 16493.2 190.620   1
   4  -4  -2 18081.8 187.150   1
  -4   4   2 17567.0 199.430   1
  -4   4  -2 17661.4 206.680   1
   4   4  -2 15798.3 186.130   1
   4  -4   2 15692.0 219.610   1
   4  -4  -2 17758.0 216.850   1
   4  -4   2 16739.3 238.930   1
   4  -4   2 18283.1 226.940   1
   4   4  -2 18357.1 220.900   1
  -4  -4   2 17427.4 213.360   1
  -4   4  -2 15776.3 205.670   1
  -4   4   2 16344.5 214.960   1
  -4  -4  -2 18420.3 222.860   1
  -4   4   2 16219.7 194.160   1
  -4   4  -2 17909.3 258.420   1
  -4   4   2 16360.8 262.190   1
   4  -4   2 17140.3 215.130   1
  -1  -6  -2 3669.16 89.1500   1
  -1   6  -2 3348.25 76.7800   1
  -1   6   2 3300.68 103.230   1
   1  -6   2 3535.47 88.0000   1
   1   6   2 3537.14 98.9900   1
   1  -6   2 3567.13 88.1700   1
   1  -6  -2 3876.70 103.620   1
  -1  -6  -2 3763.33 85.1100   1
  -1   6   2 3770.61 83.3100   1
   1   6   2 3745.25 78.8700   1
  -1  -6   2 3152.14 60.8100   1
   1  -6   2 3433.96 67.6800   1
  -1   6   2 3753.78 97.9900   1
   1   6  -2 3366.05 75.7700   1
  -1  -6  -2 4280.07 113.200   1
  -1  -6   2 3392.00 89.5700   1
   0  -3   3 27828.5 304.440   1
   0  -3   3 28095.1 364.660   1
   0   3  -3 31197.0 343.940   1
   0   3   3 29760.9 334.950   1
   0  -3  -3 30529.8 319.180   1
   0  -3  -3 27828.5 345.000   1
   0  -3   3 27962.1 267.710   1
   0  -3   3 28378.3 283.320   1
   0   3  -3 29831.7 312.480   1
   2   2   3 6061.35 126.250   1
   2   2  -3 6391.09 115.650   1
   2  -2   3 5445.75 109.430   1
   2   2  -3 5935.39 105.590   1
  -2  -2   3 5982.54 101.680   1
  -2  -2  -3 6782.32 129.980   1
   2   2  -3 6193.93 108.240   1
  -2   2   3 6432.57 104.720   1
   2  -2   3 5479.15 131.760   1
  -2  -2  -3 6454.35 135.960   1
  -2   2   3 5307.78 118.160   1
  -2   2  -3 6091.49 142.440   1
  -2   2  -3 6019.57 120.910   1
  -2  -2   3 5751.67 111.860   1
   2  -2   3 5611.34 89.4200   1
   3   7   0 2065.12 46.5700   1
   3  -7   0 2256.11 56.4400   1
  -3   7   0 2463.75 74.9900   1
  -3   7   0 2444.68 68.1600   1
  -3  -7   0 2919.77 79.3200   1
   3  -7   0 2669.28 76.4600   1
  -3  -7   0 2807.50 78.1700   1
   3  -7   0 2517.65 76.2400   1
  -3  -7   0 2259.74 52.4500   1
   1   3   3 383.300 31.9300   1
   1   3  -3 280.050 22.1100   1
   1  -3  -3 358.970 23.2300   1
   1   3  -3 272.210 23.1700   1
   1   3   3 329.140 33.0300   1
  -1   3   3 314.100 36.4800   1
  -1  -3  -3 324.350 44.5000   1
   1  -3   3 293.350 38.4600   1
   1  -3  -3 251.480 42.3800   1
  -1   3  -3 291.510 24.3800   1
  -1  -3   3 367.280 52.7000   1
   1  -3  -3 352.740 27.3000   1
  -1  -3   3 340.620 28.5800   1
  -1   3  -3 269.180 38.2000   1
   1  -3   3 336.430 22.9400   1
   1   3   3 288.660 39.7300   1
   1   3  -3 320.880 28.7700   1
  -1   3   3 411.630 31.0400   1
   1  -3   3 308.730 20.6000   1
   1  -3   3 376.060 27.6000   1
  -1   3   3 416.890 30.4600   1
  -1  -3  -3 304.470 28.7500   1
  -1   3   3 328.200 22.1500   1
  -1  -3  -3 265.640 21.0800   1
  -1  -3   3 266.190 20.5200   1
   1  -3   3 297.050 23.7000   1
  -1  -3   3 340.180 25.6900   1
   6  -3   1 2499.92 66.2500   1
   6  -3  -1 3022.90 71.9900   1
  -6  -3  -1 2573.58 76.7000   1
   6   3  -1 2559.28 66.8400   1
   6  -3   1 2539.26 71.2000   1
  -6  -3   1 2373.19 65.1000   1
   6  -3  -1 2330.61 62.1200   1
  -6   3  -1 2494.29 70.1500   1
  -6   3   1 3010.87 81.8200   1
  -6  -3  -1 2430.47 59.0800   1
   6   3   1 2382.42 70.2800   1
   6  -3   1 2746.51 95.3100   1
   6  -3   1 2541.29 64.5300   1
   6   3   1 2275.18 56.3200   1
  -6  -3   1 2673.45 56.4200   1
  -6   3  -1 2363.14 66.9900   1
  -6   3   1 2334.53 54.5000   1
  -6   3   1 2800.50 60.1500   1
   6  -3  -1 2535.89 62.8700   1
   6   3   1 2419.92 72.2300   1
  -6  -3   1 2505.27 61.2000   1
   6  -3  -1 2521.08 54.3600   1
   6  -3   1 2902.02 58.9000   1
  -6   3   1 2709.67 61.5800   1
  -6   3  -1 2947.98 69.6300   1
  -4  -6   1 42057.2 409.130   1
  -4  -6  -1 45603.1 431.070   1
   4  -6  -1 46309.9 502.740   1
  -4   6  -1 41102.1 387.860   1
   4   6   1 42723.8 377.820   1
  -4  -6  -1 43467.2 380.360   1
   4  -6   1 41480.2 404.970   1
  -4   6  -1 41180.7 415.890   1
   4  -6  -1 44935.3 401.930   1
  -4   6   1 41508.3 379.830   1
  -4  -6   1 44415.3 380.900   1
   3   0   3 -10.200 18.8500   1
  -3   0  -3 -5.0800 19.0600   1
  -3   0   3 -4.6900 23.4800   1
   3   0  -3 -9.7100 18.9000   1
  -3   0   3 6.16000 17.3200   1
   3   0   3 -6.9700 15.6300   1
   3   0  -3 -8.4800 15.4000   1
  -3   0  -3 0.95000 13.3500   1
   3   0  -3 21.3100 19.8800   1
  -3   0   3 -3.9900 13.6000   1
  -3   0   3 34.4700 38.4900   1
   3   0   3 14.1300 21.6000   1
  -3   0   3 1.53000 19.2100   1
  -3   0  -3 -6.2700 40.1800   1
   6   4   0 1521.72 46.4800   1
   6  -4   0 1820.39 59.7400   1
  -6   4   0 1590.62 53.8700   1
  -6  -4   0 1581.14 53.4700   1
   6   4   0 1540.39 59.4100   1
   6  -4   0 1730.15 56.5000   1
  -6   4   0 1508.23 47.3100   1
  -6   4   0 1877.05 55.9000   1
  -6  -4   0 1483.71 40.1700   1
   6  -4   0 1860.08 49.7200   1
  -6   4   0 1527.26 56.1300   1
  -6  -4   0 1535.75 51.7200   1
   6  -4   0 1555.44 46.0800   1
  -5  -5  -1 18956.6 229.970   1
  -5  -5   1 17342.5 213.820   1
  -5  -5  -1 18966.3 256.160   1
   5  -5   1 17751.4 220.900   1
  -5  -5   1 16715.0 176.460   1
  -5   5   1 18547.7 226.820   1
   5  -5   1 18728.9 205.200   1
  -5   5   1 18565.5 211.470   1
  -5   5  -1 16328.5 232.680   1
   5   5   1 16858.1 183.660   1
  -5  -5  -1 17741.9 192.140   1
   5  -5   1 17317.9 212.910   1
   5   5  -1 18385.6 229.540   1
   5  -5   1 17893.1 218.780   1
  -5   5  -1 16480.2 245.890   1
  -5   5   1 17159.8 259.360   1
  -5   5   1 17699.0 184.980   1
   5   5  -1 16474.3 182.190   1
   5  -5  -1 18376.1 194.750   1
  -5  -5   1 18364.4 231.300   1
   5  -5  -1 17392.5 204.260   1
   0  -8   0 955.380 32.1600   1
   0   8   0 1136.46 53.3200   1
   0  -8   0 1100.08 48.7400   1
   0   8   0 870.370 32.8200   1
  -2   6   2 7724.95 139.660   1
   2  -6  -2 7582.26 122.520   1
  -2  -6   2 6631.42 125.760   1
   2   6  -2 6905.30 119.990   1
  -2   6  -2 7068.05 162.850   1
  -2   6  -2 7737.17 194.870   1
   2  -6   2 7683.15 212.650   1
   2  -6  -2 6290.60 96.0200   1
   2   6   2 6191.43 128.880   1
   2  -6   2 6725.39 102.030   1
   2   6  -2 6455.17 104.350   1
  -2  -6   2 7396.52 107.400   1
  -2  -6  -2 7428.87 137.230   1
  -2   6   2 6841.78 113.690   1
   2   6   2 6771.69 102.120   1
  -2   6   2 6710.35 115.470   1
  -2  -6  -2 6536.42 113.490   1
   2  -6  -2 6535.83 134.040   1
   2  -6   2 7234.27 148.330   1
  -3   1   3 2807.86 62.2200   1
   3   1  -3 3053.72 74.1100   1
   3  -1  -3 2936.83 70.2300   1
  -3  -1   3 2862.44 70.7300   1
   3   1   3 2926.18 71.1800   1
   3  -1   3 3303.53 70.5600   1
  -3   1   3 2963.30 68.1100   1
  -3   1  -3 2992.10 65.7200   1
  -3  -1   3 3232.64 74.5400   1
  -3   1   3 3089.87 76.4700   1
   3   1  -3 3072.09 73.0200   1
   3  -1  -3 2948.44 68.2600   1
   3  -1   3 2381.50 85.6000   1
   3  -1  -3 3241.35 84.3800   1
  -3  -1   3 3013.81 79.7700   1
  -3   1   3 3416.59 84.6300   1
  -3   1  -3 3064.85 84.2500   1
  -3  -1  -3 3472.76 92.1000   1
   3   1   3 2922.50 87.5100   1
   3  -1   3 3290.27 91.9700   1
   3   1  -3 3335.35 83.1500   1
  -3   1   3 2647.33 100.510   1
  -3   1  -3 2936.52 94.5100   1
  -3  -1  -3 3005.76 90.5100   1
   3  -1   3 2701.10 72.5500   1
   3   1   3 2551.67 69.3900   1
  -3  -1   3 2944.16 63.3400   1
  -7   0   0 838.820 62.1800   1
   7   0   0 1128.92 85.7600   1
   7   0   0 812.380 64.4700   1
  -7   0   0 804.940 79.4000   1
  -7   0   0 670.170 56.8900   1
   7   0   0 727.770 58.2300   1
   7   0   0 901.560 79.0200   1
  -5  -3  -2 470.670 30.5300   1
   5  -3   2 344.010 24.1700   1
   5   3  -2 382.450 25.8000   1
  -5   3  -2 361.280 20.9400   1
  -5   3   2 477.000 26.4400   1
   5  -3  -2 430.750 25.3000   1
   5  -3  -2 442.550 27.8500   1
  -5  -3  -2 416.030 28.3900   1
  -5  -3  -2 483.270 33.1500   1
   5  -3  -2 522.110 32.4800   1
  -5   3  -2 377.940 25.9600   1
   5   3   2 355.560 32.9100   1
   5  -3   2 479.030 33.6600   1
  -5   3   2 500.670 28.8100   1
  -5  -3  -2 406.050 25.5700   1
   5   3   2 440.630 24.2100   1
  -5  -3   2 468.580 33.5100   1
   5   3  -2 457.440 26.4000   1
  -5   3   2 456.150 33.7000   1
  -5  -3   2 481.640 31.3800   1
  -5   3   2 500.290 25.0000   1
   5   3  -2 478.550 30.5200   1
  -5  -3   2 521.950 25.8900   1
   5  -3  -2 442.270 22.3600   1
   5  -3   2 395.060 26.0200   1
  -5   3  -2 421.650 39.5800   1
   5  -3   2 460.240 24.8500   1
  -1   8   0 354.870 21.0700   1
  -1  -8   0 475.800 32.1700   1
  -1   8   0 559.050 38.3300   1
   1  -8   0 425.760 23.3200   1
  -1  -8   0 412.780 23.0200   1
   1   8   0 354.180 19.6000   1
   1   8   0 519.150 35.0100   1
  -1   8   0 420.610 51.1900   1
   1  -8   0 517.480 32.8600   1
   2   3   3 1590.72 57.2400   1
  -2   3   3 1411.34 62.9800   1
  -2  -3   3 1641.39 46.6000   1
   2   3   3 1424.64 61.6000   1
  -2   3  -3 1671.30 71.9900   1
  -2   3   3 1554.08 48.0500   1
   2  -3  -3 1804.41 83.9700   1
   2  -3   3 1481.69 64.6500   1
  -2  -3  -3 1595.40 60.5700   1
   2   3  -3 1704.48 54.9000   1
   2  -3   3 1507.16 44.0100   1
  -2  -3  -3 1314.40 41.3000   1
   2  -3  -3 1618.68 46.8900   1
   2  -3   3 1429.49 41.2600   1
   2  -3   3 1934.67 74.0300   1
   2   3  -3 1705.04 54.2700   1
  -2  -3  -3 1762.28 64.6200   1
  -2   3   3 1631.69 53.8700   1
   2  -3   3 1766.51 83.2100   1
   2  -3  -3 1625.57 70.8400   1
   2   3  -3 1705.16 56.4700   1
  -2   3  -3 1978.64 73.6200   1
  -2  -3   3 1610.18 60.7500   1
   2  -3  -3 2020.77 66.5700   1
  -2   3   3 1584.14 61.2200   1
  -7   1   0 27546.6 269.650   1
   7  -1   0 26443.5 292.160   1
   7  -1   0 28353.0 309.700   1
  -7  -1   0 25419.4 280.240   1
  -7   1   0 26469.7 288.570   1
  -7   1   0 26599.3 258.120   1
  -7  -1   0 28277.6 286.930   1
   7  -1   0 25541.7 256.160   1
  -7   1   0 26937.7 385.150   1
   7   1   0 28313.1 293.320   1
  -7  -1   0 26692.4 265.380   1
   7   1   0 28446.7 302.220   1
   3   7   1 5946.41 90.3600   1
   3  -7  -1 5599.58 129.050   1
   3  -7   1 5777.96 128.990   1
  -3   7   1 6496.04 100.770   1
  -3  -7   1 5748.81 87.9800   1
   3   7   1 5454.09 118.930   1
  -3  -7  -1 5948.28 104.410   1
  -3   7  -1 6051.29 117.950   1
   3  -7  -1 6749.03 118.300   1
  -3  -7   1 6609.29 121.160   1
   3  -7  -1 7093.17 165.880   1
  -3   7  -1 5524.30 113.900   1
   3  -7   1 5980.29 92.0800   1
   3  -7  -1 5998.27 92.7000   1
  -3   7   1 6405.16 120.030   1
   3  -7   1 5841.90 93.8900   1
   3   7  -1 5943.38 96.5500   1
  -3  -7   1 7287.64 156.610   1
  -3  -2  -3 1504.22 56.3400   1
   3   2  -3 1190.40 41.8900   1
  -3   2   3 1439.40 73.6500   1
  -3  -2   3 1487.19 49.3800   1
  -3   2   3 1575.84 56.4300   1
   3   2  -3 1672.17 58.0500   1
   3  -2  -3 1425.62 51.9600   1
  -3   2  -3 1345.60 55.9500   1
  -3   2  -3 1304.87 45.5800   1
   3   2   3 1323.18 61.8300   1
  -3   2  -3 1512.48 56.3900   1
   3  -2   3 1389.26 78.3600   1
   3  -2  -3 1444.96 50.2100   1
  -3   2   3 1621.28 57.4500   1
   3  -2  -3 1656.65 52.9500   1
  -3   2  -3 1325.52 63.7600   1
   3   2   3 1225.50 48.5200   1
  -3  -2   3 1327.21 49.1100   1
   3  -2  -3 1378.43 43.4700   1
  -3   2   3 1397.72 47.1400   1
  -3  -2  -3 1325.15 55.6900   1
   3  -2   3 1266.62 55.9100   1
   3   2   3 1137.04 51.2100   1
  -3  -2   3 1399.72 40.5500   1
  -3   2   3 1291.79 40.1100   1
   3   2  -3 1332.89 46.4500   1
  -3  -2   3 1495.12 56.6900   1
   3  -2   3 1240.61 38.8900   1
  -3  -2  -3 1198.85 39.9500   1
   0  -4  -3 -32.320 35.7800   1
   0   4   3 -6.4700 24.2100   1
   0  -4   3 6.95000 41.1600   1
   0  -4   3 6.27000 17.3300   1
   0   4  -3 0.78000 15.1100   1
   0   4  -3 2.56000 16.1300   1
   0   4  -3 -9.1600 16.3500   1
   0  -4  -3 14.4100 20.3900   1
   0   4   3 10.5300 20.1700   1
   0  -4   3 5.08000 14.8600   1
   7  -2   0 5766.25 107.320   1
  -7  -2   0 5302.66 86.8900   1
   7   2   0 5083.28 87.7500   1
  -7   2   0 5611.22 93.1900   1
   7  -2   0 5119.12 91.7000   1
   7   2   0 5683.15 121.600   1
  -7   2   0 5479.78 89.5300   1
  -7   2   0 5749.88 114.340   1
  -7   2   0 5195.98 110.670   1
  -7  -2   0 5262.95 94.2600   1
  -7  -2   0 5091.95 99.5500   1
   7   2   0 6042.67 123.790   1
   7  -2   0 6098.78 116.220   1
  -1   4   3 26361.2 265.040   1
  -1  -4  -3 27524.8 311.740   1
  -1   4   3 26833.1 319.560   1
  -1   4   3 28091.9 317.350   1
   1   4   3 24672.3 266.440   1
  -1  -4   3 26443.0 253.170   1
   1  -4   3 24815.8 243.200   1
   1   4  -3 26599.5 277.880   1
   1  -4   3 25925.4 333.880   1
  -1  -4  -3 27188.0 283.060   1
  -1  -4   3 26744.3 303.610   1
   1   4  -3 27045.9 305.210   1
  -1   4  -3 26789.3 385.770   1
   1   4  -3 24720.4 260.230   1
   1  -4   3 25849.1 256.690   1
   1  -4  -3 24904.9 251.520   1
   1  -4  -3 25451.1 310.340   1
  -5   6   0 5443.55 113.590   1
  -5  -6   0 5931.11 98.5600   1
   5  -6   0 6310.76 129.260   1
  -5   6   0 6496.32 121.100   1
   5  -6   0 5204.05 109.500   1
  -5  -6   0 5576.35 124.580   1
   5  -6   0 5861.95 119.790   1
  -5  -6   0 5326.65 104.780   1
   5  -6   0 6173.06 130.180   1
   4  -5   2 9677.29 164.680   1
   4  -5   2 9988.59 130.090   1
   4  -5  -2 10129.6 121.550   1
  -4  -5  -2 10836.4 160.160   1
  -4   5   2 10755.4 137.710   1
  -4  -5   2 11165.0 140.800   1
   4   5   2 10168.0 143.000   1
  -4   5   2 10690.7 190.270   1
  -4   5  -2 10666.7 206.380   1
  -4  -5  -2 9784.25 137.760   1
  -4  -5  -2 11145.1 158.530   1
   4   5   2 9610.40 171.930   1
  -4   5  -2 11306.1 175.150   1
  -4  -5   2 9808.78 150.530   1
   4  -5   2 11107.8 157.820   1
   4   5  -2 9904.87 152.400   1
   4  -5   2 10680.2 194.790   1
  -2   8   0 2407.08 75.4300   1
   2   8   0 2715.41 89.7300   1
  -2  -8   0 2803.84 76.1800   1
   2  -8   0 2746.08 78.8400   1
  -2   8   0 2749.31 116.210   1
  -2   8   0 2393.82 66.5400   1
  -2  -8   0 2231.13 52.7900   1
   2  -8   0 2138.16 54.1500   1
  -6  -4  -1 72.5900 18.6200   1
  -6  -4   1 83.4300 22.9700   1
   6   4  -1 108.580 26.7200   1
  -6  -4  -1 104.940 19.9500   1
   6   4   1 95.4700 25.0000   1
   6  -4  -1 101.490 22.2700   1
   6  -4   1 91.2300 18.1100   1
  -6   4   1 84.3300 18.2600   1
  -6   4  -1 84.8800 15.7200   1
  -6   4   1 74.1000 15.6400   1
   6  -4   1 92.4200 17.3100   1
   6  -4  -1 108.130 18.7200   1
  -6  -4  -1 70.0300 21.0000   1
  -6   4  -1 54.1400 24.7800   1
   6   4   1 60.4900 16.8700   1
  -6   4   1 67.8500 14.2200   1
  -6  -4   1 57.7100 15.1000   1
   6   4  -1 62.7200 13.2300   1
  -6   4   1 146.240 25.4200   1
   6  -4   1 60.4300 12.8100   1
  -6   4   1 92.4200 25.0500   1
  -6   4  -1 105.220 21.9700   1
   6  -4  -1 109.690 22.8500   1
   6  -4   1 120.030 23.1200   1
  -6  -4   1 88.1100 23.8100   1
   6  -4  -1 77.0100 15.7400   1
   0  -8   1 -28.670 21.8300   1
   0   8   1 -21.110 19.0000   1
   0   8  -1 6.46000 19.9400   1
   0  -8  -1 -4.9800 22.2800   1
   0  -8  -1 -26.010 21.3900   1
   0   8  -1 -7.7900 14.1900   1
  -4  -7   0 131.180 16.7100   1
   4  -7   0 145.850 18.4700   1
  -4   7   0 178.490 23.5300   1
  -4   7   0 161.060 23.4800   1
   4  -7   0 167.690 38.3200   1
  -4  -7   0 185.310 28.8900   1
   4   7   0 135.570 15.9700   1
  -4  -7   0 201.930 26.7100   1
   4  -7   0 176.900 25.6600   1
  -6   0  -2 46723.1 402.590   1
   6   0   2 45142.8 426.370   1
  -6   0  -2 44909.9 432.180   1
   6   0  -2 47215.2 440.600   1
  -6   0  -2 44627.1 411.100   1
   6   0  -2 44322.2 402.880   1
   6   0  -2 46150.7 415.380   1
   6   0   2 44322.6 396.940   1
  -7   0  -1 5.17000 17.9400   1
   7   0  -1 13.3400 14.2200   1
   7   0  -1 17.0500 21.2600   1
   7   0   1 -19.440 17.0100   1
  -7   0   1 12.3900 12.4300   1
  -7   0  -1 1.58000 14.2600   1
   7   0  -1 9.91000 14.6400   1
   7   0   1 11.6700 18.6900   1
   7   0  -1 33.5000 23.9700   1
  -7   0  -1 -9.9800 16.8500   1
   7   0   1 10.9800 13.9700   1
  -7   0   1 12.3000 12.6700   1
  -7   0   1 6.24000 17.1300   1
  -3   6   2 3588.16 79.7400   1
  -3  -6  -2 3866.74 88.4800   1
  -3   6  -2 4439.33 122.040   1
   3   6   2 3620.18 106.740   1
  -3  -6  -2 3659.20 98.4600   1
   3   6   2 3702.23 76.6600   1
   3  -6  -2 3866.45 124.470   1
  -3  -6  -2 3826.40 77.6500   1
  -3   6   2 3675.95 86.9100   1
   3  -6   2 3266.82 88.6900   1
   3  -6  -2 3494.79 113.590   1
   3  -6   2 3962.86 81.5100   1
  -3  -6   2 3310.61 81.1300   1
  -3   6  -2 3444.07 87.0400   1
   3  -6   2 4124.79 75.9100   1
   3   6  -2 4016.53 88.9700   1
   3  -6  -2 4134.54 78.3700   1
   3  -6   2 3367.77 69.0600   1
  -3  -6   2 3709.98 65.6100   1
   3  -6  -2 3758.98 83.7600   1
  -3   6   2 4112.06 98.3000   1
   1  -8  -1 6561.88 110.580   1
  -1   8  -1 7123.92 196.330   1
  -1   8   1 6387.74 96.8000   1
  -1   8   1 6471.48 165.600   1
   1   8   1 6537.97 137.330   1
  -1   8  -1 5980.17 110.150   1
   1  -8   1 6043.38 91.1000   1
  -1  -8   1 6193.04 91.6200   1
   1   8   1 6256.03 93.7900   1
  -1  -8  -1 6651.06 101.080   1
  -1   8  -1 6488.91 126.810   1
  -1  -8   1 7199.46 129.530   1
  -1   8   1 6141.02 119.930   1
  -1  -8  -1 7128.65 124.320   1
   1  -8   1 6489.33 122.040   1
   1  -8  -1 6723.79 114.720   1
  -1  -8   1 7160.26 122.940   1
  -6   1  -2 15856.7 214.230   1
  -6  -1  -2 14922.8 198.960   1
   6  -1   2 14502.9 175.840   1
  -6  -1   2 15912.4 174.990   1
  -6   1   2 15093.9 165.010   1
   6   1  -2 14683.3 174.790   1
  -6   1   2 16142.8 176.300   1
  -6   1  -2 14403.2 163.960   1
  -6   1   2 16065.5 181.420   1
   6  -1   2 16416.4 224.390   1
  -6  -1   2 14184.9 184.720   1
  -6   1  -2 14112.5 191.580   1
   6   1  -2 14036.3 176.420   1
  -6  -1  -2 14326.1 193.650   1
   6  -1   2 14080.4 166.360   1
  -6  -1   2 16030.9 186.310   1
   6   1   2 15324.5 191.900   1
   6   1   2 14982.9 182.570   1
  -6   1   2 14146.6 188.730   1
   6   1  -2 15641.4 209.890   1
   6  -1  -2 15314.6 187.210   1
   6  -1  -2 14308.9 164.700   1
  -7  -1   1 317.720 26.1600   1
  -7  -1  -1 369.610 25.4700   1
  -7   1  -1 373.510 26.8000   1
   7  -1   1 345.290 23.8100   1
   7   1   1 341.000 22.4000   1
  -7  -1   1 412.730 22.6200   1
  -7   1   1 366.490 21.8200   1
   7   1  -1 320.030 19.3800   1
   7  -1  -1 348.420 21.5800   1
   7   1  -1 445.860 31.8200   1
   7   1   1 335.670 25.9800   1
   7  -1  -1 397.840 27.1800   1
   7  -1   1 332.360 23.8500   1
  -7  -1   1 324.740 20.6300   1
  -7  -1  -1 269.040 19.1300   1
  -7   1   1 354.430 21.8400   1
  -7   1  -1 297.760 21.3000   1
   7   1  -1 291.980 21.6400   1
   7  -1  -1 358.770 25.9700   1
   7   1   1 374.480 30.8000   1
   7  -1   1 323.320 28.8600   1
   7   1  -1 430.060 32.0300   1
  -7  -1  -1 349.650 27.7600   1
   7  -1  -1 355.230 29.5100   1
  -7   1  -1 328.400 27.3800   1
  -7   1   1 350.740 29.3200   1
   7  -1   1 240.550 22.4200   1
   0  -7   2 -3.4800 16.8600   1
   0   7   2 -1.9200 18.6600   1
   0  -7  -2 -12.570 23.6000   1
   0  -7   2 7.30000 15.2500   1
   0   7   2 -12.890 43.8600   1
   0   7  -2 2.97000 15.5400   1
   0  -7   2 -0.4500 13.4000   1
  -5   4  -2 3142.66 82.6400   1
  -5  -4   2 2910.87 81.1900   1
   5   4  -2 3091.70 78.1000   1
  -5  -4  -2 3602.13 95.0800   1
   5  -4  -2 3262.16 75.3600   1
   5  -4   2 3033.48 83.1400   1
   5  -4   2 3347.64 88.0900   1
   5   4  -2 3114.54 80.3100   1
  -5   4  -2 3260.47 73.3700   1
  -5   4  -2 3343.02 96.5300   1
  -5   4   2 3264.85 72.1200   1
   5  -4   2 2940.10 62.5700   1
   5  -4  -2 3613.37 69.6400   1
  -5  -4  -2 2957.26 68.4800   1
  -5  -4   2 3728.47 91.3400   1
   5  -4  -2 3150.61 71.2800   1
   5   4   2 3082.44 70.3700   1
  -5  -4   2 3406.88 70.0100   1
  -5   4   2 3552.21 70.6400   1
  -5   4   2 3160.01 110.070   1
   5  -4   2 3203.95 80.9300   1
  -5  -4  -2 3064.42 71.8600   1
  -5   4   2 3279.55 80.9600   1
  -5  -4  -2 3484.11 89.4700   1
  -3  -3  -3 34941.9 368.730   1
   3   3   3 34251.2 388.800   1
  -3  -3  -3 38402.4 392.010   1
  -3   3   3 36899.3 375.210   1
   3  -3  -3 35322.0 352.220   1
  -3  -3   3 35006.0 369.820   1
   3   3  -3 37486.6 371.850   1
   3   3  -3 36229.3 357.730   1
   3  -3   3 35551.5 321.370   1
   3  -3  -3 35246.3 324.040   1
  -3  -3   3 38190.7 347.790   1
  -3   3  -3 38514.1 444.910   1
  -3   3   3 35626.9 399.010   1
  -6   5   0 20866.1 248.160   1
   6  -5   0 19857.7 222.090   1
   6  -5   0 20083.5 209.130   1
  -6   5   0 19694.9 219.990   1
  -6  -5   0 21319.7 260.260   1
   6  -5   0 22249.7 260.830   1
  -6   5   0 18830.8 241.960   1
  -4   0  -3 26650.4 325.760   1
  -4   0   3 25839.4 281.860   1
  -4   0   3 25179.4 264.060   1
   4   0   3 23903.5 245.030   1
   4   0  -3 24441.0 257.830   1
  -4   0   3 25482.4 243.570   1
   4   0   3 24763.5 277.230   1
  -4   0  -3 24922.6 296.690   1
   4   0  -3 24932.2 272.400   1
   4   0  -3 26340.4 269.410   1
  -4   0  -3 26235.5 297.010   1
   2   4   3 1061.77 47.4300   1
   2  -4  -3 1186.71 70.9800   1
   2  -4   3 1231.80 55.8900   1
  -2   4   3 1413.88 63.6700   1
  -2  -4  -3 1282.32 53.7500   1
   2   4   3 1141.62 43.9600   1
  -2  -4   3 1485.18 43.4800   1
   2   4  -3 1154.54 42.2500   1
   2  -4   3 1412.19 43.1100   1
  -2   4   3 1438.20 44.0000   1
  -2  -4  -3 1171.52 44.9400   1
   2  -4  -3 1169.23 38.3500   1
   2  -4   3 1473.73 45.1800   1
   2   4  -3 1314.11 45.6300   1
  -2   4   3 1323.67 42.6200   1
   2  -4  -3 1454.83 70.5600   1
   2   4  -3 1419.39 54.1600   1
  -2  -4   3 1344.64 49.8700   1
   2  -4  -3 1661.97 54.0200   1
  -2   4   3 1510.10 55.6200   1
  -2  -4  -3 1460.37 55.5700   1
   2   4   3 1472.14 62.9300   1
  -1   7   2 9649.12 143.810   1
  -1   7   2 10440.2 118.280   1
  -1  -7   2 11058.2 111.900   1
  -1   7   2 10041.6 189.640   1
   1  -7   2 10597.0 146.880   1
  -1  -7   2 10032.6 129.160   1
  -1  -7  -2 10647.7 134.110   1
   1  -7   2 10783.2 151.280   1
   1  -7  -2 10333.3 125.940   1
   1   7   2 11079.2 119.350   1
   1  -7   2 10598.3 115.910   1
  -1   7  -2 10129.3 127.690   1
  -1  -7  -2 10844.4 139.470   1
  -1  -7  -2 9880.47 149.950   1
   1   7   2 9480.17 160.970   1
   1  -7  -2 10228.9 143.190   1
   4  -1  -3 741.620 34.0200   1
   4  -1  -3 752.290 37.3000   1
   4   1   3 718.410 32.4900   1
  -4  -1   3 821.210 45.8300   1
   4  -1   3 560.690 24.4800   1
  -4  -1  -3 767.740 43.3400   1
  -4  -1   3 836.280 55.2900   1
  -4   1   3 642.750 40.8800   1
  -4   1   3 767.720 54.5200   1
  -4   1  -3 822.750 55.1100   1
   4  -1  -3 683.960 41.9400   1
  -4  -1   3 751.270 38.7200   1
   4   1   3 647.200 33.0000   1
  -4  -1   3 957.170 58.1400   1
  -4   1   3 693.070 32.0600   1
  -4  -1  -3 551.440 24.0700   1
  -4   1  -3 625.150 27.8900   1
  -4   1   3 612.820 36.5000   1
   4   1  -3 727.230 47.5600   1
   4  -1  -3 669.440 35.4000   1
  -4   1  -3 764.670 40.7800   1
   4   1  -3 642.390 43.4200   1
  -4   1   3 779.260 38.9900   1
  -4   1  -3 718.970 45.8200   1
   4  -1   3 666.540 34.1300   1
   4   1  -3 653.100 42.0700   1
  -4  -1  -3 889.030 50.3200   1
   7   3   0 5723.01 97.0400   1
  -7  -3   0 5283.55 82.4100   1
   7  -3   0 5060.37 70.0600   1
  -7   3   0 5338.91 82.2900   1
  -7   3   0 5733.40 79.8100   1
   7  -3   0 5891.19 91.5700   1
  -7  -3   0 4751.55 94.2000   1
   7  -3   0 5387.51 106.670   1
  -7   3   0 4720.99 93.0900   1
   7   3   0 5023.15 74.4900   1
  -7  -3   0 5586.35 80.3300   1
   7   3   0 5939.05 115.270   1
  -6  -2   2 2770.09 62.6000   1
   6   2   2 2810.30 71.8000   1
  -6  -2  -2 2653.17 68.2400   1
   6  -2   2 3079.11 82.9600   1
   6   2  -2 2739.19 69.3800   1
  -6   2   2 2717.23 58.1600   1
  -6   2  -2 2369.26 50.7700   1
  -6   2   2 2772.11 69.1500   1
   6  -2  -2 2399.02 56.0200   1
  -6   2   2 2535.71 49.2700   1
  -6  -2   2 2517.08 52.3700   1
  -6   2  -2 2265.12 72.6200   1
  -6  -2  -2 2386.13 75.1900   1
   6  -2   2 2230.12 54.1700   1
   6   2   2 2288.01 57.8600   1
  -6  -2  -2 3031.44 85.6000   1
  -6  -2   2 2612.75 66.8400   1
   6  -2  -2 2685.72 65.2300   1
  -6   2  -2 2356.34 65.8000   1
   6   2  -2 2520.26 69.7600   1
   6  -2   2 2444.74 54.2300   1
  -6  -2  -2 2400.34 53.4500   1
   6  -2  -2 2962.63 63.3700   1
  -7   2   1 2450.45 55.5100   1
   7  -2   1 2378.63 62.4600   1
  -7   2   1 2390.19 67.5200   1
   7   2  -1 2672.96 73.7200   1
   7  -2  -1 2151.58 49.4500   1
  -7  -2   1 2544.73 49.6600   1
  -7   2  -1 2478.74 66.6500   1
   7  -2  -1 2534.59 66.4900   1
  -7  -2  -1 2085.68 56.1000   1
   7  -2   1 2731.67 72.8600   1
   7   2   1 2564.60 73.3900   1
   7  -2  -1 2882.14 73.2200   1
   7  -2   1 2250.65 57.3600   1
  -7   2   1 2678.44 55.6800   1
  -7   2  -1 2584.33 62.6700   1
   7   2   1 2482.92 60.7100   1
   7  -2   1 2441.14 51.4800   1
  -7   2   1 2597.01 54.6600   1
  -7  -2  -1 2386.44 53.8400   1
  -7   2  -1 2530.42 63.3500   1
  -7  -2  -1 2583.06 63.3000   1
  -7  -2   1 2633.29 62.5100   1
   7   2   1 2530.54 64.6800   1
  -5   6   1 3177.36 81.4300   1
  -5   6  -1 3282.97 79.3000   1
   5  -6   1 3109.92 74.8000   1
  -5   6  -1 2958.30 67.5300   1
   5  -6   1 3481.38 62.4300   1
   5  -6  -1 3482.54 61.3300   1
  -5  -6  -1 3563.95 84.4500   1
   5   6  -1 3238.68 67.3800   1
  -5   6   1 3658.82 64.7000   1
   5   6   1 3136.94 59.5500   1
  -5  -6  -1 3282.33 63.8800   1
   5  -6   1 3772.24 77.3200   1
   5  -6  -1 3147.31 66.0500   1
   5   6  -1 3247.00 75.0500   1
   5  -6   1 3132.46 88.5700   1
   5  -6  -1 3053.07 76.2500   1
  -5  -6   1 3205.79 74.2100   1
   5  -6   1 2974.54 77.0300   1
  -2   8  -1 4497.85 84.4700   1
  -2   8   1 4386.39 115.550   1
  -2  -8   1 5052.45 96.4200   1
   2  -8  -1 4548.15 89.5200   1
   2  -8   1 4579.53 115.400   1
  -2   8   1 4958.62 101.640   1
  -2  -8   1 4799.53 91.7300   1
   2   8   1 4296.82 99.0200   1
   2   8   1 4289.62 65.5000   1
  -2  -8   1 4856.16 73.7200   1
   2  -8   1 4964.28 79.7400   1
  -2   8  -1 4866.13 97.5800   1
   2   8  -1 4326.43 74.1500   1
   2  -8  -1 4731.61 95.1000   1
  -2  -8  -1 4541.69 71.8600   1
  -2   8   1 4458.49 74.8300   1
   2   8   1 4709.26 78.6300   1
  -3  -8   0 6829.12 116.060   1
   3  -8   0 6721.17 118.370   1
  -3   8   0 6148.28 118.230   1
   3  -8   0 7318.00 101.740   1
  -3  -8   0 7178.08 89.0800   1
  -3  -8   0 7749.56 121.030   1
  -3   8   0 6586.91 112.900   1
  -4   7   1 5078.68 98.9300   1
  -4   7  -1 4962.49 90.0400   1
  -4   7  -1 4020.07 89.2600   1
   4  -7  -1 4145.66 93.7100   1
  -4   7   1 4450.40 88.8600   1
   4  -7   1 4539.64 97.6000   1
  -4  -7   1 4646.85 100.630   1
   4  -7   1 4725.61 85.5800   1
  -4  -7  -1 4747.54 92.8500   1
   4  -7   1 4331.76 96.1600   1
  -4  -7  -1 4575.48 76.2400   1
   4  -7  -1 4641.28 134.250   1
   4   7   1 4684.85 82.7900   1
   4  -7   1 4608.12 123.280   1
  -4  -7   1 4730.34 70.2400   1
  -4   7   1 4981.55 92.0300   1
   4   7  -1 4278.11 70.0800   1
   4  -7  -1 4325.21 65.5700   1
   4  -7   1 4965.19 78.1800   1
   0   5  -3 18779.7 179.100   1
   0  -5   3 18773.1 249.890   1
   0  -5   3 20824.2 273.820   1
   0   5   3 18794.9 215.110   1
   0   5   3 19631.7 210.100   1
   0   5  -3 19496.5 178.360   1
   0  -5  -3 20304.1 235.500   1
   0   5   3 18805.0 201.770   1
  -4  -2   3 15168.3 138.690   1
  -4   2   3 13687.5 159.160   1
   4  -2  -3 15205.0 142.630   1
  -4  -2   3 14859.3 161.100   1
  -4   2   3 15764.8 151.650   1
  -4  -2  -3 14039.5 165.110   1
   4  -2   3 14840.1 133.160   1
   4   2   3 14564.5 172.890   1
   4  -2  -3 14979.9 150.720   1
  -4   2  -3 15037.0 207.040   1
  -4  -2  -3 14965.5 171.280   1
  -4   2  -3 15173.8 191.300   1
  -4  -2   3 14636.8 164.570   1
  -4   2  -3 14919.8 175.480   1
   4   2  -3 14808.9 150.600   1
  -4   2   3 14331.1 129.270   1
   2  -7   2 21684.8 172.280   1
   2   7   2 19925.7 155.260   1
  -2   7   2 20395.4 175.060   1
  -2  -7  -2 20400.9 176.350   1
   2  -7   2 20587.1 241.170   1
   2  -7  -2 21033.0 231.040   1
  -2  -7  -2 19154.5 222.880   1
  -2  -7   2 21580.3 219.680   1
   2  -7  -2 20697.3 170.660   1
  -2  -7   2 19522.5 192.960   1
  -2  -7   2 20543.8 148.020   1
  -2   7   2 21826.5 203.200   1
   2   7  -2 20514.3 172.300   1
  -2   7  -2 19764.0 240.470   1
   1  -5   3 7833.68 98.6600   1
   1   5  -3 7364.13 108.950   1
  -1   5  -3 6990.71 183.830   1
   1   5  -3 8139.00 118.080   1
  -1  -5   3 6805.45 108.890   1
  -1  -5  -3 8176.42 131.750   1
   1   5   3 7350.23 126.110   1
  -1   5   3 6846.49 115.580   1
   1   5   3 6686.63 121.080   1
   1  -5   3 8437.14 225.060   1
  -1  -5   3 6970.89 91.1300   1
   1   5   3 7542.32 122.560   1
   1   5   3 6216.28 194.470   1
  -1   5   3 7632.06 130.930   1
  -1  -5  -3 7123.74 131.620   1
   1  -5  -3 7010.77 126.620   1
   1  -5   3 7022.85 136.230   1
  -6  -5  -1 4494.96 71.0300   1
  -6   5  -1 4934.43 119.880   1
   6  -5  -1 4350.73 92.1500   1
  -6  -5  -1 4775.74 100.890   1
  -6   5   1 4451.07 99.5300   1
  -6   5  -1 4265.60 95.7900   1
   6  -5   1 4931.60 102.370   1
  -6   5  -1 4876.42 83.2200   1
  -6   5   1 4394.66 79.2700   1
   6  -5   1 5005.03 73.0800   1
   6  -5  -1 4412.23 68.6300   1
  -6  -5  -1 4456.84 84.0800   1
   6  -5  -1 4504.06 83.5300   1
  -6  -5   1 5006.22 78.5900   1
   6   5  -1 4403.11 92.5700   1
   6  -5  -1 4527.42 91.0600   1
   6  -5   1 4032.52 88.9100   1
  -6   5   1 4511.22 81.6000   1
  -6   5   1 4837.23 78.0500   1
   6  -5   1 4442.78 89.1600   1
  -3   4   3 319.290 32.6000   1
  -3   4  -3 393.300 47.1600   1
  -3  -4   3 317.880 26.1900   1
   3  -4  -3 372.220 27.4500   1
  -3  -4  -3 428.600 32.0400   1
   3   4   3 306.950 30.0400   1
   3   4   3 291.710 28.3000   1
  -3  -4   3 333.890 22.1600   1
  -3   4   3 315.880 20.6400   1
  -3  -4  -3 399.870 34.4700   1
   3  -4   3 321.160 32.7800   1
   3   4  -3 364.100 25.2700   1
   3  -4   3 312.140 20.1400   1
   3  -4  -3 333.030 20.3000   1
  -3  -4  -3 335.060 22.4300   1
   3  -4   3 350.360 24.0800   1
  -3   4   3 368.660 25.6800   1
   3   4  -3 367.150 32.0100   1
  -6   3  -2 3119.47 63.8100   1
  -6   3   2 3151.95 63.8700   1
   6  -3   2 3053.33 64.1000   1
   6  -3  -2 3500.16 66.3300   1
  -6  -3   2 3171.33 68.0200   1
   6   3   2 3258.41 84.2900   1
   6  -3  -2 3128.25 66.0200   1
  -6  -3   2 3081.40 56.5500   1
  -6  -3  -2 2970.25 83.7600   1
   6   3  -2 2863.34 68.2000   1
  -6   3  -2 3398.43 86.2000   1
  -6  -3  -2 3435.59 75.4500   1
   6  -3   2 3375.47 74.7400   1
  -6   3   2 3373.73 66.9000   1
  -6  -3  -2 3679.06 100.510   1
   6  -3  -2 3309.74 73.7200   1
  -6   3  -2 2743.52 70.0500   1
  -6  -3   2 2949.47 71.1000   1
   6   3  -2 3459.47 74.0000   1
   6  -3   2 3339.52 88.8700   1
   7   3   1 566.810 25.2300   1
  -7   3   1 701.060 28.0500   1
  -7  -3   1 645.540 24.5600   1
   7  -3  -1 649.780 30.8600   1
   7   3   1 692.400 39.1000   1
  -7  -3   1 711.890 32.2100   1
   7  -3  -1 650.000 26.9100   1
  -7   3   1 655.460 29.9400   1
  -7   3   1 682.130 30.2500   1
   7  -3   1 657.580 35.1400   1
   7  -3  -1 613.390 31.8600   1
   7   3   1 636.470 38.2000   1
   7   3  -1 666.430 34.7600   1
  -7  -3  -1 603.120 34.2400   1
   7  -3   1 787.120 39.4900   1
   7  -3  -1 676.370 35.4400   1
  -7   3  -1 756.220 38.6500   1
  -7   3   1 648.110 35.4600   1
  -7   3   1 856.760 46.5300   1
   7  -3   1 828.960 31.8200   1
   7  -3   1 666.320 37.4100   1
  -7   3  -1 682.590 38.3800   1
  -7  -3  -1 634.230 27.3500   1
  -4   6   2 708.110 42.2200   1
   4  -6   2 682.550 38.1400   1
   4  -6  -2 821.500 37.2500   1
   4   6  -2 700.630 38.2400   1
  -4  -6  -2 758.060 38.8800   1
  -4   6  -2 688.200 38.4000   1
   4  -6   2 761.540 40.0800   1
  -4  -6   2 628.910 36.3200   1
   4  -6   2 731.780 28.9900   1
  -4   6   2 806.720 34.6800   1
  -4  -6  -2 738.070 34.5200   1
   4  -6  -2 682.460 44.0900   1
  -4  -6   2 681.080 26.9100   1
   4  -6   2 762.100 56.8900   1
  -4   6   2 647.800 29.9200   1
   4  -6   2 734.050 30.6500   1
  -4  -6  -2 746.460 39.4100   1
   4  -6  -2 841.170 32.2400   1
  -4  -6  -2 704.530 45.8900   1
   7   4   0 216.270 25.3000   1
  -7   4   0 221.360 28.5200   1
   7  -4   0 212.460 25.4200   1
  -7   4   0 222.190 20.0300   1
   7  -4   0 215.350 18.5400   1
   7  -4   0 201.900 16.6500   1
  -7  -4   0 206.250 21.3100   1
  -7   4   0 239.420 19.9500   1
   7  -4   0 220.860 23.0300   1
   0  -9   0 -1.2000 26.9900   1
   0   9   0 -10.370 20.4200   1
   0  -9   0 5.61000 21.5200   1
   5  -5   2 2113.29 46.8800   1
  -5  -5  -2 1761.62 85.5200   1
  -5  -5  -2 2385.24 66.0700   1
  -5   5  -2 2280.84 72.5600   1
  -5  -5   2 2126.63 68.3800   1
   5  -5   2 2388.29 70.3800   1
   5   5  -2 2172.38 66.4100   1
  -5  -5  -2 2486.85 77.6300   1
   5  -5   2 2237.83 76.3400   1
   5  -5   2 1909.54 62.7900   1
  -5   5   2 2291.69 59.9300   1
  -5   5  -2 2009.69 54.5400   1
   5  -5  -2 2229.90 46.1600   1
  -5  -5  -2 2109.53 55.3900   1
   5  -5  -2 2243.90 57.2000   1
  -5   5   2 2290.28 52.3400   1
  -5  -5  -2 2328.37 63.9700   1
   5  -5   2 1862.06 54.8900   1
  -5   5   2 1868.80 77.7500   1
  -5  -5   2 1985.12 45.9900   1
  -5   5   2 2274.65 59.4100   1
   5  -5  -2 2613.49 70.2800   1
  -5   5  -2 2047.29 81.9100   1
   3  -8  -1 19.2200 19.7300   1
  -3  -8   1 2.05000 20.3200   1
  -3   8  -1 10.0200 17.6500   1
   3  -8   1 10.1800 16.3800   1
   3  -8  -1 23.5000 22.9100   1
   3  -8   1 24.8500 16.3600   1
  -3   8  -1 14.5500 29.6400   1
  -3   8   1 24.1200 20.7100   1
  -3   8  -1 2.66000 18.3200   1
  -3  -8  -1 -3.0900 21.7200   1
  -3  -8   1 0.79000 18.5700   1
   3  -8   1 8.61000 12.8200   1
   3  -8   1 3.82000 30.2100   1
   3  -8  -1 6.39000 23.7200   1
  -3  -8  -1 8.82000 15.2000   1
   3   8   1 7.88000 15.5300   1
  -3   8   1 27.2200 11.8700   1
   3   8   1 14.0200 11.3100   1
  -3   8   1 26.7600 15.0400   1
  -3  -8   1 8.23000 15.9700   1
   3   8  -1 14.7800 11.7600   1
  -3   8   1 22.1400 23.3600   1
   3  -8  -1 20.8100 14.9400   1
  -4  -3  -3 79.4300 14.6400   1
   4  -3   3 97.7600 15.8800   1
  -4   3   3 89.8300 15.0200   1
   4  -3  -3 102.630 15.9700   1
  -4  -3   3 77.1400 23.8900   1
   4  -3  -3 68.5300 18.4300   1
  -4   3   3 80.9500 15.6800   1
  -4  -3   3 79.8900 26.8500   1
  -4  -3  -3 85.8700 27.8700   1
   4  -3   3 98.7100 25.3000   1
   4   3  -3 98.6400 26.8000   1
  -4   3   3 113.990 21.1300   1
  -4   3  -3 96.5300 20.1100   1
  -4   3  -3 88.6000 18.8900   1
   4   3  -3 93.1000 33.8800   1
  -4  -3   3 64.1500 20.7600   1
   4  -3  -3 111.010 27.0400   1
  -4   3  -3 81.3600 17.0600   1
  -4   3   3 112.640 32.7600   1
   4   3   3 76.4300 22.9000   1
   4   3   3 80.5700 21.5300   1
  -4  -3  -3 101.210 20.4500   1
  -4   3  -3 105.210 41.4500   1
   2   5  -3 6161.63 113.300   1
  -2  -5   3 5691.95 98.4500   1
  -2  -5  -3 6021.25 104.090   1
   2   5   3 6733.29 117.680   1
   2  -5  -3 6065.28 87.4500   1
   2  -5   3 6626.46 89.8100   1
   2   5  -3 5631.20 100.760   1
  -2   5  -3 6159.60 126.080   1
   2  -5  -3 6762.80 159.900   1
   2  -5  -3 5756.60 138.350   1
   2  -5   3 5784.71 120.720   1
  -2  -5  -3 6431.80 115.390   1
  -2   5   3 5895.62 116.520   1
   2   5   3 5967.04 108.840   1
  -2  -5   3 6210.70 85.1100   1
   2  -5   3 6286.92 88.0200   1
  -2   5   3 5881.18 87.6800   1
  -5  -7   0 176.780 17.3700   1
  -5  -7   0 272.280 27.6300   1
   5  -7   0 214.320 25.9300   1
   5   7   0 108.600 13.1000   1
  -5   7   0 201.410 22.6700   1
   5  -7   0 220.530 21.3000   1
  -5   7   0 233.500 26.0400   1
   1   9   0 4402.93 108.990   1
   1  -9   0 4081.32 88.0100   1
  -1   9   0 4297.97 142.130   1
  -1  -9   0 4298.04 68.4500   1
   1  -9   0 3855.35 66.3400   1
  -1  -9   0 4142.41 93.1300   1
  -1   9   0 3603.63 85.2700   1
  -6   6   0 655.200 33.0400   1
   6  -6   0 555.780 32.3200   1
   6   6   0 499.620 31.1600   1
   6  -6   0 576.800 37.3000   1
   6  -6   0 534.580 24.3000   1
   6  -6   0 499.980 28.0000   1
  -6  -6   0 550.930 23.7200   1
  -6   6   0 553.770 35.5100   1
   6  -6   0 725.540 43.8700   1
  -3  -7   2 3650.11 62.7700   1
   3  -7   2 4142.31 70.1200   1
  -3   7   2 3714.32 79.4600   1
   3  -7   2 4441.46 73.1500   1
  -3   7  -2 3356.54 81.8800   1
  -3   7   2 3942.28 80.3200   1
   3  -7  -2 3927.46 115.450   1
   3   7  -2 3874.15 80.9400   1
   3  -7   2 3965.72 94.4700   1
  -3  -7  -2 4671.38 111.940   1
  -3  -7  -2 4445.52 102.480   1
   3  -7  -2 4071.45 112.380   1
   3  -7   2 3920.78 99.3900   1
  -3   7   2 4047.74 83.7400   1
  -3  -7  -2 4148.80 83.2000   1
   3   7   2 3603.91 65.5900   1
  -5   0   3 65.6100 42.3200   1
  -5   0   3 127.940 42.6600   1
   5   0  -3 171.310 52.7700   1
  -5   0  -3 -4.1000 17.0700   1
   5   0  -3 214.160 44.9000   1
   5   0  -3 198.650 41.7700   1
  -5   0  -3 -0.0100 12.3400   1
  -5   0   3 108.160 32.7000   1
   5   0   3 -5.7300 15.8600   1
   8   0   0 370.900 20.3400   1
   8   0   0 517.350 31.7000   1
   8   0   0 447.350 31.4700   1
  -8   0   0 432.210 24.7400   1
   4  -8   0 1458.76 57.7300   1
  -4   8   0 1396.13 50.2300   1
   4  -8   0 1659.46 46.5100   1
   4   8   0 1210.75 38.3700   1
  -4  -8   0 1395.96 39.0900   1
  -4   8   0 1551.26 60.8900   1
  -4  -8   0 1580.30 58.3200   1
  -5  -1  -3 29599.2 238.020   1
  -5   1   3 29097.6 202.940   1
  -5  -1   3 29048.1 208.300   1
  -5  -1  -3 27295.9 229.320   1
   5  -1  -3 27052.9 203.430   1
  -5   1   3 26951.9 164.520   1
  -5   1  -3 28622.7 266.500   1
   5   1   3 28364.3 203.420   1
   5   1  -3 27914.7 234.240   1
  -5   1  -3 28955.1 256.210   1
  -5  -1  -3 29009.9 242.330   1
  -5  -1   3 27010.6 227.870   1
  -5   1  -3 28026.1 229.830   1
   8  -1   0 3314.54 71.8700   1
   8  -1   0 3823.87 89.7300   1
   8  -1   0 3051.50 73.7900   1
   8   1   0 4018.90 87.2500   1
  -8   1   0 4042.56 113.600   1
  -8   1   0 4062.71 83.5800   1
  -8  -1   0 3474.90 69.8400   1
  -8   1   0 3177.40 83.3000   1
   2   9   0 9217.50 153.200   1
  -2   9   0 10193.3 158.590   1
   2  -9   0 8982.64 129.850   1
  -2   9   0 8502.36 117.320   1
   2  -9   0 9653.85 123.520   1
  -2  -9   0 9243.88 100.730   1
  -6   4   2 4394.20 79.9000   1
   6  -4   2 4526.08 102.030   1
   6   4  -2 4976.58 96.1300   1
  -6  -4  -2 4962.19 107.930   1
  -6   4   2 4975.90 112.560   1
   6  -4   2 4193.41 72.3200   1
  -6   4  -2 4680.84 108.830   1
   6  -4   2 4491.86 94.0100   1
  -6  -4  -2 4810.87 89.5700   1
  -6  -4   2 4277.29 67.1900   1
   6  -4  -2 4106.78 77.1400   1
  -6  -4   2 4683.33 90.8800   1
   6  -4  -2 4866.47 70.3000   1
   7  -4   1 12278.3 142.150   1
  -7   4   1 11254.7 121.000   1
  -7   4   1 12494.9 159.060   1
   7  -4   1 10637.3 188.270   1
   7  -4  -1 11103.8 141.240   1
   7  -4  -1 12693.9 123.500   1
  -7   4   1 11859.5 153.380   1
  -7   4   1 12191.0 119.040   1
  -7  -4   1 11288.2 112.950   1
   7  -4  -1 11554.8 131.320   1
   7   4  -1 11402.2 141.600   1
  -7   4   1 11572.6 129.400   1
  -7   4  -1 11198.5 160.160   1
  -7   4  -1 11780.2 153.340   1
   7  -4   1 11658.1 142.110   1
   0  -9  -1 16727.8 157.790   1
   0  -9   1 16228.2 129.530   1
   0   9  -1 15934.7 151.960   1
   0   9  -1 15354.4 188.590   1
   0  -8   2 947.840 50.7800   1
   0  -8  -2 956.860 46.4500   1
   0  -8   2 866.230 39.2400   1
   0   8   2 1010.24 70.7400   1
   0   8  -2 786.030 32.8500   1
   0  -8  -2 1077.76 44.8000   1
   0  -8   2 855.620 32.2600   1
   0  -8  -2 915.910 40.4200   1
   0   8   2 1010.08 37.2700   1
   0  -6  -3 5.88000 21.2000   1
   0  -6  -3 -8.3300 28.8000   1
   0   6   3 14.7200 16.8500   1
   0  -6   3 -4.4300 13.2900   1
   0   6  -3 9.27000 13.5200   1
   0   6  -3 2.48000 12.2500   1
   0   6   3 8.47000 26.8000   1
   0  -6   3 -4.4100 16.1500   1
  -7   0   2 289.990 29.2200   1
   7   0   2 263.330 40.6800   1
  -7   0  -2 236.940 45.6900   1
   7   0   2 374.210 57.9200   1
  -7   0  -2 289.810 52.9200   1
   7   0  -2 367.690 49.8600   1
  -7   0   2 259.280 31.3600   1
   7   0   2 86.3800 41.6000   1
   7   0  -2 286.910 45.7300   1
   7   0  -2 371.520 47.8400   1
  -5   7   1 37.2400 19.7600   1
  -5   7  -1 30.7700 14.5000   1
   5  -7   1 38.0000 15.0700   1
   5  -7  -1 18.8700 16.9700   1
  -5  -7  -1 37.1100 17.0900   1
   5  -7   1 19.2400 14.9000   1
   5  -7  -1 41.7300 20.9200   1
   5  -7   1 25.0300 13.9200   1
   5  -7  -1 49.6800 33.0200   1
  -5  -7  -1 22.6400 21.4700   1
  -5   7  -1 41.9300 19.6600   1
  -5   7   1 16.3200 19.2600   1
   5  -7   1 27.0200 16.4600   1
  -5  -7   1 14.9300 18.9400   1
   5   7  -1 26.2200 19.8700   1
   1  -9   1 1523.70 52.5700   1
  -1  -9   1 1601.91 45.3100   1
  -1   9   1 1412.29 49.1500   1
   1   9   1 1451.40 37.4800   1
  -1   9   1 1378.99 51.9200   1
  -1   9  -1 1628.50 67.9700   1
   1  -9   1 1650.88 62.2600   1
  -1  -9   1 1757.70 57.4300   1
  -1  -9  -1 1919.04 58.8400   1
  -1  -9   1 1575.46 61.3500   1
  -1   9  -1 1662.23 101.990   1
  -1  -9  -1 1558.54 45.6900   1
   1  -9  -1 1532.24 60.9500   1
  -1   9  -1 1431.22 57.1900   1
  -1   9   1 1646.94 99.2300   1
   1   9   1 1564.34 46.3900   1
   1   9  -1 1463.32 46.5800   1
   1  -9  -1 1713.25 74.6200   1
   1  -8   2 4291.22 99.2000   1
  -1  -8  -2 4030.65 79.9300   1
   1  -8   2 4115.77 87.2400   1
  -1   8  -2 5117.42 152.280   1
  -1   8   2 4404.06 139.650   1
   1  -8  -2 4581.21 96.2600   1
   1  -8  -2 4237.07 84.7700   1
  -1  -8   2 4727.63 101.360   1
  -1   8   2 4071.59 75.6500   1
  -1  -8   2 3676.58 85.5500   1
  -1  -8  -2 4520.15 96.8500   1
  -1  -8   2 4357.71 72.9100   1
   1  -8   2 4012.93 72.0700   1
   1   8  -2 3954.18 76.8500   1
  -1   8  -2 4380.57 89.5700   1
  -3  -5  -3 10693.3 148.330   1
  -3  -5   3 11042.4 111.020   1
  -3   5   3 10030.7 117.150   1
   3  -5   3 10428.4 114.270   1
   3  -5  -3 9929.27 103.430   1
   3   5  -3 9921.87 130.340   1
  -3   5   3 10836.7 129.750   1
   3  -5  -3 10882.4 180.980   1
  -3  -5  -3 10371.3 133.860   1
   3  -5   3 10033.7 150.240   1
  -3   5   3 11207.4 174.540   1
   3  -5   3 10965.9 112.030   1
  -5   2   3 531.190 28.2100   1
  -5  -2  -3 469.480 34.2500   1
   5  -2   3 530.410 27.2400   1
  -5  -2   3 462.840 46.9500   1
   5  -2  -3 583.370 28.4800   1
   5  -2  -3 556.790 29.1200   1
   5   2   3 353.670 26.3200   1
   5   2  -3 390.580 49.0800   1
  -5   2   3 553.040 28.3700   1
  -5   2  -3 393.610 20.7800   1
  -5  -2   3 414.760 43.0700   1
  -5   2  -3 518.570 33.4000   1
   5   2  -3 558.660 58.2900   1
   5  -2  -3 702.710 36.7600   1
   5   2   3 362.510 44.2700   1
  -5  -2  -3 515.580 40.8300   1
  -5   2  -3 556.750 33.8900   1
  -5  -2   3 504.580 47.9100   1
  -5   2   3 533.390 26.1900   1
  -5   2   3 503.390 50.4800   1
  -5   2  -3 607.740 48.6800   1
  -5  -2  -3 542.470 51.5000   1
   5  -2   3 512.030 31.1300   1
  -5  -2  -3 444.590 29.5000   1
   8   2   0 41381.7 409.210   1
  -8   2   0 40072.9 291.110   1
  -8  -2   0 38825.6 211.590   1
  -8   2   0 40326.1 352.490   1
   8   2   0 38164.5 256.380   1
   8  -2   0 37440.4 250.680   1
  -4  -4  -3 8469.53 110.300   1
  -4   4   3 8396.88 99.1300   1
  -4  -4  -3 10040.8 146.850   1
  -4   4   3 9045.49 168.580   1
  -4   4  -3 10311.3 181.940   1
  -4  -4   3 9287.29 132.150   1
   4  -4   3 9043.51 196.310   1
  -4   4   3 9832.25 118.290   1
   4  -4   3 8436.41 168.510   1
   4   4  -3 9457.14 124.240   1
   7  -1   2 14964.5 142.930   1
  -7   1   2 15093.2 139.940   1
   7   1   2 14850.2 156.080   1
   7  -1   2 15859.7 192.620   1
   7   1  -2 14843.3 159.360   1
  -7   1  -2 15517.3 165.140   1
  -7  -1  -2 14153.0 145.750   1
   7  -1   2 13984.3 139.600   1
  -7  -1   2 15494.3 132.460   1
  -7   1   2 14982.2 127.920   1
  -7   1   2 15012.1 140.960   1
   7   1   2 15611.6 197.730   1
  -7   1  -2 14735.0 167.110   1
   7   1  -2 15596.5 158.130   1
   7  -1  -2 15231.7 173.700   1
   1   6   3 11078.9 129.980   1
  -1   6   3 10949.0 139.950   1
   1  -6   3 10732.5 215.160   1
   1   6   3 10835.2 241.000   1
  -1  -6   3 10793.8 144.830   1
  -1  -6   3 12081.3 118.550   1
   1  -6   3 11391.9 116.160   1
  -1   6  -3 11637.5 212.800   1
   1  -6  -3 11638.0 180.860   1
   1  -6  -3 12209.7 148.820   1
  -1  -6  -3 11942.1 165.280   1
  -6  -6  -1 1980.10 74.8600   1
  -6   6  -1 1422.59 51.4200   1
   6  -6  -1 2079.28 62.8200   1
   6  -6   1 1753.37 56.0600   1
   6   6  -1 1612.94 55.7200   1
  -6   6   1 2129.19 55.4800   1
  -6   6  -1 1637.61 44.1300   1
  -6   6   1 1491.87 47.6000   1
  -6   6  -1 1787.46 77.1600   1
   6  -6   1 2067.62 51.4300   1
  -6   6   1 1945.24 75.2600   1
   6  -6   1 1559.28 49.0500   1
  -6  -6  -1 1657.46 45.1800   1
  -6   6   1 1870.67 61.8100   1
  -6  -6   1 1713.85 40.5800   1
   6  -6  -1 1777.73 56.1700   1
   6  -6  -1 2048.06 48.3000   1
   6  -6   1 1523.34 56.0700   1
  -7   5   0 664.050 31.3600   1
   7   5   0 767.530 41.8300   1
  -7   5   0 777.680 37.5900   1
  -7  -5   0 827.360 32.0600   1
   7  -5   0 679.060 29.2100   1
   7  -5   0 616.820 34.0300   1
   7  -5   0 897.320 31.8500   1
   7  -5   0 702.570 34.8300   1
  -7   5   0 520.410 34.1200   1
  -8   0   1 1031.01 37.4100   1
  -8   0  -1 1066.99 39.2900   1
   8   0   1 961.160 38.1800   1
   8   0  -1 1202.38 49.8600   1
  -8   0  -1 897.790 40.1400   1
   8   0   1 1059.34 45.2800   1
   8   0   1 1056.87 35.9700   1
   8   0  -1 1236.93 44.7700   1
   8   0  -1 901.310 33.0900   1
  -8   0   1 928.180 31.3200   1
  -4  -8  -1 3495.34 78.6100   1
  -4   8  -1 3516.02 84.2500   1
  -4   8   1 3463.61 81.9600   1
  -4  -8  -1 3942.25 72.0000   1
   4  -8   1 3642.54 67.6000   1
   4  -8   1 3176.02 61.5800   1
   4  -8   1 3195.72 91.6300   1
   4  -8   1 3773.23 84.5900   1
  -4  -8   1 3589.87 95.7300   1
  -4   8  -1 3281.46 75.6300   1
   4  -8  -1 4015.51 88.5900   1
  -4  -8   1 3276.42 58.8400   1
   8  -1  -1 3428.06 79.1200   1
   8  -1   1 3665.58 85.8400   1
   8   1   1 3471.82 83.9000   1
   8   1   1 3288.31 72.3900   1
   8   1  -1 3365.35 71.7400   1
   8  -1  -1 2995.64 63.7100   1
  -8  -1   1 3252.64 55.5300   1
  -8   1   1 3201.13 53.5000   1
  -8   1   1 3495.94 80.5300   1
  -8  -1   1 3120.03 64.5500   1
   8  -1   1 2931.31 62.6200   1
  -8  -1  -1 3317.31 66.2800   1
  -8   1  -1 3348.68 75.0400   1
   8  -1   1 3193.32 63.6900   1
  -8   1  -1 3411.13 82.4600   1
   8  -1  -1 3430.01 66.3100   1
   0   0   4 2134.96 62.0500   1
   0   0   4 2561.63 85.5700   1
   0   0   4 2917.83 64.5900   1
   0   0  -4 2637.20 82.4100   1
   0   0  -4 2541.70 72.4200   1
   0   0   4 2581.43 76.3100   1
   7   2  -2 6732.09 108.240   1
  -7   2   2 6827.29 93.1300   1
  -7  -2   2 6456.87 93.4800   1
  -7  -2  -2 6350.25 118.130   1
  -7   2   2 7477.29 90.8600   1
   7  -2  -2 6908.59 101.600   1
  -7   2  -2 6918.74 123.650   1
  -7  -2   2 6979.13 84.7800   1
   7  -2   2 6731.12 102.920   1
  -7  -2  -2 6945.71 103.590   1
  -7   2  -2 7163.89 117.490   1
   7  -2  -2 7644.52 112.100   1
   7  -2   2 7696.16 102.860   1
  -7  -2  -2 7717.82 144.580   1
   7   2   2 6653.05 111.360   1
  -7   2   2 6921.85 83.8200   1
  -2  -9   1 2805.24 71.6000   1
  -2   9  -1 2334.75 76.5200   1
   2  -9  -1 2308.67 65.4800   1
   2  -9  -1 2761.67 76.1200   1
  -2  -9  -1 2323.46 52.8800   1
   2   9   1 2424.87 57.2500   1
   2   9   1 2362.39 50.1800   1
  -2   9   1 2719.97 54.6600   1
  -2  -9   1 2779.37 56.5500   1
   2  -9   1 2486.91 50.5600   1
  -2   9  -1 2238.97 59.5300   1
  -2   9   1 2879.06 104.310   1
  -2   9  -1 3005.98 111.000   1
  -2  -9   1 2644.27 73.1200   1
   2  -9   1 2449.98 68.3300   1
  -2  -9  -1 2916.83 73.8600   1
   5  -6   2 4054.72 89.5700   1
  -5  -6  -2 4099.33 90.0800   1
  -5  -6  -2 3639.04 80.3100   1
  -5   6  -2 3397.17 97.7100   1
   5  -6  -2 4036.30 80.2000   1
   5   6  -2 3854.03 88.5100   1
   5  -6   2 3898.34 113.300   1
   5  -6   2 3462.71 90.1900   1
  -5   6   2 4112.82 71.1900   1
  -5  -6   2 4348.76 69.9900   1
  -5  -6  -2 4268.68 82.5600   1
   5  -6   2 3975.00 91.5500   1
  -5   6   2 3559.33 95.3300   1
   5  -6  -2 4375.24 66.5100   1
  -2  -8   2 1485.65 50.0700   1
   2   8  -2 1658.29 50.2900   1
   2  -8   2 1596.35 40.5000   1
  -2  -8   2 1713.66 44.4700   1
   2   8   2 1638.87 47.9500   1
  -2   8   2 1705.52 50.5300   1
  -2  -8  -2 1669.59 51.5900   1
   2  -8  -2 1740.33 63.3600   1
  -2   8   2 1980.93 63.4900   1
  -2   8  -2 1722.91 70.0900   1
  -2   8  -2 2210.10 100.510   1
   2  -8  -2 1855.37 59.7800   1
   2  -8   2 1495.99 58.5000   1
  -2  -8  -2 1850.89 56.1800   1
  -2  -8   2 2122.95 67.8800   1
  -2  -8  -2 2225.31 70.0800   1
   0   1   4 -3.5100 15.0500   1
   0   1   4 13.4800 18.8100   1
   0  -1  -4 0.91000 33.7300   1
   0  -1   4 -5.7400 11.1700   1
   0  -1   4 9.34000 15.3500   1
   0   1   4 -4.0400 18.4900   1
   0  -1   4 2.16000 17.3300   1
   0  -1   4 15.5800 16.7100   1
   0   1  -4 4.52000 18.3800   1
   0  -1  -4 8.12000 17.0200   1
   2  -6  -3 10416.3 114.980   1
   2  -6  -3 10262.3 161.070   1
  -2   6   3 10212.7 144.790   1
   2  -6   3 9561.03 156.930   1
  -2  -6   3 9704.68 96.0600   1
  -2  -6  -3 10995.5 153.820   1
   2  -6   3 10743.2 109.520   1
  -2  -6  -3 9865.27 126.210   1
  -2   6   3 9884.70 115.450   1
   2  -6   3 11004.7 118.050   1
  -2   6   3 10538.6 132.570   1
  -2   6  -3 9846.68 187.690   1
  -3  -9   0 7872.98 123.500   1
  -3   9   0 6442.20 113.140   1
   3  -9   0 7552.45 113.450   1
  -3   9   0 6448.12 109.540   1
  -3  -9   0 7657.29 91.8700   1
   1   0   4 -0.7600 15.4900   1
  -1   0  -4 -7.1500 17.4100   1
   1   0   4 12.7000 19.2900   1
  -1   0   4 -10.350 17.2400   1
  -1   0  -4 -5.0600 45.3600   1
   1   0   4 0.48000 13.6500   1
   1   0   4 -10.990 15.7000   1
  -4  -7  -2 3514.85 78.8600   1
  -4   7  -2 3458.52 92.5300   1
   4  -7   2 2976.74 70.7200   1
  -4  -7   2 2766.55 76.3700   1
   4   7  -2 2876.41 70.9300   1
  -4   7   2 3575.37 75.4800   1
   4  -7  -2 3504.98 121.560   1
  -4   7  -2 2959.66 66.9500   1
   4  -7   2 3193.05 58.3900   1
  -4   7   2 2984.30 75.3200   1
   4  -7   2 2971.49 81.0500   1
  -4  -7  -2 2801.90 77.2400   1
   4  -7  -2 3526.67 65.6500   1
   4  -7   2 2822.81 58.1400   1
  -4   7   2 2789.44 59.9300   1
  -4  -7   2 3038.04 57.7100   1
  -4  -7  -2 3114.61 66.1300   1
  -5   3  -3 5381.67 103.260   1
   5   3  -3 5799.55 114.830   1
  -5   3  -3 5617.81 110.600   1
  -5  -3  -3 6238.99 120.250   1
  -5   3   3 5537.78 140.890   1
  -5   3  -3 5511.72 115.960   1
  -5  -3  -3 6351.08 122.770   1
  -5   3   3 6201.78 87.8000   1
   5  -3  -3 6325.46 97.6300   1
   5   3   3 5596.45 109.730   1
  -5  -3   3 6007.34 100.990   1
   5  -3  -3 6137.53 90.2500   1
  -5  -3  -3 5177.67 83.2000   1
  -5   3   3 5335.69 82.8600   1
  -5  -3  -3 5819.62 107.850   1
   5  -3   3 5756.75 81.9000   1
  -8   3   0 6031.25 91.2300   1
   8   3   0 6355.93 127.640   1
   8  -3   0 5897.92 85.6200   1
   8   3   0 5213.01 110.220   1
   8  -3   0 5245.59 82.6200   1
  -1  -1   4 18836.3 208.760   1
  -1   1   4 18147.6 195.030   1
   1  -1   4 17391.2 191.870   1
   1   1   4 17360.9 208.410   1
  -1   1  -4 16476.0 172.890   1
  -1   1  -4 18719.4 260.810   1
  -1  -1  -4 18782.4 270.500   1
   1  -1   4 17143.4 145.230   1
   1  -1   4 16937.1 140.080   1
  -1  -1   4 18627.8 198.200   1
   1   1   4 17134.9 188.610   1
   1  -1  -4 17024.6 175.060   1
  -1  -1  -4 18129.8 200.360   1
  -8   2  -1 1558.53 50.1200   1
  -8  -2  -1 1701.41 50.3800   1
   8  -2   1 1492.35 49.1000   1
  -8   2   1 1616.53 44.1400   1
  -8  -2   1 1605.90 46.2500   1
   8  -2  -1 1536.66 42.0500   1
   8   2   1 1581.16 49.9900   1
   8   2  -1 1622.60 56.8100   1
  -8   2  -1 1432.20 53.4200   1
   8  -2  -1 1456.30 46.9500   1
  -8  -2   1 1580.79 37.1500   1
  -8   2   1 1821.80 45.9800   1
   8  -2   1 1540.23 42.1900   1
   8  -2   1 1421.68 53.2400   1
   8   2   1 1485.10 53.8800   1
   8  -2   1 1747.66 59.2400   1
   8   2  -1 1592.55 52.0200   1
   8  -2  -1 1839.05 62.5200   1
   6  -5   2 298.610 23.0600   1
   6  -5   2 308.050 18.9500   1
  -6   5  -2 396.680 41.0600   1
  -6  -5  -2 371.520 26.3600   1
  -6  -5   2 322.760 20.1400   1
  -6   5   2 365.240 21.2100   1
   6  -5  -2 347.520 21.7700   1
  -6  -5  -2 309.090 22.3700   1
  -6  -5  -2 320.080 34.0300   1
  -6  -5  -2 405.200 30.8600   1
  -6   5  -2 376.870 29.4600   1
   6  -5  -2 409.560 29.1100   1
   6  -5   2 389.680 27.3800   1
   6   5  -2 385.880 29.7500   1
  -6   5   2 359.380 26.4100   1
   6  -5   2 314.620 25.8800   1
  -6   5   2 390.010 27.6800   1
   6  -5  -2 396.250 21.6700   1
   7  -5  -1 209.000 25.0600   1
   7  -5  -1 204.870 17.9500   1
   7  -5  -1 249.660 20.5800   1
   7  -5   1 204.380 18.4700   1
   7  -5   1 181.500 22.1400   1
  -7   5  -1 151.340 21.0100   1
   7   5  -1 171.520 24.3700   1
   7  -5   1 218.060 23.7200   1
  -7  -5  -1 188.670 29.1300   1
   7  -5   1 204.170 25.1300   1
  -7   5   1 188.250 18.7700   1
  -7   5  -1 237.910 29.2800   1
  -7  -5  -1 240.300 20.7900   1
   7  -5   1 221.340 22.5300   1
  -7   5   1 209.080 18.5000   1
  -7  -5   1 227.170 19.0400   1
   0  -2   4 136.580 18.6100   1
   0   2   4 178.610 24.4100   1
   0   2  -4 193.360 46.1000   1
   0  -2  -4 216.410 40.2900   1
   0   2  -4 154.510 19.8200   1
   0  -2   4 132.270 14.9300   1
   0  -2   4 194.650 19.9100   1
   0   2   4 192.570 22.1700   1
   0  -2  -4 182.470 22.2500   1
   0  -2   4 210.100 23.3500   1
   0   2   4 232.860 24.4400   1
  -6  -7   0 5354.03 85.6400   1
   6  -7   0 4869.72 72.9800   1
  -6   7   0 4992.09 101.760   1
   6  -7   0 5678.94 123.770   1
   7  -3   2 4129.59 90.2400   1
  -7   3   2 4657.23 78.2500   1
   7  -3  -2 4980.68 77.4300   1
  -7  -3   2 4322.72 76.1500   1
   7   3   2 5037.68 102.670   1
   7  -3  -2 4885.10 88.1500   1
  -7   3   2 4730.16 72.1300   1
  -7  -3   2 4708.70 68.8800   1
   7  -3   2 4518.35 80.4700   1
  -7  -3  -2 4523.91 82.5500   1
  -7   3  -2 4874.40 98.8900   1
   7  -3  -2 4727.61 82.0800   1
  -7  -3  -2 5411.87 118.560   1
  -7   3  -2 4291.08 94.0900   1
   7   3  -2 4444.40 89.1500   1
   7  -3   2 5010.69 101.150   1
  -7   3   2 4684.20 73.3400   1
   2   0   4 8600.00 148.880   1
   2   0   4 9479.74 154.600   1
   2   0   4 9213.10 119.280   1
  -2   0   4 9738.03 140.150   1
  -2   0  -4 9048.95 156.480   1
   1  -2  -4 5652.38 143.130   1
  -1   2   4 5153.65 110.550   1
  -1  -2   4 4898.11 99.7400   1
  -1  -2  -4 5028.48 101.330   1
  -1   2  -4 4405.31 116.180   1
   1   2   4 5143.88 108.870   1
   1   2  -4 4854.27 97.6600   1
   1   2  -4 4600.15 98.3600   1
  -1   2   4 5467.54 99.9000   1
   1  -2   4 4650.73 88.7100   1
  -1  -2  -4 5771.73 131.910   1
  -1  -2   4 5269.52 81.9000   1
  -1  -2   4 4981.99 85.8600   1
  -1   2   4 5209.09 83.0600   1
   1  -2   4 5040.47 78.5700   1
   1   2   4 5129.58 109.630   1
   1  -2   4 4924.97 101.290   1
   1  -2   4 4946.81 79.9300   1
  -5   8   0 3330.48 79.6200   1
   5  -8   0 3870.32 68.9100   1
  -5  -8   0 4069.84 65.0600   1
  -5  -8   0 3859.52 89.9700   1
   5  -8   0 3947.31 87.9200   1
  -5   8   0 3553.33 78.2800   1
   4  -5   3 918.620 44.8400   1
  -4  -5  -3 1046.83 45.4500   1
  -4   5   3 935.210 32.9900   1
   4  -5   3 1047.84 36.2200   1
  -4  -5   3 948.690 33.0600   1
  -4  -5  -3 875.800 36.2500   1
   4  -5  -3 950.910 32.3400   1
  -4   5   3 1038.79 54.5100   1
   4  -5   3 971.880 34.8500   1
   4   5  -3 839.280 36.8800   1
  -4   5   3 985.190 35.9500   1
   4   5  -3 1027.74 47.6000   1
  -4  -5  -3 998.790 47.1400   1
  -4  -5   3 720.910 36.9700   1
   4  -5  -3 1231.44 45.9500   1
  -2  -1   4 2627.32 73.8900   1
   2   1  -4 3058.81 74.3300   1
   2   1  -4 3119.50 80.6800   1
   2  -1  -4 3592.01 84.4500   1
  -2   1  -4 3111.61 86.9500   1
  -2  -1  -4 3480.14 85.2900   1
  -2   1   4 2971.82 79.1400   1
   2   1   4 3299.79 91.8800   1
   2  -1   4 3249.29 88.5800   1
  -2  -1   4 3172.93 92.8400   1
   2   1   4 3492.42 80.3700   1
   2  -1   4 3063.75 59.6700   1
  -2  -1  -4 2861.50 61.1200   1
  -2   1   4 2815.72 69.3000   1
   2  -1   4 3184.85 64.4300   1
  -2   1   4 3310.31 61.0600   1
  -2  -1   4 3199.51 67.5600   1
  -2  -1  -4 3839.07 104.660   1
  -2   1  -4 3500.53 114.070   1
   2  -1   4 2897.81 76.0300   1
  -3  -9   1 115.580 14.8200   1
   3  -9  -1 105.850 19.6800   1
   3  -9  -1 143.800 26.6700   1
  -3   9   1 138.880 23.3300   1
  -3  -9  -1 120.520 23.3300   1
   3  -9  -1 104.540 16.4700   1
  -3  -9   1 90.9700 18.6600   1
   3  -9   1 116.820 22.9000   1
  -3   9  -1 98.7100 19.8500   1
  -3   9  -1 140.440 32.5600   1
  -3   9  -1 105.820 20.8700   1
  -3   9   1 133.490 21.3600   1
   3   9  -1 96.6300 13.7100   1
   3  -9   1 114.090 13.7800   1
   3   9   1 122.880 13.2800   1
  -3  -9  -1 113.120 19.6000   1
   3  -9  -1 163.010 29.6100   1
  -3  -9   1 130.390 24.5300   1
   3  -8   2 4977.82 92.9100   1
   3  -8  -2 6115.31 99.0200   1
  -3  -8  -2 5611.69 107.340   1
   3  -8   2 5655.65 123.150   1
   3  -8  -2 5478.96 123.240   1
  -3  -8  -2 5843.56 100.500   1
  -3   8  -2 5835.13 121.020   1
  -3  -8  -2 6100.70 124.210   1
  -3   8   2 5957.49 95.4600   1
  -3  -8   2 5791.49 77.8900   1
  -3  -8   2 5522.07 125.500   1
   3  -8   2 5973.43 92.8500   1
  -3   8   2 5223.06 88.5400   1
   3  -8  -2 5665.53 87.1100   1
   3  -8   2 5336.75 81.5000   1
  -3  -8   2 5029.82 106.390   1
  -6   0   3 6095.39 85.4500   1
  -6   0   3 6149.65 90.3400   1
  -6   0  -3 6003.66 110.510   1
  -6   0  -3 6424.06 110.720   1
  -6   0  -3 6750.51 113.550   1
   6   0  -3 6623.40 97.8200   1
   6   0  -3 7100.68 120.170   1
   6   0   3 6816.53 98.2800   1
   8   3   1 1911.90 61.9700   1
  -8   3   1 2039.75 71.5000   1
  -8   3  -1 1919.85 95.7600   1
   8  -3  -1 2490.28 75.7200   1
   8  -3   1 2145.20 65.4300   1
   8   3  -1 1833.98 57.9200   1
   8  -3   1 1832.08 60.6100   1
  -8   3   1 2121.51 51.1300   1
   8  -3   1 1876.14 42.3200   1
   8  -3  -1 2039.23 48.7400   1
   8   3   1 2082.29 64.9300   1
   8  -3  -1 1798.60 52.6100   1
  -8  -3   1 1820.00 42.9100   1
  -8   3   1 2020.52 47.4900   1
  -8  -3   1 2044.89 52.1500   1
  -8   3   1 2019.34 52.8500   1
   8  -3   1 1879.43 58.0400   1
  -8  -3  -1 2049.23 54.5100   1
  -8   3  -1 2219.39 67.6800   1
   3   6  -3 449.000 30.0000   1
  -3  -6   3 484.330 25.8100   1
  -3  -6  -3 412.000 31.8500   1
  -3   6   3 407.940 32.8500   1
   3   6  -3 242.110 21.6900   1
  -3  -6  -3 377.670 28.1600   1
  -3  -6   3 322.440 24.5500   1
   3  -6   3 385.580 24.7700   1
  -3   6   3 401.600 27.3400   1
   3  -6   3 400.040 22.6200   1
   3  -6  -3 392.390 28.5000   1
   3  -6   3 417.220 33.8600   1
   3  -6  -3 376.290 51.2900   1
  -3  -6  -3 399.010 28.5500   1
  -3   6   3 431.760 24.6400   1
   3  -6  -3 489.930 48.9500   1
   3  -6  -3 346.890 19.8700   1
   0 -10   0 2013.82 49.9600   1
   0  10   0 1833.35 70.4200   1
  -6   1  -3 307.370 33.5600   1
  -6  -1  -3 202.800 54.9800   1
   6  -1  -3 299.370 26.0700   1
  -6   1   3 349.460 23.7400   1
  -6   1   3 284.740 21.5400   1
  -6   1  -3 251.540 27.3300   1
  -6  -1  -3 300.100 49.0300   1
  -6  -1   3 349.960 24.6700   1
   6  -1   3 222.800 19.6100   1
  -6  -1   3 318.060 25.4100   1
   6   1   3 263.700 24.4600   1
   6   1   3 154.650 30.9100   1
  -6   1  -3 212.480 17.1800   1
  -6  -1  -3 205.390 18.1100   1
  -6  -1   3 315.440 23.8700   1
  -6   1   3 260.770 20.9400   1
  -6  -1  -3 200.920 32.6200   1
  -6   1  -3 249.420 23.6700   1
   6   1  -3 301.610 31.2100   1
   6  -1  -3 269.260 23.5900   1
   0  -7  -3 693.080 37.4400   1
   0  -7   3 503.100 33.0000   1
   0   7  -3 640.010 32.4400   1
   0  -7   3 668.940 28.9300   1
   0   7   3 591.850 34.6600   1
   0  -7  -3 706.480 39.5600   1
   0   7   3 547.580 49.8200   1
   0   7  -3 572.430 33.0600   1
   0  -7   3 609.620 39.7200   1
  -5   4   3 3277.33 59.9200   1
  -5  -4   3 3059.29 63.6500   1
   5  -4   3 2802.34 81.8200   1
   5   4  -3 3113.07 74.7500   1
  -5   4  -3 3062.18 65.9500   1
  -5   4   3 2991.08 68.0000   1
   5  -4   3 3016.31 60.9000   1
   5  -4  -3 3427.07 60.7400   1
  -5  -4   3 3046.36 75.7600   1
   5  -4   3 3374.12 103.780   1
  -5  -4   3 3166.14 78.8400   1
  -5   4  -3 3195.32 77.7000   1
  -5  -4  -3 3513.17 91.7100   1
  -5   4  -3 3488.80 83.4700   1
   5  -4   3 3030.39 73.4300   1
  -5   4   3 3245.58 99.6000   1
  -5   4  -3 3675.49 105.120   1
  -5  -4  -3 3568.65 88.1300   1
   5  -4  -3 3076.74 66.6500   1
  -5   4   3 3404.68 63.7400   1
   0  -3  -4 -3.9200 19.1600   1
   0  -3   4 -3.6900 16.4200   1
   0   3   4 -2.8700 16.1100   1
   0   3   4 8.38000 20.5000   1
   0  -3   4 -2.1500 13.6300   1
   0   3   4 21.8400 19.4400   1
   0  -3  -4 -11.450 35.0300   1
   0  -3   4 -2.9200 14.8900   1
   0  -3   4 -0.2000 12.5500   1
   0   3  -4 -8.9900 15.6200   1
  -8  -4   0 1601.14 44.1200   1
   8  -4   0 1375.59 43.3700   1
   8  -4   0 1579.48 43.7100   1
  -8   4   0 1805.84 45.4600   1
   8   4   0 1857.30 66.7600   1
   8  -4   0 1865.09 60.5900   1
  -8   4   0 1543.20 46.0100   1
   7  -6   0 1501.25 52.5200   1
  -7   6   0 1654.76 67.2400   1
  -7  -6   0 1428.89 37.6700   1
   7  -6   0 1300.53 45.1900   1
   7  -6   0 1502.09 41.0000   1
  -7   6   0 1263.22 42.2600   1
   7   6   0 1643.80 63.1200   1
   7  -6   0 1241.04 49.3400   1
  -7   6   0 1365.33 52.8100   1
   7  -6   0 1233.36 64.5800   1
  -2  -2  -4 6459.87 101.670   1
  -2  -2   4 6394.34 95.6400   1
  -2   2   4 7278.65 109.150   1
   2   2  -4 6956.02 120.490   1
  -2   2  -4 6635.98 111.480   1
  -2   2   4 7013.75 123.710   1
   2   2   4 7528.91 152.060   1
   2  -2   4 7476.80 125.670   1
  -2  -2  -4 7391.03 125.820   1
   2  -2   4 6772.96 89.4400   1
  -2  -2   4 7767.10 130.950   1
  -2   2  -4 7731.92 154.900   1
  -2  -2  -4 7662.64 143.350   1
  -2  -2   4 7225.24 92.0200   1
   2  -2   4 6923.22 91.9100   1
   2   2  -4 7328.64 119.600   1
  -1 -10   0 123.010 53.6700   1
   1 -10   0 138.820 22.4000   1
  -1  10   0 79.8200 43.7900   1
  -1  10   0 93.7300 16.7600   1
   1  10   0 60.3100 27.2900   1
  -1 -10   0 140.830 35.5400   1
   1 -10   0 76.2500 14.7000   1
  -1  10   0 128.800 22.3100   1
   1  -7   3 32.7900 25.5800   1
  -1  -7   3 33.4000 18.3800   1
   1   7   3 47.1800 33.4700   1
  -1   7  -3 10.2600 41.7700   1
  -1   7  -3 55.1200 22.2300   1
   1   7  -3 36.2300 13.5900   1
   1  -7   3 32.1700 12.7300   1
  -1   7   3 45.9800 25.7800   1
  -1  -7   3 31.0700 14.1400   1
  -1   7   3 23.4000 16.0100   1
   1  -7   3 42.7400 25.9600   1
  -1  -7  -3 29.9100 36.0100   1
   1  -7  -3 39.9500 33.3600   1
  -1  -7  -3 39.8200 19.8500   1
   1  -7  -3 38.8300 23.9600   1
   1  -3  -4 527.010 45.9800   1
  -1   3   4 428.150 29.5000   1
  -1  -3   4 421.460 30.6200   1
   1  -3  -4 552.190 32.6300   1
  -1   3  -4 462.360 31.2600   1
   1   3   4 402.950 33.7200   1
   1  -3   4 437.990 30.9500   1
   1   3   4 410.520 31.6500   1
  -1  -3  -4 605.660 47.4300   1
   1   3  -4 485.970 29.5700   1
  -1  -3  -4 627.640 33.6400   1
  -1  -3  -4 579.750 36.7100   1
  -1  -3   4 434.110 24.1200   1
   1  -3   4 436.770 24.4000   1
  -1   3   4 510.420 27.6200   1
   1   3  -4 413.270 35.8200   1
   1  -3   4 462.230 24.7300   1
  -1  -3   4 396.420 25.7800   1
   1  -3   4 442.950 31.3800   1
  -4  -9   0 45.0600 20.2600   1
  -4   9   0 45.9000 18.1200   1
  -4  -9   0 21.5200 13.4000   1
   4  -9   0 54.5700 16.5500   1
  -4   9   0 62.9200 17.5400   1
   4  -9   0 60.1300 20.5400   1
  -6  -7   1 1758.52 42.7000   1
  -6  -7  -1 1702.04 45.5600   1
   6  -7   1 1996.94 57.8000   1
  -6  -7  -1 1857.57 63.4400   1
   6  -7   1 1654.25 44.5900   1
  -6   7   1 1720.71 54.6600   1
   6  -7   1 1762.55 60.1200   1
   6  -7  -1 1715.35 55.4500   1
  -6   7  -1 1494.99 45.6500   1
   6  -7  -1 1766.56 57.4300   1
  -6   7  -1 1715.53 60.3500   1
   6   7  -1 1771.52 61.3800   1
   5  -8   1 735.430 30.1400   1
   5  -8  -1 859.040 33.7600   1
   5  -8   1 653.170 30.5700   1
  -5  -8   1 615.410 25.1200   1
  -5  -8  -1 624.920 29.6000   1
   5  -8   1 716.200 33.6700   1
  -5   8  -1 774.230 40.9300   1
   5  -8  -1 962.770 54.5500   1
  -5  -8   1 771.990 46.3500   1
  -5  -8  -1 784.400 38.3500   1
   5  -8  -1 661.720 36.9600   1
   5  -8   1 715.170 38.6800   1
  -5   8   1 690.430 33.7000   1
  -5   8  -1 806.060 40.4000   1
  -6   2  -3 1574.45 68.0700   1
   6  -2  -3 1377.72 45.6000   1
  -6  -2  -3 1293.98 50.6000   1
  -6   2   3 1402.77 43.7100   1
  -6   2  -3 1201.45 41.5600   1
  -6   2   3 1336.21 41.7800   1
  -6  -2  -3 1274.55 54.7000   1
  -6  -2  -3 1363.34 52.1800   1
  -6  -2  -3 1099.34 36.4400   1
   6  -2   3 1371.28 42.0800   1
  -6  -2   3 1232.47 42.1700   1
   6  -2  -3 1488.77 47.8700   1
   6   2   3 1297.35 48.1900   1
  -6   2  -3 1343.13 55.0100   1
  -6  -2   3 1457.87 41.4000   1
  -6   2   3 1405.71 40.7100   1
   6  -2  -3 1314.10 50.1000   1
  -6   2  -3 1241.29 50.1300   1
   6   2  -3 1337.06 51.1100   1
  -3   0   4 1.14000 15.8000   1
  -3   0  -4 2.01000 13.1400   1
  -3   0   4 -1.2700 11.0300   1
   3   0   4 4.86000 12.6400   1
  -3   0   4 -2.8100 13.4200   1
  -3   0  -4 20.4200 39.4100   1
   3   0   4 -3.9400 15.9500   1
  -3   0   4 3.92000 22.1900   1
  -3   0  -4 1.58000 19.7200   1
   3   0  -4 -2.0200 21.4500   1
   3   0  -4 1.66000 15.6500   1
  -7  -4  -2 348.370 29.1200   1
  -7   4  -2 407.210 35.8900   1
   7  -4  -2 391.410 22.2600   1
   7  -4   2 395.820 23.4500   1
   7  -4  -2 321.130 24.1400   1
   7   4  -2 329.650 28.2800   1
   7  -4  -2 360.360 26.4900   1
  -7   4  -2 312.190 26.9600   1
  -7  -4  -2 454.410 37.8000   1
   7  -4   2 364.820 27.5300   1
  -7   4   2 346.060 23.1700   1
   7  -4   2 285.950 24.3700   1
  -7  -4   2 314.890 19.2000   1
   7  -4   2 356.140 25.4300   1
  -7   4   2 345.730 23.1200   1
  -7   4   2 362.730 20.5200   1
   0  -9  -2 85.3600 29.9200   1
   0   9   2 -7.2400 13.5800   1
   0  -9   2 -5.5200 17.6900   1
   0   9  -2 -4.1600 16.7700   1
   0  -9   2 -7.2300 16.4500   1
   0   9   2 13.7800 37.9800   1
   0  -9  -2 3.81000 17.0700   1
   0  -9  -2 17.1200 21.4300   1
   0  -9   2 -8.8900 19.1000   1
   3   1  -4 691.100 39.8800   1
   3   1  -4 731.510 37.1600   1
  -3   1   4 926.480 41.4800   1
  -3   1   4 795.760 61.5200   1
  -3  -1  -4 608.220 28.8500   1
   3  -1   4 690.540 29.0300   1
  -3  -1   4 703.100 34.5700   1
  -3  -1   4 790.680 30.8900   1
  -3  -1  -4 781.380 52.1900   1
  -3  -1   4 612.440 31.3400   1
  -3   1  -4 728.400 51.0300   1
   3   1   4 786.650 39.3800   1
  -3   1   4 881.310 32.9000   1
   3  -1   4 778.600 44.3300   1
   3   1   4 782.590 48.4700   1
  -3  -1  -4 692.950 35.9400   1
  -3   1  -4 678.100 41.3200   1
  -3  -1   4 649.020 35.9500   1
   3  -1  -4 938.650 46.4700   1
  -5   7   2 1127.44 49.7500   1
  -5  -7  -2 1172.72 43.3500   1
  -5  -7   2 1055.47 32.9100   1
  -5   7   2 1091.86 37.0300   1
   5  -7   2 1008.64 35.8300   1
   5  -7  -2 1159.64 36.2400   1
   5  -7   2 1057.32 35.3300   1
  -5   7  -2 1070.16 42.8500   1
  -5   7   2 1229.88 42.6500   1
   5   7  -2 1189.87 47.7700   1
   5  -7   2 1109.92 49.8600   1
   5  -7   2 986.540 41.8000   1
  -5  -7  -2 943.460 56.2500   1
  -5  -7  -2 1108.06 48.0300   1
   5  -7  -2 1306.90 49.0900   1
  -5   7  -2 938.630 42.8000   1
  -1  -9  -2 1849.26 57.0800   1
   1  -9   2 1669.77 63.8400   1
   1  -9  -2 1974.96 67.9900   1
  -1  -9   2 1580.23 56.1600   1
   1  -9   2 1739.51 58.2200   1
  -1  -9   2 1837.08 48.1100   1
   1  -9  -2 1932.62 64.1100   1
  -1  -9  -2 1712.82 51.2300   1
  -1   9   2 1775.42 52.1200   1
   1   9   2 1547.75 43.0800   1
  -1   9  -2 1965.34 93.4200   1
  -1   9   2 1786.59 84.7200   1
  -1   9  -2 1828.41 59.8400   1
   1   9  -2 1461.86 48.9400   1
   1  -9  -2 1812.09 70.8900   1
  -1  -9  -2 2046.05 73.1500   1
  -1  -9   2 1783.47 63.1000   1
   1  -9   2 1917.04 53.0300   1
  -2 -10   0 11714.4 185.750   1
  -2  10   0 10977.4 222.310   1
  -2  10   0 10760.6 148.580   1
   2 -10   0 11435.3 143.970   1
  -2  10   0 11746.5 192.910   1
   0 -10   1 483.600 43.5200   1
   0 -10   1 683.360 47.5500   1
   0  10  -1 579.920 53.7100   1
   0 -10  -1 852.340 46.0100   1
   0  10  -1 439.010 41.9500   1
   0 -10  -1 344.290 41.9400   1
   0  10   1 507.140 35.5800   1
  -2   7   3 5968.76 99.4200   1
   2  -7   3 6412.09 138.920   1
   2  -7   3 6895.03 103.090   1
  -2  -7  -3 6555.40 122.400   1
  -2  -7   3 5746.17 118.740   1
   2  -7   3 6502.35 103.500   1
   2   7  -3 6473.10 123.090   1
   2  -7  -3 6922.50 144.810   1
  -2  -7  -3 6626.01 126.740   1
  -2   7   3 6797.99 126.210   1
   2  -7  -3 7150.64 123.430   1
   2  -7  -3 6187.89 97.0300   1
  -2   7  -3 7716.02 190.730   1
  -2   7   3 6303.03 110.180   1
  -2  -7   3 6774.30 98.5700   1
  -2  -3   4 1257.54 44.7200   1
   2  -3   4 1058.34 34.4800   1
  -2  -3  -4 911.550 37.5300   1
   2  -3   4 1203.82 39.5200   1
  -2   3   4 1213.19 39.8600   1
  -2  -3   4 1124.34 35.2000   1
  -2  -3  -4 1282.38 60.9600   1
   2   3   4 1166.48 56.1000   1
   2  -3   4 1356.97 56.2200   1
  -2  -3  -4 1222.90 52.6100   1
  -2  -3   4 1200.37 53.3800   1
  -2   3  -4 983.130 47.0900   1
   2   3  -4 905.470 42.2900   1
   2  -3  -4 1053.41 65.0500   1
   2  -3  -4 1297.56 51.7200   1
   2   3  -4 1176.22 47.0900   1
  -2   3   4 1376.35 49.8100   1
   2  -3   4 1112.58 50.6500   1
  -8   4  -1 1264.21 47.8600   1
  -8   4   1 1506.12 45.5700   1
  -8   4  -1 1318.97 49.2600   1
  -8  -4  -1 1368.46 45.2300   1
   8  -4   1 1201.23 49.9100   1
  -8   4   1 1390.44 50.7900   1
  -8  -4   1 1314.81 43.1200   1
   8   4   1 1351.22 56.1300   1
  -8  -4   1 1150.12 36.9900   1
   8   4   1 1383.10 52.1100   1
   8  -4   1 1138.81 43.6000   1
   8  -4  -1 1228.47 46.3500   1
   8  -4   1 1435.13 47.3200   1
  -8   4   1 1433.17 56.8800   1
   8  -4  -1 1286.20 36.7400   1
   8  -4  -1 1585.88 59.6300   1
   8  -4   1 1541.92 57.7100   1
   8   4  -1 1327.74 55.1600   1
  -6  -6   2 2287.49 49.2900   1
  -6   6   2 2339.12 52.9200   1
   6  -6  -2 2236.66 60.1800   1
   6  -6  -2 2185.33 48.6600   1
  -6  -6  -2 2619.81 85.8400   1
  -6   6   2 2463.14 71.2100   1
   6  -6   2 2137.18 50.8700   1
  -6   6   2 2390.39 58.5600   1
   6   6  -2 2682.82 73.8500   1
   6  -6   2 2386.25 75.3200   1
   6  -6  -2 2595.08 68.3900   1
  -6   6  -2 2163.72 69.0000   1
   6  -6   2 2143.92 63.1600   1
  -6   6   2 2162.86 77.3500   1
  -6   6  -2 2494.14 108.100   1
  -6  -6  -2 2592.28 75.0000   1
  -7  -6   1 1655.33 45.7100   1
  -7  -6   1 1915.70 53.5600   1
   7  -6  -1 1973.60 57.4700   1
   7  -6   1 1836.03 47.2600   1
  -7   6  -1 1701.57 48.5100   1
  -7   6   1 2385.43 60.7700   1
  -7   6   1 1824.07 58.7900   1
  -7   6  -1 1879.54 68.2800   1
   7   6  -1 2119.45 67.7600   1
  -7  -6  -1 2088.17 53.0200   1
   7  -6  -1 2312.06 63.5900   1
   7  -6   1 1878.31 60.1600   1
   7  -6   1 1932.57 70.3500   1
  -7  -6  -1 2197.43 76.7500   1
   7  -6   1 1805.61 80.7500   1
  -7   6   1 1917.39 93.2200   1
   7  -6   1 1855.78 65.6800   1
  -7   6  -1 2088.09 81.4100   1
  -1  10  -1 17377.4 205.040   1
  -1 -10   1 17679.1 216.120   1
   1 -10  -1 17059.3 202.130   1
   1 -10   1 16709.2 215.490   1
   1 -10  -1 18184.1 158.450   1
  -1 -10   1 16901.9 176.370   1
  -1  10   1 18047.0 144.530   1
  -9   0   0 389.700 52.8400   1
   9   0   0 676.970 81.2800   1
   9   0   0 106.220 62.6500   1
   3   2   4 9667.69 172.600   1
  -3   2   4 9336.59 122.330   1
  -3  -2   4 9473.13 122.350   1
  -3  -2  -4 9347.69 165.790   1
   3   2   4 7844.73 151.800   1
  -3   2  -4 9485.31 171.620   1
   3  -2   4 9198.65 170.050   1
  -3  -2  -4 8707.10 142.160   1
  -3  -2   4 9321.67 148.590   1
   3   2  -4 7841.72 133.150   1
   3  -2   4 7968.38 146.290   1
   3   2  -4 8283.56 126.910   1
  -3   2   4 8963.16 131.800   1
   3  -2   4 8610.15 125.630   1
  -3  -2   4 9222.58 157.820   1
   8   0  -2 2756.49 70.7400   1
  -8   0  -2 2327.17 60.7600   1
   8   0   2 2442.17 78.0700   1
   8   0  -2 2393.62 68.2600   1
  -8   0   2 2476.66 53.1500   1
   8   0   2 2629.43 74.0300   1
   0  -4  -4 712.110 31.8700   1
   0  -4  -4 936.260 47.9100   1
   0   4   4 1057.43 48.9300   1
   0  -4  -4 883.820 50.0600   1
   0  -4   4 974.590 37.7500   1
   0   4  -4 841.570 40.1700   1
   0  -4   4 704.160 40.0200   1
   4  -9  -1 819.170 40.8600   1
  -4   9   1 850.930 40.3500   1
  -4   9  -1 809.640 41.4600   1
   4  -9  -1 1048.57 49.8500   1
   4  -9   1 905.200 34.2500   1
   4  -9  -1 1036.04 37.7600   1
   4  -9   1 858.560 32.2900   1
  -4  -9   1 982.060 33.9800   1
  -4  -9   1 845.230 44.3800   1
   4  -9   1 772.610 42.1100   1
  -4  -9  -1 873.870 33.2500   1
  -4  -9  -1 862.120 40.5400   1
  -4   9  -1 831.430 44.6500   1
  -4   8   2 538.410 27.5300   1
   4  -8   2 624.380 30.6200   1
   4  -8  -2 636.560 26.7400   1
  -4   8  -2 677.030 38.3900   1
  -4  -8  -2 743.520 46.9800   1
   4  -8   2 553.130 31.1100   1
   4   8  -2 627.190 34.4200   1
   4  -8  -2 717.620 35.8200   1
  -4   8   2 586.400 32.4700   1
  -4   8  -2 500.020 28.4900   1
  -4  -8  -2 604.470 32.9200   1
  -4  -8   2 472.790 29.8500   1
  -4  -8  -2 658.340 44.0000   1
   4  -8   2 631.430 30.0000   1
   4  -8   2 547.080 36.6400   1
  -4   8   2 601.980 31.9300   1
  -4  -8   2 584.080 25.1100   1
   6   3  -3 5683.11 109.130   1
  -6   3  -3 5565.74 118.900   1
   6  -3  -3 6345.52 112.440   1
  -6  -3  -3 6283.47 121.590   1
  -6   3  -3 6086.43 123.600   1
   6  -3   3 5522.73 102.990   1
  -6  -3  -3 6425.12 119.670   1
  -6   3  -3 6020.37 129.640   1
  -6   3   3 5726.10 161.240   1
  -6   3   3 6563.55 107.860   1
   6  -3   3 5790.85 87.4300   1
   6  -3  -3 6437.24 97.6600   1
  -6  -3   3 6121.01 106.330   1
   6   3   3 5307.43 105.670   1
   6  -3  -3 6085.91 105.160   1
  -6   3   3 6578.60 97.5700   1
   9  -1   0 28340.2 223.720   1
  -9   1   0 28878.3 190.400   1
  -9  -1   0 28786.4 176.420   1
   9   1   0 29539.4 216.930   1
   9   1   0 29264.3 232.540   1
   8   1   2 298.370 27.8400   1
   8  -1  -2 160.840 26.9800   1
   8   1   2 261.410 26.2300   1
  -8  -1   2 209.370 18.2400   1
   8   1  -2 309.620 31.0400   1
  -8  -1  -2 257.820 27.2300   1
   8  -1   2 276.530 41.7400   1
  -8   1  -2 202.230 33.2000   1
  -8   1   2 127.760 20.6000   1
   8  -1   2 124.970 21.3700   1
   8  -1   2 220.460 27.4600   1
  -8  -1  -2 188.840 20.4100   1
  -8   1  -2 214.390 30.3200   1
   8   1  -2 276.900 26.2600   1
  -8   1   2 119.530 18.0800   1
   8  -1  -2 175.990 27.6000   1
   4  -6  -3 2589.61 71.4500   1
  -4  -6   3 2041.77 67.5800   1
   4   6  -3 2611.16 69.5500   1
   4  -6  -3 2351.70 92.2300   1
  -4   6   3 2518.09 65.6700   1
   4   6  -3 2048.49 60.6500   1
  -4  -6  -3 2454.78 72.5100   1
  -4  -6   3 2299.48 51.5600   1
  -4   6   3 2540.59 61.9400   1
   4  -6   3 2215.61 56.3500   1
  -4  -6  -3 2311.95 71.7900   1
   4  -6   3 2579.76 56.2600   1
   4  -6   3 2092.81 66.3200   1
   4  -6  -3 2388.63 53.3400   1
  -4   6   3 2288.30 81.6600   1
  -4  -6  -3 2226.00 61.6100   1
  -1   4   4 3798.57 83.9100   1
  -1   4  -4 4275.00 96.8500   1
   1  -4  -4 4273.70 94.6400   1
  -1  -4   4 3751.00 93.2700   1
  -1  -4  -4 4359.34 105.000   1
   1  -4   4 4180.39 91.7600   1
  -1  -4   4 4400.35 75.2500   1
   1   4  -4 3986.39 90.6000   1
   1  -4   4 4474.66 79.5000   1
  -1   4   4 3880.62 73.0300   1
   1  -4   4 4388.70 82.9200   1
   1   4  -4 4567.70 100.460   1
   1  -4  -4 4857.48 130.160   1
  -1  -4  -4 4783.80 117.630   1
  -1   4  -4 3619.91 127.810   1
  -2  -9   2 1956.59 47.9700   1
   2   9  -2 1767.43 53.1500   1
  -2   9   2 2165.31 70.3800   1
  -2   9  -2 2219.08 97.9500   1
   2  -9  -2 2217.43 73.6000   1
  -2  -9  -2 2148.55 58.4800   1
  -2   9   2 1774.09 49.6100   1
  -2  -9  -2 2063.96 62.8600   1
   2  -9  -2 1988.35 60.5100   1
  -2  -9   2 1713.26 62.8400   1
  -2  -9  -2 1618.19 61.4400   1
   2  -9  -2 2323.70 92.6300   1
  -2  -9   2 1733.30 67.0000   1
   2  -9   2 1489.46 71.1800   1
   2  -9   2 1918.17 50.5200   1
  -5   5   3 1705.92 52.4100   1
   5  -5   3 1713.01 80.5400   1
   5  -5   3 1645.36 79.9100   1
   5   5  -3 1444.38 57.0100   1
  -5  -5   3 1389.44 53.5900   1
   5  -5  -3 1615.50 55.8000   1
  -5  -5  -3 1531.41 59.5400   1
  -5   5  -3 1470.34 62.6500   1
  -5   5   3 1548.63 67.4100   1
   5  -5   3 1473.33 53.2700   1
  -5  -5  -3 1587.05 54.5300   1
  -5  -5   3 1790.16 49.7700   1
  -5   5   3 1697.90 49.2000   1
  -5  -5  -3 1263.57 42.5500   1
   5  -5  -3 1431.20 37.3400   1
   5  -5   3 1392.82 38.3400   1
   5   5  -3 1260.44 48.2800   1
   8  -5   0 103.980 15.8000   1
   8   5   0 102.790 22.9500   1
  -8  -5   0 105.530 17.5700   1
  -8   5   0 103.450 17.4500   1
   8  -5   0 76.8100 19.0000   1
  -8   5   0 99.3400 15.6600   1
   8  -5   0 89.3300 12.9300   1
  -2  10  -1 1307.87 66.3100   1
   2 -10  -1 1616.32 67.5500   1
  -2  10  -1 1637.23 117.830   1
  -2 -10  -1 1533.59 48.7000   1
  -2 -10   1 1726.19 48.2900   1
   2  10  -1 1202.83 42.7000   1
  -2 -10   1 1321.82 50.5600   1
   2  10   1 1409.69 42.8000   1
   2 -10   1 1384.50 51.4700   1
  -2  10   1 1756.49 115.770   1
   2 -10   1 1307.14 65.4700   1
   2 -10  -1 1469.43 70.0200   1
  -2 -10   1 1503.66 59.0900   1
  -2  10  -1 1374.53 52.5800   1
  -2  10   1 1420.26 51.4400   1
  -2 -10  -1 1758.39 67.2300   1
   9  -2   0 1118.65 46.8600   1
   9  -2   0 1384.95 42.3900   1
   9   2   0 1253.14 84.6500   1
   9  -2   0 1178.31 43.0900   1
  -9   2   0 1344.73 43.0200   1
   9   2   0 1041.83 73.5400   1
  -9  -2   0 1354.68 58.4100   1
  -9   2   0 1146.44 52.8900   1
   6  -8   0 261.830 30.1800   1
  -6   8   0 246.720 24.6500   1
   6  -8   0 315.010 28.8100   1
  -6  -8   0 296.100 31.6600   1
  -6   8   0 328.710 26.9600   1
  -6  -8   0 278.920 19.8200   1
   6  -8   0 291.390 21.4300   1
   8  -2   2 4920.72 93.2700   1
  -8  -2   2 5167.88 81.4400   1
  -8  -2  -2 5510.37 99.7500   1
  -8   2   2 5389.02 83.3200   1
   8   2   2 6113.79 120.980   1
  -8   2  -2 6153.34 120.140   1
  -8   2  -2 5339.83 112.170   1
   8   2  -2 5390.63 102.250   1
   8  -2   2 5049.18 109.430   1
   8   2   2 5676.02 132.300   1
   8  -2   2 5369.01 90.9400   1
   8  -2  -2 6022.73 99.1000   1
  -3 -10   0 285.280 25.9400   1
  -3  10   0 240.180 24.5400   1
   3  10   0 149.960 15.8000   1
  -3  10   0 186.420 45.7800   1
  -3  10   0 228.970 41.1000   1
   3 -10   0 256.790 47.2100   1
   3 -10   0 154.780 29.6100   1
  -3 -10   0 172.400 18.4900   1
   3  -7   3 1974.89 50.3700   1
  -3   7   3 1784.63 52.9300   1
  -3  -7  -3 1667.78 63.7800   1
  -3  -7  -3 1825.71 65.4400   1
   3   7  -3 1417.79 56.4700   1
  -3   7   3 1722.39 58.5400   1
   3  -7   3 1728.33 46.6400   1
   3  -7  -3 1639.65 44.3900   1
  -3  -7  -3 1966.48 59.6600   1
   3  -7  -3 1974.77 87.7300   1
   3  -7   3 1660.25 63.6400   1
  -3   7   3 1774.94 60.9800   1
  -3  -7   3 1859.36 48.8000   1
   3  -7  -3 1627.18 55.7000   1
  -3  -7   3 1514.84 60.0700   1
   3   7  -3 1691.81 61.3800   1
   3   3  -4 6982.51 123.720   1
  -3   3  -4 7373.03 144.800   1
  -3  -3  -4 6518.42 124.340   1
  -3   3  -4 6075.81 118.770   1
   3   3  -4 7524.15 132.010   1
   3  -3   4 7235.52 108.330   1
  -3  -3   4 6824.66 110.680   1
   3  -3   4 6926.50 98.4100   1
  -3   3   4 7014.49 116.810   1
  -3   3  -4 7079.12 159.000   1
  -3  -3   4 6963.82 108.670   1
  -7  -5  -2 5076.77 99.2700   1
   7  -5  -2 4311.16 85.3100   1
  -7   5   2 5105.65 83.2400   1
  -7  -5   2 4999.98 79.6500   1
   7  -5   2 4549.08 86.8300   1
  -7   5   2 4111.09 118.530   1
   7  -5  -2 4993.07 86.2000   1
  -7  -5  -2 5379.45 127.960   1
  -7   5  -2 4233.12 107.020   1
  -7   5  -2 4233.59 104.270   1
   7  -5  -2 4784.30 102.660   1
   7  -5   2 4822.15 104.240   1
   7   5  -2 4465.79 102.430   1
   7  -5   2 4318.61 96.5800   1
  -7   5   2 4734.04 93.8300   1
   7  -5   2 4864.64 76.5900   1
   4   0   4 7903.50 115.610   1
  -4   0   4 7184.69 123.620   1
   4   0  -4 7700.51 129.040   1
  -4   0  -4 7828.84 142.890   1
   4   0   4 7268.31 148.790   1
  -4   0   4 7819.06 119.940   1
  -2   4   4 1679.41 48.0100   1
   2  -4   4 1740.42 47.7400   1
   2   4  -4 1480.90 52.5400   1
  -2   4   4 1622.81 54.4000   1
   2   4   4 1165.32 87.7600   1
   2   4  -4 1692.63 59.6800   1
  -2  -4   4 1622.31 59.8000   1
   2  -4  -4 1842.25 57.8300   1
  -2  -4  -4 1528.50 52.9700   1
   2  -4   4 1838.95 113.630   1
   2   4   4 1814.87 87.1400   1
   2  -4   4 1629.81 47.2100   1
   2  -4  -4 1747.57 79.3700   1
  -2  -4  -4 1754.97 64.0700   1
  -2  -4   4 1721.53 45.7800   1
   9   0  -1 7.13000 19.0100   1
  -9   0  -1 12.5800 16.7800   1
  -9   0   1 6.49000 12.0100   1
  -9   0   1 14.2900 12.2100   1
   9   0   1 4.10000 21.2200   1
   9   0  -1 19.9400 21.6000   1
   9   0   1 -7.9700 16.8600   1
  -4   1  -4 1495.69 66.7100   1
  -4  -1   4 1536.93 49.6300   1
  -4   1  -4 1572.13 71.6400   1
   4   1  -4 1648.92 53.9700   1
   4  -1  -4 1511.32 56.0900   1
   4  -1   4 1113.66 90.9700   1
  -4   1   4 1261.34 42.6100   1
   4   1   4 1502.23 49.9000   1
  -4   1  -4 1517.01 60.7900   1
  -4  -1  -4 1395.54 53.8100   1
   4   1   4 1390.56 66.9000   1
  -4   1   4 1413.85 53.2400   1
  -4  -1   4 1416.20 41.3600   1
  -4   1  -4 1237.27 42.8400   1
   4  -1   4 1455.74 43.2400   1
  -4  -1   4 1259.19 48.0000   1
  -4   1   4 1551.88 45.2400   1
  -4  -1  -4 1618.72 69.1100   1
  -7  -7   0 1464.68 43.5200   1
   7  -7   0 1303.80 51.6800   1
   7   7   0 1557.59 66.4800   1
  -7   7   0 1057.43 45.3600   1
  -7   7   0 1612.31 51.8800   1
   7  -7   0 1237.35 44.6000   1
   7  -7   0 1394.92 40.0000   1
   7  -7   0 1407.23 52.8700   1
   7  -7   0 1743.37 85.4000   1
  -9   1  -1 395.300 24.0800   1
  -9  -1  -1 379.610 25.7100   1
  -9   1   1 311.280 20.1800   1
   9   1  -1 378.680 29.6600   1
   9   1   1 306.100 26.0000   1
   9  -1  -1 370.520 25.5500   1
   9  -1   1 369.690 26.5200   1
   9   1   1 315.530 28.5500   1
   9  -1   1 280.450 25.1100   1
   9   1  -1 319.740 25.7300   1
   9  -1  -1 436.730 31.8700   1
  -9  -1   1 286.370 18.0800   1
   9  -1   1 236.020 21.2800   1
  -9  -1   1 308.360 19.9600   1
  -5  -9   0 36.6700 20.8500   1
  -5   9   0 18.4200 18.5400   1
   5  -9   0 12.1400 18.8800   1
  -5   9   0 20.9100 17.2800   1
   5  -9   0 43.2500 14.0300   1
  -5  -9   0 34.8300 16.5900   1
  -6   4  -3 10882.0 181.670   1
  -6   4   3 10846.3 218.090   1
  -6  -4  -3 10604.7 156.930   1
   6  -4   3 9462.77 143.030   1
  -6  -4   3 11055.0 135.470   1
  -6   4   3 10295.8 127.090   1
   6  -4  -3 9947.98 142.000   1
  -6  -4   3 9668.43 142.070   1
   6  -4   3 9859.48 127.140   1
  -6   4   3 9641.76 134.300   1
  -6  -4  -3 10223.9 158.000   1
  -8   5  -1 1068.24 54.5800   1
   8  -5   1 956.680 59.8400   1
   8  -5  -1 1118.25 42.4600   1
  -8   5  -1 1291.18 57.7200   1
  -8  -5  -1 1465.45 46.6100   1
  -8   5   1 1365.50 46.7900   1
   8  -5   1 1304.66 48.2900   1
  -8  -5   1 1219.51 36.3400   1
  -8  -5   1 1404.41 44.8200   1
   8  -5  -1 1387.05 38.8400   1
   8  -5   1 1414.12 41.6700   1
  -8   5   1 1346.04 43.9100   1
   8   5   1 1448.50 69.3000   1
   8   5  -1 1306.61 51.1600   1
   8  -5   1 1284.29 51.9600   1
   8  -5  -1 1170.02 46.6500   1
   0   8  -3 0.99000 12.0200   1
   0   8   3 -49.760 47.0600   1
   0  -8   3 -8.5900 15.4800   1
   0  -8   3 10.0200 16.4800   1
   0  -8  -3 12.5300 32.6100   1
   0  -8  -3 14.3500 25.5300   1
  -3   9  -2 1620.45 64.5100   1
   3  -9  -2 2088.98 52.8200   1
   3  -9   2 2180.58 52.6900   1
   3  -9   2 2033.76 76.0700   1
  -3  -9   2 1741.92 44.5800   1
   3  -9   2 2089.91 53.7200   1
  -3   9   2 1691.67 55.1600   1
  -3   9   2 2060.00 64.5200   1
  -3   9  -2 1947.85 76.0900   1
  -3  -9   2 1873.61 65.4300   1
   3  -9   2 1771.69 70.5600   1
  -3  -9  -2 2063.85 59.5300   1
  -3   9   2 2069.10 54.2900   1
   3  -9  -2 2253.79 84.7300   1
   3  -9  -2 2279.73 70.1400   1
  -3  -9  -2 1841.02 59.7200   1
  -3   9  -2 1942.83 76.2400   1
  -3  -9   2 1857.68 65.7300   1
   3  -9  -2 2097.71 76.2700   1
  -3  -9  -2 2254.01 80.8100   1
   9  -3   0 300.500 27.5600   1
   9   3   0 265.540 27.2200   1
   9  -3   0 185.250 14.9500   1
  -9   3   0 250.830 19.5400   1
  -9  -3   0 223.530 18.4200   1
   9  -3   0 317.160 23.7900   1
   9   3   0 230.660 29.0700   1
  -7   0   3 8.50000 11.7600   1
   7   0   3 -1.3300 15.7800   1
   7   0  -3 4.60000 21.0800   1
  -7   0   3 19.8800 16.7200   1
  -7   0  -3 49.0600 24.7900   1
  -7   0  -3 5.91000 19.5100   1
   7   0  -3 18.4600 20.3400   1
  -7   0  -3 1.18000 15.9700   1
  -7   0   3 0.29000 14.9300   1
   8   3   2 1083.02 55.6800   1
  -8   3  -2 1082.12 47.3200   1
  -8  -3  -2 1119.47 47.9200   1
   8  -3   2 1013.62 42.3300   1
  -8  -3   2 1212.13 38.3200   1
  -8   3   2 1252.93 37.9300   1
   8  -3  -2 1020.24 41.9800   1
   8  -3  -2 1204.73 37.9600   1
   8  -3   2 1078.17 37.1300   1
  -8   3   2 1245.74 39.0700   1
   8  -3   2 877.250 40.9300   1
   8  -3   2 1196.08 51.0600   1
   8   3  -2 1336.32 50.8200   1
   8  -3  -2 1280.46 46.1500   1
  -8   3  -2 932.160 44.6700   1
  -8  -3  -2 1231.18 60.6800   1
   8  -3   2 746.570 59.1300   1
   0  -5   4 -8.7900 15.4100   1
   0  -5  -4 -25.000 22.5700   1
   0   5  -4 -4.0900 15.6900   1
   0   5   4 19.1000 23.6300   1
   0  -5  -4 2.57000 14.8400   1
   0   5  -4 1.76000 14.5500   1
   0  -5   4 3.67000 14.4800   1
   0  -5  -4 12.5300 31.9600   1
  -4  -2  -4 5711.76 119.790   1
  -4   2   4 5336.63 104.910   1
  -4  -2   4 4750.41 97.6200   1
  -4   2  -4 4675.29 87.6300   1
  -4   2   4 5320.45 98.8200   1
   4  -2   4 5783.43 92.9700   1
  -4  -2   4 5434.77 102.990   1
   4   2   4 5247.85 109.710   1
  -4  -2   4 5118.45 103.130   1
   4  -2  -4 5450.55 109.080   1
   4   2  -4 5072.56 110.700   1
  -4   2  -4 5672.08 121.070   1
  -4  -2  -4 5402.60 113.570   1
  -4   2  -4 5860.30 135.610   1
  -4   2  -4 5340.40 134.040   1
  -1   8   3 6094.43 106.810   1
  -1  -8   3 6965.06 96.1500   1
   1  -8   3 6415.43 92.9200   1
   1   8   3 6346.88 208.060   1
  -1   8  -3 7563.87 196.230   1
  -1  -8   3 5969.24 128.850   1
   1  -8   3 5896.29 146.480   1
   1  -8  -3 6825.25 121.910   1
  -1  -8  -3 6514.71 113.730   1
  -1  -8   3 6787.30 156.530   1
   1  -8   3 6249.58 136.410   1
   1  -8  -3 6694.65 136.710   1
  -1  -8  -3 7175.35 136.890   1
   9   2  -1 220.860 30.5200   1
  -9  -2   1 215.460 18.7500   1
   9  -2  -1 147.420 19.2900   1
   9  -2  -1 137.140 27.2400   1
   9   2  -1 170.020 24.9600   1
   9   2   1 177.910 23.9600   1
   9   2   1 125.680 23.5300   1
   9  -2  -1 144.120 25.1500   1
  -9   2  -1 150.670 28.5500   1
   9  -2   1 119.770 39.9900   1
   9  -2   1 183.300 37.2700   1
  -9  -2  -1 192.710 20.1300   1
  -9   2   1 155.530 23.6300   1
   9  -2   1 136.050 15.0300   1
  -9  -2   1 143.690 16.3200   1
   9  -2   1 108.200 16.0700   1
   6  -8   1 3769.67 81.9600   1
  -6  -8   1 4043.43 72.5900   1
   6   8  -1 4562.30 107.010   1
  -6   8  -1 3917.87 83.7400   1
   6  -8   1 4540.11 88.1300   1
   6  -8  -1 4165.22 118.690   1
  -6  -8  -1 4013.46 78.0600   1
  -6  -8  -1 3803.92 88.4100   1
   6  -8  -1 4443.90 101.150   1
   6  -8   1 3814.19 93.3900   1
  -6  -8   1 4123.17 80.9200   1
   6  -8   1 3881.68 69.1000   1
  -6   8  -1 3486.35 92.1200   1
   6  -8  -1 3591.95 66.8300   1
   7  -1  -3 662.050 33.7900   1
  -7   1   3 745.650 33.7000   1
  -7  -1   3 724.650 29.4100   1
  -7  -1  -3 626.610 36.7900   1
  -7   1  -3 505.230 30.8900   1
  -7   1  -3 620.040 42.0000   1
   7   1   3 558.270 30.6200   1
  -7  -1   3 596.780 29.3700   1
  -7   1   3 604.130 28.7400   1
  -7   1   3 638.930 28.4800   1
   7   1  -3 667.230 38.5800   1
   7  -1  -3 640.490 35.5000   1
  -7  -1  -3 644.270 39.7400   1
  -7  -1  -3 538.400 35.6200   1
  -7   1  -3 640.510 37.2800   1
   7  -1   3 528.930 25.5600   1
   3 -10  -1 1280.33 60.5500   1
  -3 -10  -1 1209.84 40.5900   1
  -3 -10  -1 956.390 42.0800   1
  -3 -10   1 1154.08 38.1000   1
  -3  10   1 1122.35 47.5600   1
  -3  10  -1 945.210 44.3300   1
   3 -10   1 1042.84 35.4100   1
   3  10   1 928.980 32.3800   1
   3 -10  -1 1072.06 50.1700   1
  -3  10  -1 974.490 50.0900   1
  -3 -10   1 937.480 42.8500   1
   3 -10  -1 1082.21 44.9000   1
   3 -10   1 943.500 43.3100   1
  -3  10  -1 1113.65 59.4400   1
   1  -5   4 1461.52 42.7100   1
  -1   5   4 1475.89 48.6900   1
  -1  -5  -4 1099.58 45.4900   1
   1  -5  -4 1277.43 42.6700   1
   1  -5   4 1456.68 61.2200   1
   1   5  -4 1311.75 52.6500   1
  -1  -5   4 1527.11 44.2700   1
   1  -5   4 1369.35 44.0000   1
  -1   5   4 1512.43 53.3100   1
  -1  -5   4 1430.05 59.6700   1
   1   5  -4 1306.54 47.1100   1
  -1   5  -4 1345.28 95.0000   1
  -1   5  -4 1533.13 58.8000   1
  -1  -5  -4 1339.36 61.4400   1
  -1  -5  -4 1344.78 58.8900   1
   1  -5  -4 1341.19 67.7400   1
  -6   7  -2 1746.61 74.0700   1
  -6   7   2 2228.66 59.2900   1
  -6   7   2 1943.44 69.6900   1
   6  -7   2 1920.25 61.3500   1
  -6  -7  -2 1978.49 58.3200   1
  -6  -7   2 2048.79 50.9600   1
  -6   7   2 1978.12 50.7200   1
   6  -7  -2 2314.04 52.9500   1
   6  -7   2 1932.19 46.5000   1
   6   7  -2 2515.53 75.4000   1
  -6  -7  -2 2061.00 65.5800   1
   6  -7   2 2215.29 68.4300   1
   6  -7  -2 2405.33 70.6100   1
  -3  -4   4 4437.06 79.2500   1
   3   4   4 4248.45 123.140   1
  -3  -4  -4 4413.22 104.610   1
  -3  -4   4 3715.81 93.6000   1
   3   4  -4 4268.12 103.420   1
   3  -4   4 3931.92 68.1000   1
   3  -4  -4 4887.13 96.9700   1
   3  -4   4 4602.97 80.4700   1
  -3  -4  -4 4367.23 107.700   1
   3  -4  -4 3774.97 148.040   1
  -3   4   4 4221.39 78.6700   1
  -7   7  -1 1115.28 50.0200   1
  -7  -7  -1 1217.66 62.8300   1
  -7  -7  -1 1176.34 37.6300   1
   7  -7   1 1225.73 39.2300   1
   7   7  -1 1312.39 57.1800   1
   7  -7   1 1184.79 49.4300   1
   7  -7  -1 1077.24 44.2500   1
   7  -7  -1 1181.93 38.2600   1
  -7   7  -1 1145.77 39.9700   1
  -7   7   1 1137.37 42.2300   1
   7  -7   1 876.560 45.5200   1
   7  -7   1 1246.07 41.5300   1
  -7  -7   1 1166.91 46.0000   1
  -7  -7   1 1198.34 36.2300   1
   7  -7  -1 1054.75 45.0600   1
  -5  -9  -1 418.940 24.8700   1
  -5  -9   1 437.880 27.6300   1
  -5  -9   1 449.530 24.1000   1
   5  -9   1 410.340 24.3600   1
   5  -9   1 440.500 28.3300   1
   5  -9  -1 525.750 39.1500   1
  -5  -9   1 529.510 39.5300   1
  -5  -9  -1 447.040 30.1000   1
  -5   9  -1 402.030 29.2900   1
   5  -9  -1 421.860 29.7200   1
   5  -9   1 403.550 29.0200   1
  -5   9   1 418.460 30.8500   1
  -5   9  -1 453.320 28.1600   1
   5  -9   1 461.200 25.7500   1
   5  -9  -1 379.320 22.8900   1
   5  -8   2 1101.71 36.8000   1
  -5   8  -2 1011.93 39.3400   1
  -5   8   2 1156.09 42.7000   1
   5   8  -2 944.260 43.4100   1
   5  -8   2 1113.67 47.2400   1
   5  -8  -2 1106.55 44.7700   1
  -5   8  -2 1102.83 45.5500   1
  -5  -8  -2 1170.06 46.4700   1
   5  -8  -2 1083.72 35.2100   1
   5  -8   2 929.930 43.7500   1
  -5   8   2 988.130 40.2400   1
  -5  -8  -2 1085.92 41.1000   1
  -5  -8   2 951.270 32.1100   1
  -5   8   2 969.150 33.9500   1
   5  -8   2 1130.12 39.8600   1
  -7  -2  -3 570.060 34.1500   1
  -7  -2  -3 588.460 36.3800   1
   7  -2   3 554.740 25.9300   1
  -7  -2   3 597.810 29.0700   1
   7  -2  -3 569.450 28.9100   1
  -7   2  -3 636.050 37.7700   1
  -7   2  -3 576.080 37.4800   1
   7   2  -3 591.130 35.5400   1
  -7  -2   3 590.660 25.9600   1
   7  -2  -3 588.560 31.0100   1
  -7   2  -3 546.800 33.8600   1
  -7   2   3 728.880 31.4300   1
  -7   2   3 573.260 29.8800   1
   7   2   3 659.470 36.7900   1
  -7   2   3 573.220 27.5400   1
   5  -6   3 4375.29 79.7300   1
  -5  -6  -3 3996.18 107.120   1
   5   6  -3 4979.48 105.770   1
   5  -6   3 4482.30 73.8800   1
  -5   6   3 4525.51 83.4500   1
  -5  -6  -3 4371.50 94.6800   1
   5  -6   3 3951.94 90.6900   1
  -5   6   3 4321.80 110.500   1
   5  -6  -3 4684.17 79.4900   1
   8  -6   0 306.630 25.7100   1
  -8   6   0 331.650 21.7100   1
   8  -6   0 345.670 20.9400   1
   8  -6   0 278.830 21.8800   1
  -8  -6   0 362.640 22.7100   1
  -8   6   0 311.740 26.6800   1
   8   6   0 424.820 32.2500   1
  -2  -8   3 856.600 31.6400   1
  -2   8   3 995.790 51.3100   1
  -2   8  -3 1089.12 64.5400   1
   2  -8  -3 887.170 37.3800   1
  -2   8   3 864.320 37.0700   1
   2  -8   3 944.190 35.3900   1
  -2  -8   3 744.890 44.4500   1
   2  -8  -3 1132.38 50.1700   1
  -2   8   3 876.270 41.7900   1
   2  -8   3 938.550 34.5000   1
   2  -8   3 807.250 51.3100   1
   2  -8  -3 944.010 52.0700   1
  -2  -8  -3 905.640 44.3500   1
  -2  -8  -3 1029.64 45.9300   1
   0  11   0 4.10000 10.8500   1
   0 -11   0 16.3800 20.8200   1
   0 -11   0 -5.2600 10.1300   1
   4 -10   0 6.94000 14.1900   1
  -4  10   0 -5.2800 16.2800   1
   4 -10   0 -2.0300 18.3500   1
  -4 -10   0 17.7700 19.5200   1
  -4  10   0 2.28000 17.5900   1
   4 -10   0 6.20000 31.3800   1
   4 -10   0 9.15000 19.1300   1
  -4 -10   0 15.9700 14.5800   1
  -4  -7  -3 241.610 28.7000   1
   4   7  -3 188.210 17.8800   1
   4  -7   3 224.390 19.9200   1
   4  -7  -3 211.800 15.4900   1
  -4  -7  -3 229.370 26.9800   1
  -4  -7  -3 199.390 27.0600   1
  -4   7   3 247.840 26.6700   1
   4  -7  -3 253.910 26.4200   1
   4  -7   3 247.690 21.3100   1
  -4   7   3 217.350 18.2800   1
  -4  -7   3 197.340 20.1600   1
  -4  -7   3 197.950 23.8300   1
   4  -7   3 256.310 31.1400   1
   4   7  -3 208.200 25.2800   1
  -4   7   3 224.520 22.8600   1
  -4   3   4 88.0600 17.8400   1
   4   3  -4 131.950 23.5000   1
   4  -3   4 67.3600 16.8400   1
  -4   3  -4 155.650 42.8800   1
  -4  -3  -4 87.7900 12.9600   1
   4  -3   4 87.2500 12.6200   1
  -4   3  -4 96.2300 19.4800   1
  -4   3  -4 112.890 18.7600   1
   4   3  -4 115.250 28.1400   1
   4  -3  -4 112.060 22.2800   1
  -4  -3   4 88.0300 18.8000   1
   4   3   4 34.7800 24.0100   1
  -4  -3  -4 107.780 28.5200   1
  -4  -3  -4 104.260 23.3300   1
  -4  -3   4 83.2700 21.0300   1
   4  -3  -4 137.700 20.1000   1
  -4   3   4 106.630 16.6600   1
  -4  -3   4 88.4200 18.3200   1
   2  -5   4 1530.38 43.6400   1
   2  -5   4 1419.58 42.3400   1
   2   5  -4 1473.00 49.6500   1
  -2  -5  -4 1368.35 51.9900   1
  -2   5   4 1478.19 53.1100   1
  -2   5   4 1489.13 50.6600   1
   2  -5  -4 1404.99 70.2100   1
  -2  -5  -4 1227.83 43.4500   1
   2   5   4 991.090 94.6300   1
   2   5  -4 1461.99 55.0900   1
   2  -5  -4 1374.90 41.7600   1
   2  -5  -4 1517.03 55.0300   1
  -2  -5   4 1638.97 46.2000   1
  -2  -5   4 1392.19 63.2100   1
  -2  -5  -4 1534.95 64.7400   1
  -9  -3   1 7037.20 98.5300   1
   9  -3  -1 6776.07 100.430   1
   9   3   1 6725.71 122.930   1
   9   3  -1 7472.97 136.590   1
  -9  -3   1 7064.32 103.260   1
  -9   3  -1 7622.41 135.330   1
  -9   3   1 7084.12 135.470   1
   9  -3  -1 7351.99 127.880   1
   9  -3   1 6619.87 121.520   1
   9   3  -1 6419.79 125.750   1
   9   3   1 6562.43 134.330   1
   9  -3   1 7774.46 112.240   1
  -1 -11   0 161.500 15.8300   1
  -1 -11   0 159.970 21.9500   1
   1 -11   0 225.460 27.1500   1
  -1  11   0 229.420 51.3200   1
   1 -11   0 185.410 16.8100   1
  -1  11   0 150.830 16.7600   1
   1  11   0 164.010 15.6500   1
   0 -10   2 2106.33 66.6900   1
   0  10   2 2302.87 99.0800   1
   0  10  -2 2111.38 58.0300   1
   0 -10   2 2561.80 59.0200   1
   0 -10  -2 2546.46 70.5200   1
   0 -10  -2 2701.15 85.8800   1
   0  10   2 2185.85 55.2500   1
   0 -10   2 2867.90 84.5000   1
   0 -10  -2 2714.13 71.4900   1
   9  -4   0 3440.33 62.8300   1
  -9   4   0 3752.84 82.2000   1
  -9  -4   0 3625.25 74.7600   1
   9   4   0 3077.59 82.4300   1
   9  -4   0 3207.55 83.3100   1
  -8  -4   2 1236.50 39.2200   1
  -8   4   2 1060.70 34.6600   1
   8  -4  -2 940.550 37.3500   1
  -8   4  -2 1293.20 55.6100   1
   8  -4  -2 1247.14 41.1100   1
   8  -4   2 1190.78 37.2000   1
  -8   4   2 1028.00 37.2200   1
   8  -4   2 928.320 48.1300   1
   8  -4   2 1040.53 53.5800   1
   8   4  -2 1234.72 48.6500   1
   8  -4  -2 1090.71 43.3500   1
  -8  -4  -2 1261.14 47.6000   1
   8  -4   2 1021.32 40.7300   1
  -8  -4  -2 1234.93 61.1300   1
  -8   4  -2 982.260 46.2900   1
   8   4   2 1006.00 47.1100   1
   7  -6  -2 1684.98 51.9400   1
   7  -6   2 1760.09 63.7400   1
   7   6  -2 1617.98 56.2100   1
   7  -6   2 1264.96 56.8200   1
  -7   6   2 1743.03 53.6700   1
   7  -6   2 1645.17 43.3600   1
   7  -6  -2 1759.36 47.2500   1
   7  -6  -2 1405.85 49.0000   1
  -7   6   2 1678.17 47.1800   1
  -7  -6   2 1688.21 50.7300   1
   7  -6   2 1628.84 54.8200   1
  -7   6   2 1608.85 76.9900   1
  -7   6  -2 1710.44 69.3200   1
  -7  -6  -2 1749.15 59.1300   1
  -7  -6  -2 1361.64 66.3900   1
  -7  -6  -2 1672.44 62.8100   1
  -7   6  -2 1523.95 60.7400   1
   1 -10  -2 328.340 26.6200   1
  -1 -10  -2 346.930 27.5900   1
  -1  10   2 335.130 20.6300   1
   1  10   2 277.100 20.6000   1
  -1 -10   2 268.980 17.5300   1
   1 -10   2 352.330 26.4900   1
   1  10  -2 212.770 19.1400   1
  -1  10  -2 285.220 24.2300   1
  -1 -10  -2 249.120 25.0900   1
  -1 -10   2 234.000 21.6700   1
  -1  10   2 346.610 41.0200   1
   1 -10   2 311.660 28.9300   1
   1 -10  -2 378.130 29.0900   1
   1 -10  -2 415.630 32.4000   1
  -1 -10   2 254.540 25.0800   1
  -1 -10  -2 239.500 25.1800   1
   1 -10   2 282.850 28.0400   1
  -1  10  -2 337.810 50.5700   1
  -6  -5  -3 675.010 38.6300   1
  -6   5  -3 555.090 46.3900   1
   6  -5  -3 790.640 40.5100   1
   6   5  -3 684.750 35.3500   1
   6  -5   3 595.560 54.8100   1
   6  -5   3 508.990 36.0900   1
  -6   5   3 884.860 44.5900   1
  -6   5   3 594.500 31.9200   1
   6  -5   3 605.430 27.9100   1
   6  -5  -3 488.650 22.9900   1
   6  -5  -3 565.440 31.3500   1
  -6  -5   3 606.920 30.7400   1
  -6  -5  -3 573.240 35.6500   1
   6  -5   3 633.960 38.4600   1
  -6   5   3 578.870 45.0600   1
  -6   5  -3 591.630 51.8100   1
  -6   5  -3 684.850 44.1800   1
  -6   5   3 737.450 31.4600   1
   5   0   4 19.7300 14.1300   1
  -5   0   4 127.200 18.7100   1
  -5   0  -4 21.8900 33.9500   1
  -5   0   4 56.3500 14.7200   1
  -5   0  -4 6.99000 12.1000   1
  -5   0   4 45.0600 16.8200   1
  -5   0  -4 -4.1600 16.2000   1
   5   0  -4 61.3600 21.9800   1
  -4  -9  -2 4581.53 99.4600   1
  -4   9   2 3953.11 75.1700   1
  -4  -9  -2 4564.31 93.7300   1
  -4   9  -2 3554.37 81.9900   1
  -4   9  -2 4073.44 107.080   1
   4  -9   2 3909.06 99.7000   1
   4  -9  -2 4331.99 126.040   1
   4  -9  -2 4297.34 74.2500   1
  -4  -9   2 4644.11 130.540   1
  -4  -9   2 4088.16 67.3800   1
  -4   9   2 3979.91 86.4600   1
   4  -9   2 3854.85 68.2800   1
   4  -9   2 3599.29 91.4900   1
  -7  -3   3 544.760 25.2600   1
  -7  -3  -3 583.100 68.4800   1
  -7   3  -3 516.000 40.0000   1
   7  -3  -3 565.980 26.9400   1
   7  -3   3 521.510 25.4200   1
  -7   3   3 463.960 25.8900   1
  -7   3   3 555.140 26.9800   1
   7  -3   3 377.270 29.7000   1
   7   3   3 511.440 32.3300   1
  -7   3  -3 587.890 38.6900   1
  -7  -3  -3 551.050 35.9200   1
   7  -3  -3 589.120 31.4500   1
  -7  -3   3 522.720 29.2500   1
  -7   3   3 548.730 24.5600   1
   7   3  -3 614.560 33.3800   1
  -7   3  -3 482.670 32.9600   1
  -5   1  -4 3849.63 98.2300   1
  -5  -1  -4 3762.03 89.6200   1
  -5   1   4 3846.76 67.0700   1
   5  -1  -4 3920.10 85.0000   1
  -5  -1   4 3382.42 78.6400   1
   5  -1   4 3397.15 64.0700   1
  -5  -1  -4 2976.66 63.8800   1
  -5  -1   4 3140.10 78.1800   1
  -5   1   4 3597.58 79.4800   1
  -5  -1  -4 3178.04 83.0500   1
  -5   1  -4 3605.43 88.9800   1
   5   1  -4 3442.31 86.0500   1
  -5  -1  -4 3544.62 86.7400   1
  -5   1  -4 3608.62 92.4500   1
   5   1   4 3454.17 78.6500   1
  -2  11   0 55.2700 40.7200   1
   2  11   0 68.5200 12.8900   1
  -2 -11   0 5.96000 32.4700   1
   2 -11   0 49.9100 18.6700   1
   2 -11   0 82.9900 12.9000   1
  -2  11   0 52.1700 13.6700   1
  -2 -11   0 70.9500 22.4900   1
  -8   6   1 99.5100 17.6000   1
   8  -6   1 72.6400 17.8000   1
   8   6  -1 45.1200 21.5000   1
   8  -6   1 89.3000 21.2000   1
   8  -6  -1 89.1100 19.8800   1
  -8   6  -1 70.3700 20.3500   1
  -8  -6  -1 100.270 31.0900   1
   8  -6   1 66.0000 21.7000   1
   8  -6  -1 78.0000 14.9700   1
   8  -6   1 82.2800 12.9500   1
   8  -6   1 86.2900 16.1500   1
  -8   6  -1 94.2600 26.2800   1
  -8  -6  -1 107.480 19.4100   1
  -8   6   1 100.030 13.3400   1
  -8  -6   1 102.900 17.4900   1
  -8  -6   1 97.7000 16.3100   1
   8  -6  -1 71.2300 13.5000   1
   0 -11   1 6024.30 89.7100   1
   0  11  -1 6213.92 132.690   1
   0 -11  -1 6164.20 91.9700   1
   0  11  -1 5337.28 93.6400   1
   0 -11   1 6415.15 120.080   1
   4 -10   1 644.710 43.6100   1
   4 -10  -1 770.590 33.7500   1
  -4 -10   1 627.940 25.2500   1
  -4  10  -1 575.520 34.1300   1
   4 -10  -1 584.070 50.3900   1
  -4 -10   1 723.360 42.1200   1
  -4 -10  -1 662.820 30.6100   1
  -4 -10   1 699.590 30.8400   1
   4 -10  -1 596.120 34.1900   1
   4 -10   1 563.140 35.1500   1
  -4 -10  -1 698.510 38.7000   1
  -4  10   1 784.950 36.4900   1
   4 -10   1 719.470 28.7800   1
  -4  10  -1 524.320 35.9800   1
   4 -10   1 673.390 29.6000   1
   4 -10  -1 846.870 47.1000   1
  -3   8   3 28.7200 18.5900   1
  -3  -8   3 56.5800 16.7800   1
   3  -8   3 40.4900 13.1700   1
  -3   8   3 50.1400 14.4000   1
   3  -8  -3 37.4100 14.8900   1
   3  -8   3 89.4300 19.6400   1
   3   8  -3 43.7200 18.0500   1
  -3  -8   3 27.2100 17.9000   1
   3  -8  -3 40.4800 28.2600   1
  -3  -8  -3 21.6100 19.0700   1
   3  -8  -3 27.1200 19.4000   1
   3  -8   3 32.1500 26.2200   1
  -3  -8  -3 41.2100 23.2000   1
  -3   8   3 46.6800 16.3000   1
   0  -6   4 38469.7 1003.59   1
   0  -6  -4 42907.7 1141.47   1
   0  -6  -4 35788.6 964.120   1
   0   6  -4 30439.1 812.900   1
   0   6   4 39233.8 1049.50   1
   0   6  -4 39070.8 1032.46   1
   0  -6   4 32838.9 903.240   1
  -1  11   1 662.110 30.3900   1
  -1 -11  -1 819.630 48.1600   1
  -1 -11   1 685.870 43.4900   1
   1  11  -1 639.880 35.0000   1
  -1  11  -1 803.420 38.5100   1
  -1  11   1 1061.16 82.7000   1
   1 -11   1 966.050 50.5500   1
   1 -11  -1 833.010 41.0400   1
  -1 -11   1 658.540 38.7200   1
  -1  11  -1 997.530 75.6800   1
   1 -11   1 725.290 31.8900   1
  -1  11  -1 645.330 43.7400   1
  -1 -11   1 746.710 33.0500   1
   1  11   1 624.300 29.8900   1
  -1 -11  -1 861.310 40.9600   1
   1 -11  -1 951.110 44.5800   1
   2 -10  -2 12.2500 23.5800   1
  -2 -10  -2 29.3800 21.2500   1
  -2  10   2 16.1400 11.9300   1
   2 -10   2 32.3700 11.8300   1
  -2  10   2 21.8600 22.8000   1
  -2  10   2 10.6300 26.6300   1
  -2  10  -2 40.4500 37.1800   1
  -2 -10   2 16.7900 21.5300   1
   2 -10  -2 22.4400 22.7100   1
   2 -10   2 40.1800 18.6500   1
  -2 -10  -2 22.1800 24.2200   1
   2 -10  -2 63.7200 27.3900   1
  -2 -10  -2 38.1800 23.2900   1
  -3  -5   4 9.34000 18.4700   1
  -3  -5  -4 -5.0200 26.3700   1
  -3  -5   4 18.2900 15.9300   1
   3  -5   4 8.66000 14.4900   1
   3  -5  -4 -3.0600 30.8900   1
  -3  -5  -4 13.2200 12.0500   1
  -3   5   4 17.3800 13.8300   1
   3  -5   4 11.9000 13.2400   1
   3  -5  -4 15.1100 10.4000   1
   3   5  -4 -0.6300 17.1800   1
   3   5  -4 -9.6000 15.2100   1
   3   5   4 -1.0600 20.1500   1
  -3   5   4 18.5700 17.5400   1
  -3  -5  -4 4.28000 21.5000   1
   3  -5  -4 11.3800 19.5800   1
  -6  -9   0 2152.49 73.0200   1
  -6  -9   0 2439.09 55.0400   1
   6  -9   0 2849.97 92.0800   1
   6  -9   0 2370.13 71.3100   1
  -6   9   0 2500.85 61.2900   1
   6  -9   0 2651.59 55.7400   1
  -5   2   4 13631.0 135.840   1
   5  -2   4 14641.9 125.160   1
  -5  -2  -4 15199.9 429.000   1
  -5   2  -4 15840.0 452.750   1
  -5  -2  -4 15477.4 436.110   1
  -5   2  -4 14927.3 195.570   1
  -5  -2   4 15170.7 407.080   1
  -5  -2  -4 15069.2 190.350   1
   5  -2   4 12331.3 250.010   1
  -5  -2   4 14022.9 141.990   1
   5   2   4 15547.7 433.640   1
  -5  -2   4 14477.8 141.920   1
  -5   2  -4 15104.1 431.280   1
  -4   4   4 1324.15 40.3400   1
  -4   4   4 1372.26 46.6800   1
  -4   4  -4 1244.56 70.3600   1
  -4  -4  -4 1337.85 57.8300   1
  -4  -4   4 1308.04 42.2100   1
   4   4   4 961.430 58.4800   1
  -4  -4  -4 1347.09 56.4700   1
  -4  -4   4 966.120 49.9000   1
   4   4  -4 1141.57 50.0800   1
   4   4  -4 1005.97 43.3100   1
   4  -4   4 1215.81 34.9700   1
  -4  -4  -4 985.810 37.1100   1
   4  -4  -4 1288.81 40.9300   1
  -4  -4   4 1252.13 58.9700   1
   4  -4   4 1360.06 42.8700   1
  -7  -8   0 2747.32 64.7300   1
  -7  -8   0 3140.04 98.9000   1
   7  -8   0 3357.71 106.640   1
  -7   8   0 2849.88 65.2700   1
   7  -8   0 3047.11 79.2900   1
   7  -8   0 2708.17 87.3000   1
   7  -8   0 3071.84 59.5700   1
  -9  -4  -1 4068.88 73.5700   1
  -9  -4   1 4187.15 73.6200   1
   9  -4   1 3734.08 93.9900   1
  -9  -4   1 4284.69 68.9100   1
   9   4   1 3795.56 92.6800   1
  -9   4   1 4556.86 74.6100   1
   9   4   1 4405.43 111.100   1
   9   4  -1 4637.49 97.0000   1
   9  -4   1 3952.16 62.7900   1
   9  -4   1 4647.48 96.3600   1
  -9   4   1 4020.43 73.8800   1
  -9   4  -1 4276.97 96.4500   1
  -9   4   1 3784.36 91.3100   1
   9  -4  -1 4174.02 92.9500   1
   1   6  -4 775.160 38.2600   1
   1  -6   4 1010.48 36.9200   1
   1  -6  -4 782.410 34.5500   1
  -1  -6  -4 786.540 42.1400   1
  -1   6   4 906.020 36.0600   1
   1  -6   4 1034.81 35.1500   1
  -1  -6   4 977.590 44.5200   1
  -1  -6  -4 936.970 49.6100   1
   1  -6  -4 1002.52 58.9500   1
   1   6  -4 961.120 45.2300   1
  -1  -6  -4 998.320 48.5800   1
   1  -6  -4 937.570 46.7000   1
  -1  -6   4 861.360 45.7200   1
  -1   6  -4 827.360 75.6600   1
   1   6   4 735.460 60.8600   1
  -1   6   4 1070.14 51.8300   1
   9   0  -2 33.7700 22.2800   1
   9   0   2 37.5900 19.7200   1
   9   0   2 25.6300 18.1500   1
   9   0  -2 -0.3700 18.4900   1
  -9   0   2 17.7500 15.0700   1
  -9   0  -2 -3.9700 22.7400   1
   9   1  -2 1023.29 44.4300   1
  -9   1   2 1153.31 39.1000   1
  -9  -1  -2 982.140 39.5500   1
  -9   1  -2 900.110 40.8900   1
   9   1   2 1112.53 54.3000   1
   9  -1  -2 972.440 38.5800   1
   9  -1  -2 897.880 37.7000   1
   9   1  -2 940.740 42.0000   1
   9  -1   2 1013.20 45.5800   1
   9   1   2 959.510 43.3800   1
   9  -1   2 1107.83 40.9200   1
  -9  -1   2 1033.57 34.8200   1
  -2  11  -1 4894.75 109.910   1
  -2 -11  -1 6193.80 116.790   1
  -2 -11   1 5638.69 79.0800   1
   2 -11   1 6028.29 81.1300   1
   2 -11   1 5799.26 113.860   1
   2 -11  -1 6288.53 119.950   1
  -2  11  -1 5902.30 102.340   1
  -2 -11  -1 5737.61 81.2600   1
   2 -11  -1 6142.47 112.800   1
   9  -5   0 4098.06 89.9500   1
   9   5   0 3636.56 95.8300   1
  -9  -5   0 3736.19 67.3700   1
  -9   5   0 3410.31 78.6500   1
   9  -5   0 3933.01 66.2800   1
  10   0   0 17825.9 481.390   1
 -10   0   0 17177.4 464.350   1
  10   0   0 18668.2 511.390   1
   7  -4   3 1558.20 63.8300   1
   7   4  -3 1803.16 60.1200   1
  -7   4  -3 1680.51 59.4400   1
  -7  -4  -3 1950.81 64.6600   1
  -7   4  -3 2035.97 70.1000   1
  -7   4   3 1745.80 85.8400   1
  -7   4  -3 1943.94 69.6800   1
  -7  -4  -3 2094.25 66.5400   1
  -7  -4   3 1800.56 44.0400   1
  -7   4   3 2047.86 49.6700   1
   7  -4  -3 1813.11 46.0900   1
   7  -4   3 2167.50 48.2200   1
  -7   4   3 1744.14 51.0000   1
   0  -9  -3 5087.08 98.9600   1
   0  -9  -3 5424.37 122.350   1
   0   9   3 4322.32 139.190   1
   0  -9   3 5376.35 84.6200   1
   0  -9   3 4563.37 129.830   1
   8  -5   2 677.780 38.2600   1
   8  -5   2 816.970 29.9900   1
  -8  -5  -2 716.680 36.5500   1
  -8  -5  -2 376.830 46.4700   1
   8  -5   2 594.250 36.2000   1
  -8   5  -2 589.250 36.2800   1
  -8   5   2 775.080 32.1600   1
  -8  -5  -2 771.870 41.1400   1
   8  -5  -2 845.860 37.2900   1
   8   5  -2 743.780 37.8100   1
  -8   5  -2 655.020 42.1400   1
   8  -5  -2 595.390 24.3700   1
   8  -5   2 505.390 33.9900   1
  -8  -5   2 699.700 29.7100   1
   8  -5  -2 523.110 27.4100   1
  -8   5   2 566.620 24.9700   1
   3 -11   0 8009.93 117.330   1
  -3  11   0 8216.77 167.270   1
  -3 -11   0 7493.27 119.260   1
  -2  -6   4 311.490 21.8100   1
  -2   6   4 302.680 22.2300   1
  -2  -6  -4 258.420 21.7400   1
   2  -6  -4 265.720 18.7100   1
   2  -6   4 286.040 21.3000   1
   2   6   4 206.120 41.9800   1
   2   6  -4 354.130 27.1400   1
   2   6  -4 297.370 24.8900   1
   2  -6   4 275.240 20.3100   1
  -2   6   4 281.700 23.4900   1
   2  -6  -4 321.200 27.2000   1
  -2  -6  -4 324.630 28.6900   1
  -2  -6  -4 315.710 34.9600   1
   2  -6  -4 370.910 41.7700   1
  -2  -6   4 252.300 24.4900   1
  -5  10   0 262.520 23.8300   1
   5 -10   0 255.140 23.8900   1
  -5 -10   0 277.940 26.4100   1
  -5 -10   0 290.970 20.9300   1
   5 -10   0 372.920 24.8800   1
 -10   1   0 61.8700 32.6100   1
 -10  -1   0 234.710 33.8700   1
  10  -1   0 75.7200 28.6100   1
  10   1   0 192.920 69.2300   1
  10   1   0 186.050 52.5400   1
  10  -1   0 90.6200 33.9500   1
 -10   1   0 36.2100 34.8100   1
   5  -7   3 3808.17 68.8400   1
  -5   7   3 3563.48 71.2200   1
  -5  -7   3 3453.30 60.6700   1
  -5  -7  -3 3790.36 85.2100   1
  -5   7   3 3590.82 105.450   1
   5  -7   3 3832.34 70.3200   1
  -5  -7  -3 3753.26 95.1300   1
   5  -7  -3 3670.08 81.2300   1
   5   7  -3 3946.01 88.5200   1
  -5   7   3 3430.04 69.2600   1
   8   7   0 164.470 23.4300   1
  -8  -7   0 210.190 19.3500   1
   8  -7   0 200.860 17.9000   1
  -8   7   0 179.950 18.4600   1
   8  -7   0 139.700 20.4900   1
   8  -7   0 177.420 19.8300   1
   5  -3  -4 474.980 30.1500   1
   5   3   4 280.660 37.3300   1
  -5  -3  -4 366.350 29.0300   1
  -5   3  -4 389.310 31.4600   1
   5  -3   4 401.160 20.9900   1
  -5  -3  -4 318.950 21.5400   1
  -5   3   4 397.730 24.1500   1
  -5   3  -4 293.060 22.7000   1
  -5   3   4 489.800 29.3500   1
  -5  -3  -4 438.540 39.2700   1
  -5  -3   4 472.260 25.2700   1
  -5   3  -4 451.760 46.5200   1
  -5   3   4 530.840 28.1100   1
  -5  -3   4 405.700 26.9600   1
   5  -3   4 381.030 52.7700   1
  -5   3  -4 392.860 29.6900   1
   5   3  -4 471.490 31.4300   1
   5  -3  -4 475.570 30.9900   1
  -1  -9  -3 318.120 39.5700   1
   1   9   3 346.600 58.6300   1
  -1  -9  -3 434.480 40.8600   1
   1  -9  -3 348.950 41.3200   1
  -1   9   3 268.830 27.0200   1
   1  -9  -3 244.500 39.8500   1
   1  -9   3 240.910 26.8400   1
   1  -9   3 286.400 27.0000   1
   1  -9   3 267.020 36.9500   1
  -1  -9   3 285.800 31.6800   1
  -1   9  -3 331.410 57.5400   1
  -1  -9   3 349.890 36.4600   1
  -1  -9   3 257.110 32.9900   1
   9   2   2 1516.46 55.4000   1
   9  -2  -2 1482.02 43.9100   1
   9   2   2 1496.51 62.9500   1
  -9   2   2 1575.42 41.2900   1
   9  -2   2 1622.05 47.0600   1
  -9   2  -2 1318.25 56.9800   1
   9   2  -2 1469.52 51.6600   1
   9  -2  -2 1443.01 50.6100   1
  -9   2  -2 1631.82 55.5900   1
  -9  -2  -2 1492.00 51.1000   1
  -9  -2   2 1640.90 43.9500   1
  -9   2   2 1789.73 46.4900   1
   9   2  -2 1674.21 61.6500   1
   9  -2   2 1583.54 59.3900   1
  -6   9  -1 2207.31 70.0100   1
  -6  -9  -1 2491.27 69.4800   1
  -6  -9   1 2772.63 98.4400   1
   6  -9  -1 2884.93 104.690   1
  -6  -9  -1 2122.63 52.2500   1
  -6  -9   1 2104.72 52.0900   1
  -6  -9   1 2078.93 51.5700   1
   6  -9   1 2034.80 52.5600   1
   6  -9  -1 2336.10 53.0200   1
   6  -9   1 2218.12 52.5900   1
  -6   9  -1 2123.17 60.6700   1
  -6   9   1 2404.35 64.0400   1
   6  -9   1 2131.29 64.8400   1
   6  -9  -1 2276.32 72.7400   1
  -6  -8  -2 156.570 25.2700   1
   6  -8   2 116.090 20.1800   1
  -6   8   2 123.110 18.7100   1
  -6  -8  -2 109.810 19.7700   1
  -6  -8   2 118.450 19.6900   1
  -6   8   2 121.020 13.2800   1
   6  -8   2 111.460 16.2700   1
   6  -8  -2 116.780 14.4000   1
   6  -8   2 184.460 19.5800   1
  -6   8  -2 126.320 15.2400   1
  -6   8   2 135.700 20.6900   1
   6   8  -2 126.500 22.5800   1
   6  -8   2 136.160 20.4600   1
   6  -8  -2 146.360 23.3800   1
  -6   8  -2 148.690 21.7100   1
  -7  -8   1 6361.91 89.6900   1
  -7  -8   1 6476.94 93.3400   1
   7  -8   1 6045.80 104.540   1
   7   8  -1 7184.65 148.620   1
  -7  -8  -1 6447.11 88.1900   1
   7  -8   1 6907.16 94.7800   1
  -7   8   1 7029.67 106.810   1
  -7  -8  -1 6687.78 116.800   1
   7  -8   1 6762.08 99.7500   1
  -3  10   2 5456.19 101.150   1
   3 -10  -2 5279.87 82.9500   1
  -3  10   2 4664.93 88.4800   1
   3 -10   2 4801.23 75.0200   1
  -3 -10   2 4805.48 67.6800   1
   3 -10   2 5264.37 128.290   1
  -3  10   2 4486.74 80.9100   1
  -3 -10  -2 5500.25 95.1300   1
   3 -10  -2 4858.85 113.190   1
  -3 -10  -2 4790.79 125.930   1
   3 -10  -2 5787.02 129.360   1
  -3  10  -2 4751.57 119.690   1
  -3 -10  -2 4750.57 95.8200   1
   3 -10   2 4521.20 112.580   1
  -3  10  -2 4952.48 126.700   1
   6  -6   3 2153.61 47.9500   1
  -6   6   3 2216.81 52.4600   1
  -6  -6  -3 2392.05 66.8600   1
   6  -6   3 2172.68 61.5100   1
  -6   6   3 2249.69 84.7500   1
  -6  -6   3 2213.26 50.2900   1
   6  -6  -3 2532.98 53.2500   1
  -6   6  -3 2559.53 82.3400   1
  -6  -6  -3 2524.67 78.0400   1
  -6   6  -3 2176.19 76.7400   1
   6  -6  -3 2638.74 65.5400   1
   6   6  -3 2643.24 73.7400   1
  -6   6   3 2116.15 55.0800   1
  -6   6  -3 2437.82 88.5500   1
   8   0  -3 74.6500 21.7400   1
  -8   0  -3 90.7100 29.7300   1
  -8   0  -3 74.5600 21.2200   1
  -8   0  -3 64.8700 17.2700   1
  -8   0   3 92.8100 16.7600   1
  -8   0   3 64.3800 15.7900   1
   8   0   3 99.1700 17.6700   1
  -8   0   3 62.3000 15.6200   1
   8   0  -3 47.2000 22.5700   1
 -10   2   0 11141.0 135.720   1
 -10  -2   0 11010.7 129.020   1
  10   2   0 11851.2 154.910   1
  10   2   0 10407.8 146.830   1
  10  -2   0 10347.4 140.850   1
  10  -2   0 11329.8 123.740   1
   4  -8   3 6620.69 124.520   1
  -4   8   3 7185.79 120.710   1
  -4   8   3 6807.89 93.7000   1
  -4  -8  -3 7122.60 124.070   1
   4  -8   3 6815.24 95.1800   1
   4  -8   3 6881.75 85.8700   1
   4   8  -3 6563.41 117.450   1
  -4  -8  -3 7367.73 120.670   1
   7  -7   2 2046.32 59.9600   1
  -7   7  -2 2358.00 96.1800   1
  -7   7  -2 1874.76 72.1500   1
  -7  -7  -2 2203.97 61.9000   1
  -7  -7  -2 1918.42 63.6200   1
  -7  -7   2 2101.14 48.0100   1
  -7   7   2 2146.71 54.7000   1
  -7   7   2 1992.70 73.2000   1
   7  -7  -2 2423.33 51.6500   1
   7  -7  -2 2106.17 58.6100   1
   7  -7   2 2142.90 66.5300   1
   7   7  -2 1925.92 63.8900   1
   7  -7   2 2355.79 49.3400   1
   7  -7  -2 1707.44 50.3900   1
   5  -9   2 753.870 32.0500   1
  -5   9   2 863.320 33.6100   1
  -5   9   2 858.900 33.1600   1
  -5  -9   2 750.360 30.8400   1
  -5  -9  -2 887.920 36.7300   1
   5  -9   2 857.860 31.4000   1
  -5  -9  -2 798.660 37.2000   1
  -5   9  -2 829.760 46.4000   1
   5  -9  -2 1022.65 41.9300   1
   5  -9   2 937.600 42.8800   1
   5   9  -2 1099.45 55.4100   1
   5  -9   2 764.860 38.2800   1
  -5   9   2 910.380 38.4500   1
  -5   9  -2 731.630 35.7300   1
   5  -9  -2 937.320 33.3700   1
  -8  -1  -3 317.390 33.6900   1
  -8   1  -3 326.890 31.2600   1
  -8   1  -3 283.910 29.0200   1
  -8  -1  -3 253.090 28.0000   1
   8  -1  -3 234.000 26.1600   1
   8   1   3 225.160 23.9100   1
  -8   1  -3 229.710 25.1700   1
  -8   1   3 300.580 23.0200   1
  -8   1   3 213.710 17.6800   1
   8  -1   3 313.910 22.7000   1
   8  -1  -3 260.910 23.6200   1
  -8   1   3 275.590 18.1400   1
  -8  -1   3 292.490 18.9800   1
   8   1  -3 259.220 26.0500   1
   2  -9   3 6533.25 86.0400   1
  -2  -9  -3 7379.80 130.320   1
   2  -9  -3 7130.77 111.590   1
   2  -9   3 6238.46 151.110   1
  -2   9   3 5984.42 98.3700   1
   2  -9  -3 6361.29 133.740   1
  -2  -9   3 7202.72 142.680   1
  -2  -9  -3 7449.23 128.460   1
  -2  -9   3 6684.53 87.5900   1
  -2   9   3 6767.47 114.460   1
  -2   9  -3 7633.63 183.280   1
  -4  -5  -4 2205.48 66.0700   1
  -4   5   4 2220.19 54.4100   1
  -4  -5  -4 2289.17 73.0400   1
  -4  -5   4 2371.38 58.1100   1
   4  -5   4 2313.17 57.8300   1
   4  -5  -4 1899.83 48.1100   1
   4  -5   4 2367.11 51.9200   1
   4   5  -4 1616.79 64.1700   1
   4  -5  -4 1584.82 70.5300   1
   4   5  -4 2325.75 65.6000   1
  -4  -5   4 2119.94 72.7300   1
   4  -5  -4 2421.76 75.3900   1
  -9  -5   1 2547.96 51.6500   1
   9  -5   1 2814.37 58.0200   1
   9   5  -1 2865.48 78.0000   1
  -9   5   1 2487.06 66.6400   1
  -9   5   1 2429.86 54.4000   1
   9   5   1 2444.57 80.3800   1
  -9  -5   1 2408.95 56.1200   1
  -9   5  -1 2562.67 78.2100   1
   9  -5  -1 2396.21 47.9000   1
  -9  -5  -1 2554.50 61.0100   1
   9  -5  -1 2561.12 74.5700   1
   9  -5   1 2362.11 71.9800   1
   9  -5  -1 2150.00 56.8200   1
   9  -5   1 2086.92 66.9000   1
  10   0   1 14007.1 148.640   1
  10   0  -1 12542.0 148.460   1
 -10   0  -1 12292.5 138.630   1
  10   0   1 12363.5 155.860   1
  10   0  -1 13030.6 141.200   1
  -3 -11   1 917.940 32.6800   1
   3 -11  -1 1102.93 49.2100   1
  -3 -11   1 1033.16 36.5300   1
   3 -11   1 1054.61 36.1200   1
  -3  11  -1 977.910 44.5200   1
  -3  11  -1 1054.98 53.6300   1
  -3  11   1 962.550 44.8300   1
  -3  11  -1 1117.54 62.2500   1
   3 -11  -1 1226.77 49.1700   1
   3 -11   1 1009.92 44.3100   1
   3 -11  -1 1300.07 56.5600   1
  -3 -11   1 1171.21 50.9600   1
  -3 -11  -1 1052.65 38.9600   1
  -3 -11  -1 1181.11 54.2300   1
  -5 -10   1 4988.56 79.1400   1
  -5  10   1 4550.56 89.6100   1
  -5  10  -1 4333.99 86.6900   1
   5 -10  -1 4539.14 69.1500   1
  -5 -10   1 4359.96 74.8500   1
  -5 -10  -1 4840.61 83.7400   1
  -5 -10  -1 5056.72 96.9000   1
  -5 -10   1 4667.11 108.670   1
   5 -10   1 4820.12 95.9200   1
   5 -10  -1 4996.90 123.260   1
  10  -1  -1 199.520 21.6100   1
  10   1   1 244.180 51.6000   1
 -10  -1   1 248.800 31.4100   1
 -10   1   1 167.490 16.4000   1
 -10  -1  -1 378.490 45.0800   1
  10  -1   1 177.220 28.9200   1
  10   1   1 203.560 51.0900   1
 -10   1  -1 202.710 20.7700   1
  10  -1  -1 154.510 22.5300   1
  10   1  -1 214.250 48.1700   1
  10   1  -1 273.150 52.1200   1
  10  -1   1 202.830 22.9500   1
   9  -3   2 295.650 23.9200   1
   9  -3   2 541.690 37.0900   1
   9   3  -2 539.260 31.8800   1
  -9   3  -2 332.390 26.9100   1
  -9  -3  -2 471.760 40.9800   1
  -9  -3   2 535.690 23.8600   1
   9  -3  -2 503.380 32.9000   1
  -9   3  -2 454.430 32.7800   1
  -9  -3  -2 470.820 28.6500   1
   9  -3   2 369.910 22.1700   1
  -9   3   2 531.320 25.7400   1
   9   3   2 449.330 31.6200   1
   9  -3  -2 462.070 25.0400   1
   9  -3   2 540.540 26.2800   1
  -9   3   2 515.610 26.3200   1
   6   0   4 7274.26 100.190   1
  -6   0   4 6641.82 94.2100   1
  -6   0   4 7271.52 100.390   1
  -6   0  -4 6043.29 126.960   1
   6   0  -4 6976.19 107.960   1
  -6   0  -4 7243.08 127.670   1
  -8  -7  -1 877.580 38.3100   1
  -8   7   1 1224.11 85.4000   1
   8  -7   1 844.990 52.7900   1
  -8  -7   1 946.910 33.8100   1
   8  -7   1 736.630 33.3100   1
   8  -7  -1 655.510 34.2400   1
   8  -7  -1 851.700 32.9700   1
   8  -7   1 952.550 33.9700   1
  -8   7  -1 902.230 34.2200   1
  -8   7   1 1039.03 41.2700   1
  -8  -7   1 870.430 32.3200   1
   8  -7   1 829.950 39.0600   1
  -8   7   1 983.170 49.0200   1
  -8  -7  -1 886.250 50.8800   1
   8  -7   1 720.560 40.4100   1
   8   7  -1 848.870 41.8600   1
   8  -7   1 850.920 44.0400   1
   8  -7  -1 890.890 41.8700   1
  -8   7  -1 776.330 41.8200   1
  -8   7  -1 796.530 56.3300   1
  -3  -6  -4 1043.55 42.9300   1
   3  -6  -4 1308.13 50.0500   1
  -3  -6  -4 1242.85 52.3900   1
  -3  -6   4 962.230 32.8100   1
  -3   6   4 974.990 36.2900   1
   3  -6   4 1040.40 35.6300   1
  -3  -6  -4 818.380 36.7400   1
   3  -6  -4 963.520 35.4900   1
   3  -6   4 1111.52 36.7900   1
   3   6  -4 795.820 43.1600   1
  -3   6   4 1177.65 44.9800   1
   3   6  -4 809.920 37.6400   1
  -3  -6   4 830.440 44.3600   1
  -8   2  -3 2041.69 76.5100   1
  -8  -2  -3 2111.71 70.6700   1
   8  -2  -3 2164.63 63.2300   1
   8  -2   3 1864.65 46.8000   1
  -8  -2   3 2233.75 47.5400   1
  -8   2   3 1783.49 51.1900   1
  -8   2   3 2094.92 49.1300   1
   8   2   3 1838.67 57.4000   1
  -8   2  -3 2178.14 70.9100   1
  -8   2   3 2147.46 55.0400   1
   8  -2  -3 2294.41 59.1600   1
  -8  -2  -3 2135.87 62.7600   1
  -6  -1  -4 2531.02 77.7700   1
   6  -1  -4 2963.42 68.7100   1
   6   1  -4 2984.40 77.5600   1
  -6   1  -4 2721.73 76.8800   1
  -6  -1  -4 2595.00 79.7500   1
  -6   1   4 3064.08 64.3400   1
  -6   1   4 2730.76 68.9300   1
  -6  -1   4 2815.10 68.0300   1
   6  -1   4 2786.42 58.9600   1
   6   1   4 2896.61 66.6200   1
  -6   1   4 2990.61 59.6800   1
  -6  -1   4 3212.10 62.3700   1
  -6  -1  -4 3074.07 97.5800   1
  -6   1  -4 3440.45 98.0000   1
  -6   1  -4 2814.73 84.2000   1
   0   7  -4 1.19000 14.4400   1
   0  -7   4 5.88000 16.0600   1
   0  -7   4 -7.3500 19.6200   1
   0  -7  -4 -17.690 23.1500   1
   0  -7  -4 -4.8200 33.2700   1
   0  -7   4 -17.880 14.8400   1
  -5  -4  -4 481.370 34.3600   1
   5  -4   4 410.120 21.1700   1
   5  -4   4 579.510 35.9200   1
   5  -4  -4 539.840 27.1300   1
   5   4   4 319.700 37.2400   1
  -5   4   4 523.570 27.2000   1
  -5  -4   4 477.400 24.5700   1
  -5  -4  -4 593.200 43.1500   1
  -5   4  -4 652.570 50.3800   1
  -5   4   4 483.100 28.2900   1
   5   4  -4 487.350 33.2500   1
   5  -4  -4 566.230 34.0500   1
  -5   4  -4 623.700 46.1900   1
  -5  -4   4 367.250 27.7200   1
  -5  -4  -4 380.430 22.2800   1
  10  -3   0 -0.3000 20.1200   1
  10  -3   0 -4.3400 17.1200   1
  10  -3   0 7.28000 10.6000   1
 -10  -3   0 -3.0900 18.6500   1
 -10   3   0 -1.6300 11.5600   1
   7  -5   3 18.1000 11.7800   1
  -7  -5   3 22.4200 13.8800   1
  -7   5   3 41.5100 12.4100   1
   7  -5  -3 21.1400 14.4200   1
   7  -5  -3 38.6100 14.6200   1
   7  -5   3 16.8500 13.6300   1
  -7   5   3 27.1200 12.8400   1
  -7   5   3 30.3800 16.2300   1
  -7   5   3 19.4600 29.9500   1
  -7   5  -3 14.0900 31.5100   1
  -7  -5  -3 37.2700 22.1300   1
  -7  -5  -3 22.5600 19.7800   1
  -7   5  -3 26.9000 17.7200   1
   7  -5  -3 50.3100 20.3300   1
   7   5  -3 18.2900 20.5400   1
   7  -5   3 31.0500 17.6700   1
   7  -5   3 13.4800 12.3500   1
   1  -7   4 3476.84 64.4700   1
   1   7  -4 3110.16 76.8500   1
  -1   7   4 3543.90 81.2300   1
  -1   7  -4 3578.56 140.600   1
   1   7  -4 3905.13 93.2500   1
  -1  -7   4 3023.56 92.1800   1
   1  -7  -4 3961.07 87.0000   1
  -1  -7  -4 3652.12 87.9600   1
   1  -7  -4 3975.74 110.840   1
  -1  -7  -4 3491.39 94.2000   1
   1  -7  -4 3292.55 69.9900   1
  -1  -7   4 3494.46 60.0900   1
  -1  -7  -4 3019.08 81.1200   1
 -10   2   1 1989.65 74.7600   1
  10  -2  -1 2917.35 75.9200   1
  10   2  -1 2488.45 69.9300   1
  10  -2   1 2974.72 84.8500   1
 -10   2  -1 2566.03 69.0800   1
 -10  -2  -1 2473.55 58.6300   1
 -10  -2   1 2618.16 60.6400   1
  10   2  -1 2930.28 76.8800   1
  10   2   1 2532.49 67.4700   1
  10  -2  -1 2976.93 70.0000   1
  10  -2   1 2571.03 58.3800   1
 -10   2   1 2471.94 62.0600   1
  10   2   1 2492.17 76.0700   1
   4 -11   0 485.680 30.3500   1
   4 -11   0 716.300 61.4600   1
  -4 -11   0 529.530 28.0800   1
   4 -11   0 553.440 26.7300   1
  -4  11   0 570.230 34.6600   1
  -4 -11   0 618.900 38.1300   1
   0   0   5 8.68000 18.2400   1
   0   0   5 15.9100 16.1900   1
   0   0   5 -2.8700 17.1900   1
   0   0  -5 -6.3900 17.0400   1
   9  -6   0 2548.00 53.7800   1
   9   6   0 2464.31 92.2400   1
  -9   6   0 2337.58 68.5100   1
  -9  -6   0 2532.76 60.6800   1
   9  -6   0 2290.93 70.9000   1
  -6   2   4 1225.51 48.8900   1
  -6   2   4 1338.87 42.5800   1
  -6   2  -4 1074.90 46.3000   1
  -6   2  -4 1293.75 56.4500   1
  -6   2   4 1399.93 40.8600   1
  -6  -2  -4 1404.63 58.9300   1
  -6  -2   4 1463.21 43.7200   1
   6  -2  -4 1403.16 53.5300   1
   6   2   4 1246.63 51.2400   1
  -6  -2   4 1114.52 41.5700   1
   6   2  -4 1278.28 56.1500   1
   6  -2  -4 1532.53 52.3300   1
  -6   2  -4 1211.83 55.7800   1
  -6  -2  -4 1094.31 52.3300   1
   6  -2   4 1058.43 36.4300   1
   8  -6  -2 224.810 19.8300   1
  -8   6   2 364.450 21.1900   1
  -8  -6   2 360.850 22.0500   1
   8  -6  -2 260.720 25.5000   1
  -8   6  -2 226.720 24.4200   1
  -8  -6  -2 278.780 27.9900   1
   8  -6   2 313.010 24.9700   1
  -8  -6  -2 370.430 25.7500   1
  -8   6  -2 346.500 37.6300   1
  -8   6   2 342.470 42.2700   1
  -8  -6  -2 184.890 30.5200   1
   8  -6  -2 313.840 21.0600   1
   8  -6   2 320.620 20.9700   1
  -8   6   2 336.080 24.5500   1
   8  -6   2 235.280 22.9900   1
   8   6  -2 212.750 24.2900   1
   8  -6   2 297.850 26.5800   1
   0 -11  -2 46.0200 26.0800   1
   0  11  -2 46.7500 15.1700   1
   0  11   2 15.2500 44.0100   1
   0 -11   2 78.4400 14.3600   1
   0 -11   2 64.6300 19.8300   1
   0  11   2 0.92000 14.5300   1
   0 -11  -2 34.1200 21.2000   1
   0 -11  -2 60.0300 23.0300   1
   0 -11   2 70.4400 18.4600   1
   0 -12   0 3667.39 74.7600   1
   0 -12   0 3372.01 81.5900   1
   0  12   0 2823.06 67.9600   1
   4 -10  -2 2446.65 92.5100   1
   4 -10  -2 1971.07 48.3400   1
   4 -10   2 2089.99 75.8500   1
   4 -10  -2 1974.32 78.0800   1
  -4 -10   2 2186.83 86.6400   1
  -4 -10  -2 2170.90 60.2400   1
  -4  10   2 1800.07 51.8800   1
   4 -10   2 2157.48 52.6700   1
  -4 -10   2 1926.22 46.5700   1
  -4  10   2 1784.93 50.7000   1
   4 -10  -2 1885.29 56.7400   1
  -4 -10  -2 1958.70 69.1600   1
  -4  10  -2 1830.12 74.6000   1
   4 -10   2 2088.63 50.7600   1
  -4  10  -2 1779.05 57.1100   1
  -4  10   2 2191.30 61.5000   1
   4 -10   2 1787.25 61.6400   1
   0  -1   5 238.000 21.3500   1
   0  -1  -5 216.220 40.1800   1
   0   1   5 288.650 23.1800   1
   0  -1   5 247.860 28.9600   1
   0  -1   5 255.190 21.4900   1
   0   1   5 268.510 23.5200   1
   0   1  -5 230.620 25.2000   1
   0  -1  -5 224.910 23.1900   1
   0  -1   5 214.870 22.8100   1
   3  -9   3 5380.42 84.0000   1
  -3   9   3 5310.52 90.9900   1
   3  -9  -3 5990.98 141.180   1
  -3  -9   3 6331.20 145.810   1
   3  -9  -3 6612.77 113.260   1
  -3   9   3 6221.15 107.840   1
   3  -9  -3 6007.60 92.6700   1
  -3  -9  -3 5938.92 119.040   1
   3  -9   3 5661.14 122.780   1
  -3  -9  -3 6319.40 126.910   1
  -3   9   3 5828.62 107.160   1
  -3  -9   3 5959.05 87.7700   1
  -1   0  -5 35.9300 44.5200   1
  -1   0   5 11.4600 17.3200   1
   1   0   5 11.7100 16.7600   1
   1   0   5 -41.490 30.7300   1
   1   0   5 7.45000 15.6500   1
   1   0  -5 21.9900 20.0700   1
  -1   0  -5 -9.0700 14.8500   1
  -1   0   5 -0.8400 15.4700   1
   1   0   5 10.9100 17.1000   1
  -1   0   5 -13.100 14.9200   1
  -1  11  -2 1553.00 54.4400   1
   1 -11  -2 1823.77 57.8400   1
  -1 -11  -2 1799.28 58.9600   1
  -1  11   2 1389.46 43.6800   1
   1 -11   2 1469.26 54.4800   1
  -1 -11   2 1343.05 57.2800   1
   1 -11  -2 1970.12 60.8200   1
   1 -11   2 1674.08 62.3100   1
  -1 -11  -2 1648.72 53.9300   1
  -1 -11   2 1705.11 71.7700   1
  -1  11   2 1764.31 92.2200   1
  -1 -11  -2 1559.50 60.1300   1
  -1 -11   2 1639.50 42.9000   1
  -1  11  -2 2018.61 94.1900   1
   1 -11   2 1612.72 42.1600   1
  -1 -12   0 3466.86 89.6400   1
  -1  12   0 3591.42 143.620   1
  -1  12   0 2644.29 64.1000   1
  -1 -12   0 2722.20 60.9500   1
   1 -12   0 3122.83 61.7700   1
  -8  -3  -3 5424.56 128.100   1
   8   3  -3 5297.91 99.8200   1
  -8   3  -3 5220.81 107.320   1
  -8  -3  -3 5134.72 102.420   1
  -8  -3   3 4909.65 73.2600   1
  -8   3   3 5179.78 77.0400   1
   8   3   3 5492.86 109.650   1
   8  -3  -3 4732.02 78.6100   1
   8  -3   3 4662.18 71.6300   1
  -8   3   3 5226.70 78.9700   1
  -8   3  -3 4433.52 99.8300   1
   8  -3  -3 4827.52 86.6300   1
   1   1   5 3076.83 63.7600   1
   1   1   5 3143.40 81.6500   1
  -1  -1  -5 2516.25 72.3900   1
   1  -1  -5 3196.44 78.9000   1
   1   1   5 2653.65 81.3000   1
  -1  -1   5 3229.56 63.9800   1
  -1   1   5 3238.77 66.7200   1
  -1  -1  -5 3369.31 101.330   1
   1  -1   5 3411.62 71.0800   1
   1  -1   5 3038.04 90.9700   1
  -1  -1   5 3415.60 109.340   1
   1  -1   5 2837.76 59.7100   1
  -1  -1   5 2737.63 81.9200   1
  -1  -1   5 2980.25 68.1100   1
  -1   1   5 2732.51 70.2700   1
  -1  -1   5 3195.75 91.5800   1
   1  -1   5 2626.45 76.6900   1
   7  -9   0 614.900 48.0600   1
  -7  -9   0 545.390 38.6800   1
   7  -9   0 457.230 30.9400   1
  -7   9   0 446.850 26.7100   1
   7  -9   0 510.660 23.8800   1
  -7  -9   0 560.920 26.0800   1
   2  -7  -4 4522.94 112.240   1
  -2  -7  -4 4275.61 100.170   1
  -2  -7   4 4397.80 71.0700   1
   2  -7   4 4235.68 71.5500   1
  -2   7   4 4430.95 82.9200   1
  -2  -7  -4 3816.64 98.1000   1
   2  -7  -4 4009.68 72.8900   1
   2   7  -4 4158.43 100.500   1
   2   7   4 3264.57 186.820   1
  -2  -7   4 3594.20 101.650   1
  -2  -7  -4 4343.07 92.1300   1
   2   7  -4 4004.06 85.6000   1
   2  -7   4 4191.36 70.3000   1
   9  -4  -2 2250.33 53.8000   1
   9  -4   2 2247.35 51.0700   1
  -9   4   2 2332.66 54.6300   1
  -9  -4  -2 2383.76 89.1000   1
  -9   4  -2 1830.62 61.4700   1
   9  -4  -2 2490.54 64.1300   1
   9   4  -2 2433.93 67.7600   1
   9  -4   2 2359.91 74.9000   1
  -9   4  -2 2218.29 68.6500   1
  -9  -4  -2 2455.30 62.7700   1
   9  -4   2 1961.79 62.4900   1
  -9  -4   2 2445.67 55.9400   1
  -9   4   2 2480.56 56.1100   1
   9  -4  -2 1919.18 55.8300   1
   9   4   2 2000.74 68.6000   1
  10   3  -1 191.930 28.5900   1
  10  -3  -1 212.710 23.7000   1
 -10   3   1 157.690 40.8500   1
  10  -3   1 164.600 18.6500   1
 -10   3  -1 209.330 22.7900   1
 -10  -3  -1 207.820 20.3100   1
 -10   3   1 184.860 15.8600   1
 -10  -3   1 210.510 19.2100   1
  10   3   1 207.550 30.6300   1
  10  -3  -1 200.040 21.2700   1
  10  -3   1 177.540 22.6100   1
  10   3  -1 184.300 26.1800   1
  10   3   1 134.070 29.4100   1
   0   2  -5 -0.2900 16.4600   1
   0  -2  -5 -11.670 21.1100   1
   0  -2   5 3.67000 12.8400   1
   0   2   5 -2.0300 15.3000   1
   0  -2  -5 -18.410 38.8500   1
   0  -2   5 8.00000 14.9100   1
   0  -2   5 -11.600 15.3200   1
   0   2   5 -2.3200 16.7600   1
   0  -2   5 -0.7100 10.8700   1
  -6  10   0 115.690 18.3100   1
   6 -10   0 118.900 24.0500   1
  -6 -10   0 148.040 24.6800   1
   6 -10   0 154.370 24.5800   1
   6 -10   0 193.040 18.8500   1
  -6 -10   0 166.660 20.8800   1
   4 -11   1 1668.94 44.3400   1
   4 -11   1 1915.67 47.7100   1
  -4 -11   1 1730.63 45.8400   1
   4 -11   1 1859.58 52.1800   1
   4 -11   1 1719.96 74.4000   1
   4 -11  -1 1635.82 84.5500   1
  -4 -11   1 1950.29 49.3100   1
  -4  11  -1 1570.13 53.6900   1
  -4  11   1 1697.97 54.3300   1
   4 -11  -1 1746.54 45.2200   1
   4 -11  -1 1817.80 54.4400   1
  -4  11  -1 1685.62 68.8500   1
  -4 -11  -1 2093.79 70.9700   1
  -4 -11   1 1896.92 70.8500   1
   4 -11  -1 2001.92 71.7900   1
  -4 -11  -1 2049.93 53.6100   1
   4 -11   1 1726.31 64.0700   1
  -6   7   3 4244.03 75.2400   1
  -6  -7  -3 4294.30 108.350   1
   6  -7  -3 4560.86 86.3300   1
   6   7  -3 3748.20 86.8900   1
  -6   7   3 4328.29 80.2100   1
   6  -7   3 4774.87 73.9900   1
   6  -7  -3 4279.32 70.2800   1
  -6  -7   3 4055.53 65.9700   1
  -6  -7  -3 4416.30 90.3000   1
   6  -7   3 4423.31 80.3200   1
  -6   7   3 4231.06 116.240   1
   6  -3   4 2253.25 50.2300   1
   6  -3  -4 2273.00 59.7900   1
  -6  -3   4 2691.97 61.1100   1
  -6  -3  -4 2474.32 71.1700   1
  -6   3  -4 2667.91 87.3700   1
   6   3   4 2343.80 71.4700   1
  -6  -3  -4 2500.41 82.6300   1
  -6   3  -4 2350.93 78.8600   1
   6  -3  -4 2690.31 68.2500   1
   6   3  -4 2369.78 74.3000   1
  -6   3  -4 2274.96 67.9800   1
   6  -3   4 1893.84 83.0300   1
  -6   3   4 2040.83 52.3400   1
  10  -4   0 2765.56 73.9100   1
  10   4   0 2871.88 89.7100   1
 -10  -4   0 2693.71 57.4300   1
 -10   4   0 2619.96 63.5000   1
   2   0   5 3063.15 69.5500   1
  -2   0  -5 2560.18 75.1000   1
   2   0  -5 3033.98 81.2300   1
   2   0   5 2490.27 68.8700   1
  -2   0   5 2923.96 78.9700   1
   2   0   5 2747.68 66.2600   1
  -2   0   5 2949.86 64.8500   1
  -2   0  -5 3452.74 105.990   1
   2   0   5 2382.60 80.8500   1
   1   2   5 2009.00 67.7000   1
  -1   2   5 2017.50 60.1900   1
   1  -2   5 1733.26 76.8300   1
  -1  -2   5 1572.29 61.3900   1
  -1  -2  -5 1792.75 72.4000   1
  -1  -2   5 2107.30 61.2000   1
   1  -2   5 2077.64 53.4600   1
  -1   2   5 2037.44 52.7800   1
   1   2   5 2239.70 59.2300   1
   1  -2   5 1805.90 46.8400   1
   1   2  -5 1777.74 56.8300   1
   1  -2   5 1914.83 67.4800   1
  -1  -2   5 1678.83 59.2400   1
  -1  -2  -5 1647.71 59.1700   1
   1  -2  -5 2136.16 65.0100   1
  -1   2  -5 1808.71 59.8100   1
  -1  -2   5 1721.22 54.1000   1
  -5   8   3 3011.25 64.7200   1
  -5   8   3 2675.82 76.5000   1
   5  -8   3 2658.02 59.6000   1
  -5  -8   3 2697.96 53.8600   1
  -5  -8  -3 2890.08 89.5800   1
  -5  -8  -3 2952.23 74.4100   1
   5  -8  -3 3024.54 70.6300   1
   5   8  -3 2455.83 73.1100   1
  -5   8   3 2895.45 66.3800   1
   5  -8   3 2812.79 59.9500   1
   5  -8  -3 3123.38 61.7000   1
   5  -8   3 2469.20 70.0400   1
   8  -8   0 928.750 39.4200   1
   8  -8   0 1122.67 83.9800   1
  -8  -8   0 1060.18 56.8800   1
   8  -8   0 1061.32 52.0500   1
  -8   8   0 1035.24 47.3500   1
   8  -8   0 827.830 45.3800   1
  -8  -8   0 1009.86 43.8800   1
   4  -6  -4 97.1500 13.5400   1
  -4   6   4 132.500 20.2800   1
   4  -6   4 106.550 14.7000   1
   4   6  -4 86.3100 16.5200   1
   4   6  -4 74.9000 18.9400   1
  -4  -6   4 71.5000 17.4700   1
   4  -6  -4 100.070 21.7600   1
  -4  -6  -4 134.260 25.6200   1
   4  -6  -4 63.2600 29.0800   1
  -4  -6  -4 87.7600 16.8700   1
  -4  -6  -4 91.4900 27.8900   1
  -4  -6   4 107.050 17.1300   1
  -4   6   4 109.250 17.4800   1
   4  -6   4 90.7200 15.8100   1
  -9   6   1 3807.06 82.6300   1
  -9  -6   1 4004.50 69.9600   1
   9  -6  -1 4185.80 74.6400   1
  -9   6   1 3898.93 71.7300   1
  -9   6  -1 3718.10 100.270   1
   9   6  -1 4113.82 99.7500   1
   9  -6   1 4180.49 76.1300   1
  -9  -6  -1 4086.70 119.200   1
   9  -6   1 3498.47 87.4200   1
   9  -6   1 3351.95 139.880   1
  -9  -6  -1 4223.47 81.0400   1
  -2 -11   2 670.230 44.4100   1
  -2  11  -2 1027.09 67.0500   1
  -2 -11  -2 838.470 50.8400   1
  -2  11   2 785.610 54.5800   1
   2 -11  -2 927.640 58.3800   1
   2 -11  -2 1006.64 54.2300   1
  -2  11   2 900.330 47.1200   1
  -2 -11   2 884.790 48.3800   1
   2 -11   2 882.460 42.7900   1
  -2 -11   2 798.690 35.9800   1
  -2 -11  -2 910.980 49.2100   1
  -2  11   2 732.410 36.5200   1
   2 -11  -2 910.820 48.1700   1
   2 -11   2 656.400 43.7500   1
  -2 -11  -2 904.580 43.7000   1
  -2  12   0 994.850 48.2800   1
  -2  12   0 1365.98 70.9400   1
   2 -12   0 1397.20 57.5100   1
  -2 -12   0 1410.64 55.7600   1
  -2 -12   0 1070.15 43.4400   1
   2 -12   0 1242.26 45.6800   1
   2  -1   5 4075.29 104.930   1
  -2  -1   5 4115.31 111.120   1
  -2   1  -5 4046.88 93.3400   1
   2  -1  -5 3928.53 87.7700   1
   2   1   5 4840.52 84.4400   1
  -2   1   5 4252.68 82.0900   1
   2  -1   5 4192.47 101.890   1
  -2  -1   5 5024.31 83.3800   1
  -2  -1  -5 4614.19 108.770   1
  -2  -1  -5 5005.60 122.560   1
   2  -1   5 4961.35 84.6100   1
   2   1   5 4175.89 113.170   1
   2   1   5 4720.23 104.660   1
  -2   1  -5 5271.93 131.150   1
   2   1  -5 4223.19 90.6200   1
   2  -1   5 4627.25 86.2500   1
  -2  -1   5 4805.92 134.010   1
   0  12   1 -9.9700 48.8300   1
   0 -12   1 26.8900 16.5100   1
   0 -12   1 22.3300 18.2400   1
   0 -12  -1 -1.9400 19.1700   1
   0 -12  -1 -6.8200 22.0900   1
   0 -12   1 4.39000 17.3600   1
  -5  -5   4 2139.79 54.9500   1
  -5   5   4 2105.07 53.2200   1
   5  -5   4 2138.18 53.9600   1
  -5  -5   4 1703.17 68.5900   1
   5  -5  -4 1860.61 46.1800   1
   5  -5   4 1907.66 45.0200   1
   5  -5  -4 2262.74 67.1000   1
  -5  -5  -4 1909.62 69.9100   1
   5   5  -4 1816.54 55.5300   1
  -5   5  -4 2006.42 78.6000   1
  -5  -5  -4 2128.66 68.1400   1
  -1 -12   1 2399.07 54.0100   1
  -1  12   1 2907.13 123.340   1
  -1  12  -1 2933.59 77.4900   1
   1 -12   1 2501.31 54.2100   1
  -1 -12   1 2677.14 62.2100   1
   1 -12   1 2822.98 61.4000   1
  -1 -12  -1 2753.83 63.0100   1
   1 -12  -1 2719.80 68.0100   1
   1 -12   1 2767.43 74.0700   1
  -1  12  -1 2104.31 76.5200   1
  -1 -12   1 2858.11 78.6100   1
   0  10   3 26.5500 29.7500   1
   0 -10   3 34.2400 15.1000   1
   0 -10  -3 19.7400 25.0500   1
   0 -10   3 19.1700 18.9000   1
   0 -10  -3 38.6600 21.9300   1
   0 -10   3 7.57000 13.3700   1
  -6   9   2 1395.74 48.5100   1
   6  -9  -2 1308.86 51.5200   1
   6  -9   2 1384.51 53.7600   1
   6   9  -2 1280.59 56.7500   1
  -6  -9   2 1508.20 41.8000   1
   6  -9  -2 1281.21 38.1600   1
  -6   9  -2 1250.03 47.7400   1
  -6   9  -2 1088.80 56.9000   1
   6  -9   2 1318.41 40.7100   1
   6  -9   2 1243.63 49.0500   1
  -6  -9  -2 1466.12 50.3000   1
  -6   9   2 1436.03 44.7600   1
   6  -9   2 1283.30 45.3100   1
  -6   9   2 1400.63 45.5900   1
  -6  -9  -2 1199.93 50.3700   1
  -7  -9  -1 2137.73 74.9600   1
  -7  -9   1 1956.08 49.2000   1
  -7   9   1 1914.30 55.6600   1
  -7  -9   1 1811.60 72.6400   1
  -7   9  -1 1393.52 66.1700   1
   7  -9  -1 1850.07 63.7300   1
   7  -9   1 1729.82 60.0300   1
  -7   9  -1 1897.81 52.3900   1
  -7  -9  -1 1854.51 53.4800   1
   7  -9   1 1633.07 41.1500   1
   7  -9  -1 2046.30 50.9400   1
  -7  -9   1 1869.40 49.1400   1
   7  -9   1 1744.18 46.1200   1
   7  -9   1 1756.62 52.7400   1
  -7  -8  -2 1754.05 53.8000   1
  -7  -8   2 1939.26 49.3900   1
   7  -8  -2 1683.99 43.6400   1
  -7  -8  -2 1493.52 61.2100   1
   7  -8  -2 1593.60 52.0800   1
   7  -8   2 1716.75 59.3600   1
   7   8  -2 1515.05 57.5700   1
  -7   8   2 1697.29 49.8500   1
   7  -8   2 1771.47 44.9900   1
   7  -8   2 1540.42 46.8000   1
  -7   8   2 1709.19 56.6000   1
   7  -8   2 1594.78 52.7300   1
  -7   8   2 1609.15 49.0700   1
   0   3  -5 2281.76 71.9500   1
   0   3   5 2632.87 72.4500   1
   0  -3   5 2572.03 62.0300   1
   0  -3   5 2810.41 61.4300   1
   0  -3  -5 3189.37 107.970   1
   0   3   5 2648.21 63.6500   1
   0  -3   5 2418.76 70.0600   1
   0  -3  -5 2397.78 70.1300   1
   8   4  -3 2.49000 21.4300   1
  -8   4   3 -8.1200 33.2800   1
  -8   4   3 4.28000 11.3900   1
  -8  -4  -3 16.9300 29.8100   1
   8  -4   3 3.63000 16.3000   1
  -8   4  -3 -20.400 28.7000   1
  -8  -4  -3 -6.1500 28.3200   1
  -8   4  -3 2.64000 20.0200   1
   8  -4  -3 1.84000 19.7400   1
   8  -4   3 11.8500 12.2800   1
  -8   4   3 0.62000 15.7800   1
   8  -4   3 -2.3800 13.7500   1
   8  -4  -3 -12.190 15.5300   1
   8   4   3 25.6300 26.8000   1
  -7  -6  -3 2825.38 78.4000   1
  -7   6  -3 2313.25 79.0600   1
   7  -6   3 2600.46 81.6700   1
  -7   6  -3 3202.01 103.940   1
  -7   6   3 2511.64 86.4300   1
   7  -6  -3 3100.51 73.4300   1
  -7   6   3 2924.39 66.0700   1
   7  -6   3 2886.99 56.3200   1
   7  -6  -3 2517.53 50.5000   1
   7  -6  -3 2438.28 62.0300   1
  -7   6   3 2831.80 61.3600   1
  -7  -6   3 2628.85 55.4200   1
   7  -6   3 2275.76 62.7200   1
  -7  -6  -3 2868.82 72.5200   1
  -2   2   5 1551.00 45.3600   1
   2  -2   5 1667.10 46.7500   1
  -2  -2   5 1340.35 64.7000   1
   2  -2   5 1410.20 41.1500   1
  -2  -2   5 1241.03 49.2300   1
  -2  -2   5 1361.51 44.7600   1
  -2   2   5 1464.15 53.3200   1
   2  -2  -5 895.980 84.7700   1
   2   2  -5 1377.24 51.5400   1
  -2   2  -5 1263.93 68.6100   1
   2  -2  -5 1483.81 52.3300   1
  -2  -2  -5 1253.48 54.9000   1
  -2  -2   5 1382.67 61.2900   1
   2  -2   5 1344.39 57.4900   1
   2  -2   5 1283.37 56.4800   1
   2   2   5 1605.96 72.1500   1
  -2  -2   5 1549.92 44.3200   1
  -2  -2  -5 1595.81 78.6100   1
   3  -7  -4 185.250 36.6600   1
  -3  -7  -4 181.010 32.8800   1
  -3  -7   4 177.820 18.2600   1
   3  -7   4 194.300 19.3500   1
  -3   7   4 197.480 19.3600   1
  -3  -7  -4 132.840 18.9600   1
   3  -7  -4 183.520 15.9600   1
   3  -7   4 178.140 17.0100   1
   3   7  -4 115.740 17.7400   1
  -3   7   4 205.660 23.5100   1
   3   7  -4 184.780 22.4600   1
  -3  -7   4 127.190 20.9900   1
   3  -7  -4 182.850 30.9800   1
  -3  -7  -4 176.000 24.2100   1
  -1 -10   3 543.410 29.4000   1
  -1 -10  -3 453.240 37.3300   1
   1 -10  -3 453.730 35.5900   1
  -1 -10  -3 506.730 36.7800   1
   1 -10   3 413.380 32.9300   1
  -1 -10   3 563.040 39.4400   1
  -1 -10   3 366.370 31.8400   1
   1 -10   3 412.010 35.6600   1
   1 -10  -3 505.130 33.5700   1
  -1  10  -3 596.170 57.3800   1
   1  10   3 405.000 48.9700   1
  -1  10   3 490.670 48.2300   1
   1 -10   3 455.970 25.2800   1
  -6 -10  -1 452.530 34.4200   1
  -6 -10   1 528.500 37.8300   1
   6 -10  -1 634.580 56.3900   1
  -6 -10  -1 448.980 29.4000   1
  -6 -10   1 463.050 27.6500   1
  -6 -10   1 461.800 25.7600   1
   6 -10   1 572.600 42.9200   1
   6 -10  -1 474.090 27.7300   1
   6 -10   1 467.270 28.9500   1
  -6  10  -1 436.980 30.5300   1
  -6  10   1 606.960 39.4400   1
   6 -10   1 452.160 31.3900   1
   6 -10  -1 461.210 34.5800   1
  -6  10  -1 445.070 33.7500   1
  -1  -3   5 563.870 37.4000   1
   1  -3  -5 861.390 57.7600   1
   1  -3   5 827.790 39.7800   1
  -1   3   5 833.150 38.9600   1
   1   3   5 791.770 39.1200   1
   1   3   5 778.430 48.9400   1
  -1  -3   5 786.070 38.3200   1
  -1  -3  -5 893.680 63.0400   1
  -1   3  -5 724.970 46.5300   1
   1   3  -5 736.540 40.8100   1
   1  -3   5 651.340 33.8600   1
  -1   3   5 830.770 46.5500   1
   1  -3   5 684.120 39.6800   1
  -1  -3   5 727.360 38.7500   1
   1  -3  -5 866.710 46.9200   1
  -1  -3  -5 771.840 47.3700   1
  -1  -3   5 617.910 46.2100   1
   1  -3   5 629.520 40.1200   1
  -4   9   3 170.230 19.3900   1
  -4   9   3 144.140 17.4600   1
   4  -9   3 144.160 27.2300   1
  -4  -9  -3 206.000 27.6300   1
   4  -9   3 165.360 18.3300   1
  -4   9   3 152.190 21.8100   1
  -4  -9  -3 181.500 40.1400   1
  -4  -9  -3 112.590 23.2800   1
   4  -9  -3 186.210 25.6800   1
   4   9  -3 194.580 26.2100   1
   4  -9   3 161.290 20.2800   1
   4  -9  -3 161.200 17.0300   1
  -4  -9   3 156.670 17.6100   1
  -5 -11   0 69.8900 24.5200   1
   5 -11   0 59.7900 18.2300   1
  -5 -11   0 109.380 18.1500   1
   5 -11   0 104.480 18.1900   1
  -5  11   0 82.6300 19.5900   1
 -10  -4  -1 1813.11 50.4700   1
 -10   4   1 1952.02 59.3400   1
 -10  -4   1 1851.05 47.7900   1
  10  -4  -1 2171.02 67.9400   1
  10   4   1 1668.64 63.9000   1
  10  -4  -1 1780.17 46.3800   1
  10  -4   1 1949.24 49.6900   1
  10   4   1 1757.96 65.1900   1
  10  -4   1 2043.82 61.8200   1
  10   4  -1 1659.85 55.5100   1
 -10   4  -1 1767.12 58.9700   1
  -8   8   1 367.420 29.6400   1
  -8   8  -1 370.990 24.5400   1
   8  -8   1 434.280 25.9400   1
   8  -8  -1 479.450 27.3700   1
  -8  -8  -1 426.870 28.7100   1
  -8  -8   1 499.090 32.3500   1
  -8  -8   1 423.300 24.3200   1
   8  -8   1 336.980 30.4400   1
   8  -8   1 375.080 24.9600   1
   8  -8   1 289.100 30.1000   1
  -8  -8  -1 373.260 35.4400   1
   8  -8  -1 354.930 26.9800   1
  -8   8  -1 255.500 28.8200   1
   8  -8  -1 334.880 28.2700   1
   8   8  -1 411.020 35.1300   1
   8  -8   1 285.680 28.7200   1
   2 -12   1 178.110 20.0600   1
  -2 -12   1 168.830 18.2800   1
   2 -12  -1 199.690 21.8500   1
  -2 -12  -1 190.780 19.5400   1
  -2 -12   1 159.750 17.7600   1
   2 -12   1 90.8500 21.8700   1
   2  12   1 111.510 13.4900   1
  -2  12  -1 177.030 39.9700   1
  -2  12   1 141.440 38.1400   1
  -2  12  -1 162.780 20.9400   1
   2 -12   1 150.870 21.9600   1
  -2  12   1 126.500 15.9400   1
  -2  12  -1 120.550 21.6200   1
  -2 -12   1 143.880 25.7400   1
  -2 -12  -1 158.740 24.1900   1
   2 -12  -1 177.110 28.1000   1
  -3   0   5 -4.5900 13.8200   1
  -3   0   5 -6.1200 16.2400   1
  -3   0  -5 15.6400 40.7100   1
   3   0   5 9.32000 16.2400   1
  -3   0  -5 1.77000 18.0000   1
   3   0   5 -5.0100 11.6500   1
   3   0  -5 22.2000 20.2700   1
   3   0   5 -12.850 19.2500   1
   9  -5   2 1771.22 59.9200   1
  -9   5   2 2197.54 54.1100   1
  -9  -5   2 2314.25 56.3000   1
   9  -5   2 2050.60 47.0700   1
  -9   5   2 2343.24 55.1200   1
   9  -5   2 1731.91 63.7600   1
   9   5  -2 2093.86 65.3500   1
   9  -5   2 2083.92 72.3000   1
  -9   5  -2 2119.24 78.9300   1
  -9  -5  -2 2075.84 60.5400   1
   9  -5  -2 1958.82 53.6400   1
   9  -5   2 1632.98 89.9400   1
  -9  -5  -2 1977.54 73.5400   1
  10   0  -2 1145.29 56.5500   1
  10   0   2 1237.47 59.3200   1
  10   0   2 1247.10 45.8800   1
 -10   0   2 1242.78 41.0900   1
 -10   0  -2 1137.90 52.4500   1
  10   0  -2 1294.54 46.9800   1
   6  -4  -4 3928.54 73.1300   1
  -6  -4   4 3268.22 79.6000   1
  -6  -4   4 4172.28 72.3700   1
  -6   4  -4 3417.42 84.9100   1
  -6  -4  -4 4450.37 114.560   1
  -6   4  -4 3630.86 94.2800   1
   6  -4  -4 4097.37 82.5200   1
   6   4  -4 3843.99 92.5000   1
   0  -8   4 352.960 33.9300   1
   0  -8  -4 319.010 32.8100   1
   0  -8   4 275.530 35.2200   1
   0   8  -4 262.450 27.1600   1
   0  -8   4 387.730 29.7800   1
   0  -8  -4 450.290 51.9500   1
   3 -11  -2 187.630 30.5100   1
  -3 -11  -2 213.480 22.3200   1
  -3  11   2 183.410 16.5800   1
  -3 -11   2 185.780 18.0600   1
   3 -11   2 173.900 17.0000   1
  -3  11   2 141.120 20.6600   1
  -3  11  -2 146.860 33.1400   1
   3 -11   2 111.810 19.3900   1
   3 -11  -2 178.270 32.6600   1
   3 -11  -2 167.390 24.6200   1
  -3  11  -2 122.870 26.2200   1
  -3 -11  -2 155.980 22.9600   1
   3 -11  -2 185.000 19.6900   1
   3 -11   2 180.110 21.6000   1
  -3  11  -2 121.230 18.8300   1
  -3  11   2 133.820 23.0000   1
   3 -11   2 166.020 31.8600   1
  -3 -11   2 124.210 23.0100   1
  -3  12   0 254.490 36.9700   1
  -3  12   0 261.260 25.3300   1
   3 -12   0 355.330 26.9400   1
  -3 -12   0 322.990 22.0100   1
  -3 -12   0 267.620 28.1500   1
   3 -12   0 222.600 25.0400   1
   5 -10   2 6712.46 95.3500   1
  -5 -10   2 6604.73 153.120   1
  -5  10  -2 7641.26 137.450   1
  -5 -10  -2 7747.12 143.370   1
   5 -10   2 6385.33 116.380   1
  -5 -10  -2 7492.60 112.660   1
  -5  10   2 6759.95 96.6400   1
  -5 -10   2 7262.72 95.9300   1
  -5  10   2 6977.86 111.370   1
   5 -10  -2 7181.82 90.4500   1
   5 -10   2 6560.75 91.1800   1
  -5  10  -2 6137.22 111.860   1
  -5  10   2 7083.15 115.260   1
   5 -10  -2 7315.19 122.290   1
  -3   1   5 1142.91 57.6500   1
   3   1   5 1121.75 60.6800   1
  -3  -1   5 1235.14 46.5100   1
   3   1  -5 1305.34 47.8400   1
  -3   1  -5 1517.29 72.4800   1
  -3  -1  -5 1104.79 58.0900   1
   3  -1  -5 1423.82 51.3100   1
  -3   1  -5 1015.37 54.5800   1
   3   1   5 916.020 54.2200   1
   3  -1   5 1046.79 59.5400   1
   3  -1   5 950.580 56.2500   1
  -3  -1   5 1019.82 49.0200   1
  -3  -1  -5 1663.68 76.9300   1
  -3  -1   5 1164.88 47.8800   1
  -3   1   5 1230.59 40.5900   1
   3  -1   5 1290.38 43.5500   1
   3   1   5 1138.03 56.1900   1
   3  -1   5 1215.71 43.6000   1
  -9   7   0 5260.03 84.4600   1
  -9   7   0 6100.09 130.890   1
  -9  -7   0 5656.43 88.5400   1
   9  -7   0 6095.97 83.6900   1
   9   7   0 5298.29 120.610   1
   9  -7   0 6097.70 120.220   1
 -10   1  -2 5175.79 100.140   1
 -10  -1  -2 5471.43 95.6600   1
 -10   1   2 5850.90 90.9900   1
  10   1  -2 5432.46 106.770   1
  10  -1  -2 5760.74 98.3600   1
  10   1   2 5233.73 95.1000   1
  10  -1   2 5293.08 91.0500   1
  10   1   2 5036.27 107.310   1
  10  -1   2 5629.55 118.210   1
  10   1  -2 6242.52 111.500   1
 -10  -1   2 5512.44 79.3200   1
  10  -1  -2 5668.94 96.1200   1
  -7   0   4 49.4700 20.4700   1
  -7   0  -4 26.9100 20.8000   1
   7   0  -4 38.5200 27.2600   1
   7   0   4 33.8100 25.6500   1
  -7   0  -4 73.4500 27.5800   1
  -7   0  -4 144.920 37.1100   1
  -7   0   4 3.09000 16.4000   1
  -7   0   4 64.5100 19.8900   1
   8   7  -2 576.280 36.5100   1
  -8  -7  -2 556.690 35.4700   1
  -8   7   2 700.390 35.3800   1
   8  -7   2 380.050 31.0900   1
   8  -7   2 563.730 35.0900   1
   8  -7  -2 641.260 37.4400   1
  -8   7   2 662.550 34.7400   1
  -8  -7  -2 611.540 39.6400   1
  -8  -7   2 609.680 30.8900   1
   8  -7  -2 432.130 29.2100   1
   8  -7  -2 624.000 32.4800   1
   8  -7   2 576.840 29.3300   1
  -8  -7  -2 409.170 42.4700   1
  -8   7  -2 461.970 34.4900   1
   8  -7   2 610.620 37.9000   1
  -8   7  -2 530.160 47.7400   1
  -8   7   2 487.440 41.0200   1
  -2 -10  -3 1626.90 86.8200   1
  -2  10   3 1508.31 46.7200   1
  -2 -10  -3 2049.23 71.1100   1
   2 -10  -3 1772.93 66.0100   1
  -2 -10   3 1500.57 61.6300   1
  -2 -10   3 1905.09 79.3800   1
  -2 -10  -3 1957.51 72.5200   1
   2 -10  -3 2096.92 63.3500   1
  -2  10  -3 2053.90 92.3300   1
   2 -10   3 1730.36 78.2400   1
   2 -10   3 1648.65 66.2800   1
  -2  10   3 2228.06 76.7900   1
  -2  10  -3 1584.18 68.4300   1
   2 -10   3 1953.43 49.9100   1
  -2 -10   3 1973.97 48.3200   1
  -1   8  -4 5719.74 165.340   1
   1   8   4 5267.48 167.300   1
  -1  -8   4 6211.48 159.920   1
  -1   8   4 6873.74 122.620   1
   1  -8  -4 6576.49 141.460   1
  -1  -8  -4 6512.72 120.430   1
  -1  -8  -4 7017.10 135.340   1
   1  -8  -4 6664.21 122.990   1
   1  -8   4 5883.09 85.9500   1
  10   5   0 8256.09 144.350   1
 -10   5   0 9039.67 133.160   1
 -10  -5   0 7944.52 106.040   1
  10  -5   0 8006.79 128.660   1
  -2  -3   5 805.410 39.9200   1
  -2   3   5 842.130 44.9100   1
   2   3  -5 714.920 88.0900   1
   2  -3   5 640.140 44.0500   1
   2  -3  -5 774.630 43.4100   1
   2  -3   5 807.560 37.4600   1
   2  -3   5 919.820 41.1900   1
  -2   3   5 860.270 40.5400   1
  -2  -3   5 722.480 34.1400   1
   2   3   5 779.120 52.7800   1
   2  -3   5 844.780 49.0200   1
  -2  -3  -5 879.510 50.7300   1
  -2  -3   5 581.660 43.5200   1
  -2  -3  -5 937.210 59.5400   1
   2   3  -5 683.220 39.6300   1
  -2   3  -5 710.640 41.1300   1
  -7  -1  -4 3977.74 106.830   1
   7   1   4 3573.13 76.2300   1
  -7   1  -4 3237.06 86.9700   1
   7  -1   4 3783.17 74.0300   1
   7   1  -4 3880.70 83.4300   1
  -7   1   4 3967.24 76.6600   1
  -7   1   4 3235.25 78.6100   1
   7  -1  -4 4059.11 81.3800   1
  -7   1  -4 3875.49 97.1500   1
  -7  -1  -4 4033.79 100.570   1
  -7   1  -4 3491.15 103.130   1
  -7  -1   4 4089.66 73.7500   1
  -9   0   3 -16.310 12.5600   1
   9   0  -3 16.7000 23.2400   1
   9   0   3 13.8700 17.4800   1
   9   0  -3 6.94000 19.8700   1
  -9   0  -3 16.1300 22.3600   1
  -9   0  -3 3.50000 27.9200   1
   3  -2   5 763.110 47.5100   1
  -3  -2  -5 689.220 46.9700   1
  -3   2  -5 694.280 49.3300   1
  -3   2  -5 884.430 63.0300   1
  -3  -2   5 715.160 43.2900   1
   3  -2   5 639.070 32.6700   1
  -3  -2  -5 633.820 35.3000   1
  -3   2   5 910.530 44.9400   1
  -3  -2   5 887.160 44.2000   1
   3   2  -5 905.500 47.0300   1
  -3  -2   5 795.260 39.0300   1
  -3   2   5 836.800 38.6300   1
  -3  -2  -5 856.080 58.3700   1
   3  -2  -5 797.930 46.5800   1
   3  -2   5 786.860 39.0900   1
   3  -2   5 728.790 47.2000   1
   0   4   5 32.1700 16.9600   1
   0  -4   5 -7.5700 16.1200   1
   0  -4   5 1.51000 13.9400   1
   0  -4  -5 -7.5000 22.3100   1
   0   4  -5 -13.920 15.9800   1
   0  -4  -5 -2.9500 35.6800   1
   0   4  -5 2.06000 27.6500   1
   0   4   5 3.67000 17.7600   1
   0  -4   5 3.72000 11.7200   1
   0  -4   5 -4.4900 18.1800   1
  10   2   2 124.460 36.4200   1
  10   2  -2 87.7000 28.3600   1
  10  -2   2 105.310 23.2800   1
  10   2   2 106.350 41.4500   1
  10  -2   2 103.020 18.4800   1
  10   2  -2 74.0200 32.0900   1
 -10  -2   2 124.360 18.5200   1
 -10   2   2 104.820 15.8000   1
 -10  -2  -2 155.290 25.7300   1
 -10   2  -2 138.230 25.5900   1
  10  -2  -2 92.7800 18.8600   1
  10  -2  -2 101.450 21.6100   1
  -5  11   1 4338.76 87.3900   1
   5 -11   1 4512.11 74.2900   1
  -5 -11   1 3705.52 65.6500   1
  -5 -11   1 3861.49 69.6800   1
   5 -11   1 4529.79 82.4300   1
  -5 -11  -1 4269.29 79.9400   1
   5 -11   1 3929.45 94.4400   1
   5 -11  -1 4464.09 113.050   1
  -5 -11   1 4153.73 115.390   1
  -5 -11  -1 4236.53 93.0300   1
   5 -11  -1 3732.38 84.6900   1
   5 -11   1 3519.59 87.1400   1
  -9   1  -3 502.630 57.9900   1
  -9  -1  -3 575.490 39.1200   1
   9   1  -3 527.120 35.3600   1
   9  -1  -3 511.590 50.7000   1
  -9   1  -3 310.560 38.3600   1
  -9   1  -3 478.130 64.1200   1
  -9  -1  -3 518.200 39.2800   1
  -9  -1   3 461.770 25.6500   1
  -9   1   3 496.730 39.5900   1
   9  -1  -3 472.130 48.2300   1
   9   1   3 468.270 31.7000   1
   9  -1   3 378.050 49.3700   1
  -9   1   3 467.070 44.0400   1
  11   0   0 16.7300 20.0400   1
  11   0   0 10.3600 19.5400   1
 -11   0   0 18.3400 20.5200   1
 -11   0   0 5.17000 13.8800   1
   7  -2   4 190.320 24.8600   1
  -7   2   4 178.350 17.7800   1
  -7   2   4 240.090 27.3700   1
  -7   2  -4 195.510 29.9100   1
   7   2  -4 234.480 26.9000   1
   7  -2  -4 229.340 24.7500   1
  -7  -2  -4 195.790 35.9400   1
  -7   2  -4 223.370 32.6900   1
  -7   2  -4 236.610 47.2900   1
  -7  -2  -4 224.640 43.9600   1
  -7  -2   4 245.220 22.9000   1
  -7   2   4 242.090 20.7200   1
   7  -2  -4 239.690 27.1500   1
   7   2   4 181.390 39.4600   1
  -7  -2   4 184.870 24.8100   1
   1   4  -5 926.340 51.0100   1
  -1  -4   5 941.700 47.0100   1
   1  -4   5 968.870 42.0200   1
  -1   4   5 1096.40 48.2600   1
   1  -4   5 1128.32 45.5700   1
  -1  -4  -5 1152.86 66.5300   1
   1  -4  -5 1170.47 64.1800   1
  -1  -4   5 935.820 40.9700   1
   1  -4   5 924.740 55.6000   1
  -1  -4   5 832.800 54.1400   1
  -1  -4  -5 1002.50 55.0600   1
  -1   4  -5 856.720 59.0300   1
   1  -4  -5 1064.25 53.8300   1
   1   4   5 999.240 54.5200   1
  -1   4   5 1117.85 55.7800   1
   1  -4   5 805.580 48.2700   1
  -5  -6  -4 3756.57 89.2600   1
   5  -6   4 3458.58 61.7200   1
   5   6  -4 3347.74 86.0000   1
  -5   6   4 3655.96 68.6800   1
   5  -6   4 3851.89 73.5200   1
   5  -6  -4 3316.48 59.8000   1
  -5  -6   4 3663.59 69.3300   1
   5  -6  -4 4122.50 96.1300   1
  -5  -6  -4 3597.42 95.6500   1
   2   8   4 759.990 91.0700   1
   2   8  -4 1137.60 56.7800   1
   2  -8   4 1123.56 47.1100   1
  -2  -8   4 1303.72 41.0900   1
   2  -8   4 1104.79 45.4600   1
   2  -8  -4 1029.32 46.6800   1
  -2  -8  -4 867.030 49.9400   1
  -2   8   4 1097.96 48.8500   1
  -2  -8   4 903.600 52.9200   1
  -2   8   4 1203.35 48.4900   1
  -2   8  -4 875.240 60.9800   1
  -2  -8  -4 1238.01 53.4200   1
   2  -8  -4 999.200 50.9500   1
   2   8  -4 759.160 50.1400   1
   2  -8  -4 1208.69 63.1900   1
  -2  -8  -4 1227.19 57.9800   1
 -11   1   0 -3.0000 14.2200   1
 -11   1   0 9.33000 17.2300   1
  11  -1   0 12.9100 19.9800   1
  11   1   0 16.5900 20.2500   1
  11  -1   0 -6.1200 18.5600   1
  11   1   0 11.2600 21.8100   1
 -11  -1   0 11.3500 13.5200   1
   8   5  -3 4263.78 87.8000   1
  -8  -5  -3 4500.36 117.300   1
  -8   5  -3 3384.92 100.950   1
   8  -5   3 4192.47 102.130   1
   8  -5   3 4170.04 68.0900   1
  -8   5   3 4231.21 75.0500   1
  -8  -5  -3 4432.43 101.280   1
  -8  -5   3 4174.70 68.3800   1
  -8   5   3 3502.77 118.140   1
  -8   5  -3 4437.94 106.790   1
  -3  12   1 2120.77 66.9100   1
  -3  12  -1 1834.82 64.5000   1
  -3  12  -1 1722.42 68.2000   1
  -3 -12   1 1938.80 47.0000   1
   3 -12  -1 2093.08 66.8500   1
   3 -12  -1 1833.27 61.3500   1
  -3  12  -1 2052.89 85.7900   1
  -3 -12  -1 2078.36 54.8000   1
  -3 -12   1 1869.05 49.7300   1
   3 -12   1 2028.20 52.0900   1
   3 -12  -1 2361.85 83.3800   1
  -3 -12   1 2203.68 74.3600   1
  -3 -12  -1 2026.21 67.0500   1
  -4   7   4 3535.81 77.9600   1
  -4  -7  -4 3604.12 92.5400   1
  -4  -7   4 3522.87 64.5600   1
  -4  -7  -4 3592.95 88.6800   1
   4  -7  -4 3841.90 82.4200   1
   4   7  -4 3420.18 86.1800   1
   4  -7   4 3498.58 68.9800   1
   4  -7  -4 3064.44 59.5700   1
  -4   7   4 3737.28 75.2000   1
   4  -7   4 3430.49 68.3900   1
   9  -7   1 450.860 52.2800   1
   9   7  -1 620.340 43.8000   1
  -9   7   1 584.820 31.5500   1
   9  -7   1 608.950 30.1400   1
   9  -7  -1 429.670 28.0100   1
   9  -7   1 424.960 28.6400   1
  -9  -7   1 602.880 33.0800   1
  -9  -7  -1 625.760 33.2900   1
  -9  -7  -1 590.260 46.1900   1
  -9   7   1 618.640 36.4400   1
  -9   7   1 599.820 79.2200   1
  -9   7  -1 529.750 43.5000   1
   9  -7  -1 560.350 36.0300   1
   9  -7   1 573.980 37.2200   1
   9  -7  -1 583.730 30.4500   1
  -9   2  -3 14816.3 395.030   1
   9   2  -3 14057.5 370.770   1
  -9  -2  -3 13865.5 198.930   1
  -9   2   3 14450.1 369.030   1
   9  -2   3 14813.4 377.780   1
   9  -2  -3 15206.4 393.860   1
   9   2   3 14864.8 390.580   1
  -9   2   3 14713.1 372.250   1
  -9  -2   3 15071.5 381.760   1
  -9  -2  -3 14226.8 376.070   1
  10  -5  -1 1349.88 57.8600   1
  10  -5   1 1227.39 48.9400   1
  10   5  -1 1459.34 61.6500   1
  10   5   1 1168.92 64.8300   1
 -10   5  -1 1413.93 60.0100   1
  10  -5  -1 1015.75 47.7900   1
 -10   5   1 1392.40 42.4400   1
  10  -5   1 1278.00 38.8000   1
  10  -5  -1 1364.50 40.1700   1
  10  -5   1 1052.56 48.4900   1
 -10  -5   1 1432.28 42.9600   1
 -10   5   1 1440.28 48.5700   1
 -10  -5  -1 1406.65 42.1600   1
  -6  -8  -3 927.090 50.1100   1
   6   8  -3 843.370 48.5200   1
  -6  -8  -3 860.200 44.4500   1
  -6  -8   3 958.820 40.8700   1
  -6   8   3 886.580 41.4700   1
   6  -8   3 827.210 40.2700   1
   6  -8   3 829.460 36.1700   1
   6  -8  -3 852.620 38.2800   1
   6  -8  -3 1076.55 53.4600   1
  -6   8   3 829.470 50.4100   1
   6  -8   3 763.180 43.9000   1
   6  -8   3 1185.69 61.4700   1
  -6   8   3 935.540 44.9900   1
   3 -10  -3 6679.52 154.900   1
  -3 -10  -3 6857.08 112.780   1
  -3 -10  -3 6436.81 127.940   1
  -3 -10   3 6276.69 83.5300   1
  -3  10   3 5654.62 99.0200   1
  -3 -10   3 6392.18 146.980   1
   3 -10  -3 6651.65 116.560   1
   3 -10   3 7221.45 183.660   1
  -3  10  -3 6612.22 138.970   1
   3 -10  -3 7014.16 101.310   1
  -3  10   3 5995.52 106.430   1
  -3  10  -3 7181.19 178.910   1
  -3  10   3 7113.32 122.120   1
  -3  -3  -5 7136.19 140.560   1
  -3  -3  -5 7790.34 158.080   1
  -3  -3   5 7329.54 104.430   1
  -3  -3   5 5855.09 121.880   1
   3  -3   5 7738.71 180.200   1
   3  -3  -5 6988.04 127.420   1
   3  -3   5 6684.84 88.9900   1
  -3  -3   5 6037.30 103.790   1
   3  -3   5 5961.80 110.380   1
   3   3  -5 7528.06 127.310   1
  -3   3  -5 5776.97 147.010   1
 -11   2   0 42.3300 13.4400   1
 -11  -2   0 51.0400 17.1900   1
  11   2   0 78.3400 26.1500   1
  11  -2   0 52.6300 18.4500   1
  11   2   0 85.0900 22.5800   1
  11  -2   0 100.800 21.1400   1
 -10   3  -2 433.800 36.4200   1
 -10  -3  -2 413.930 29.4200   1
 -10   3   2 396.480 23.9000   1
 -10  -3   2 407.600 24.1400   1
  10   3   2 427.650 35.5000   1
  10   3   2 437.180 42.1400   1
  10  -3  -2 498.860 30.1500   1
  10  -3   2 451.990 27.7400   1
 -10   3   2 442.990 26.6900   1
  10  -3   2 414.790 31.2100   1
  10   3  -2 448.120 32.4500   1
  10  -3  -2 435.680 34.2100   1
  -6  -5  -4 252.250 26.9400   1
   6  -5  -4 295.270 28.2200   1
  -6   5  -4 372.550 42.7800   1
  -6  -5  -4 332.670 34.9300   1
  -6  -5   4 238.490 20.3600   1
  -6   5   4 326.800 24.4500   1
   6  -5  -4 315.260 22.2800   1
   6  -5   4 274.950 20.7100   1
  -6   5   4 237.220 22.8400   1
   6  -5   4 190.130 37.0500   1
   6   5  -4 296.120 28.2200   1
  -4   0   5 23.3500 12.1900   1
  -4   0  -5 12.4700 12.3800   1
  -4   0   5 9.29000 14.7500   1
   4   0  -5 2.89000 17.4700   1
  -4   0  -5 -26.500 39.8200   1
  -4   0   5 62.2000 16.5200   1
   4   0   5 20.3900 14.2900   1
  -4   0  -5 4.20000 18.5700   1
   4   0   5 28.9700 17.4900   1
  -2  -4  -5 2057.48 80.0800   1
   2  -4   5 1916.01 49.6900   1
  -2   4   5 2002.67 50.5600   1
  -2  -4   5 1932.04 46.9200   1
   2  -4   5 1908.21 70.8200   1
  -2  -4  -5 1978.56 68.9500   1
  -2  -4   5 1744.86 67.3800   1
   2  -4  -5 1971.92 60.9700   1
   2   4  -5 1829.48 57.2100   1
   2   4  -5 1681.42 60.7000   1
  -2   4   5 1903.12 59.8700   1
   2  -4   5 1537.89 59.0500   1
  -2  -4  -5 1586.73 50.7100   1
   2  -4   5 1846.84 48.5800   1
  -2   4  -5 1731.04 76.3600   1
   7 -10   0 77.0000 19.5800   1
  -7 -10   0 76.4100 16.7000   1
   7 -10   0 90.4700 25.2400   1
  -7  10   0 83.3700 18.3700   1
   7 -10   0 49.4000 23.6200   1
  -7 -10   0 57.7900 23.5400   1
   4 -11  -2 9455.51 182.530   1
  -4  11   2 9325.82 131.080   1
   4 -11  -2 9676.91 141.720   1
  -4  11   2 9263.38 125.790   1
   4 -11   2 9368.02 163.050   1
  -4 -11  -2 9168.22 140.200   1
  -4  11  -2 9371.83 181.660   1
  -4 -11   2 9213.48 175.800   1
   4 -11  -2 10770.9 189.720   1
  -4 -11  -2 10053.2 126.920   1
   4 -11   2 9701.64 115.150   1
   4 -11  -2 9400.94 109.290   1
  -4 -12   0 1504.63 59.0500   1
   4 -12   0 1097.63 52.6700   1
  -4  12   0 1036.18 50.5100   1
   4 -12   0 1289.18 39.7400   1
   4 -12   0 1545.67 56.9400   1
  -4 -12   0 1298.81 41.4400   1
   4  -1   5 1240.54 42.0100   1
  -4   1   5 1237.37 45.8600   1
   4   1   5 1355.68 52.4700   1
  -4   1   5 1543.61 49.1800   1
  -4  -1   5 1355.54 40.1300   1
  -4  -1  -5 1518.13 71.6000   1
  -4   1  -5 1667.64 75.1100   1
  -4  -1   5 1090.89 49.5300   1
   4  -1  -5 1400.60 53.3200   1
   4  -1   5 1104.92 60.5800   1
   4   1  -5 1136.64 55.1200   1
  -4   1  -5 1225.24 67.7700   1
  -4  -1  -5 1276.83 66.4800   1
   4   1   5 1028.62 61.9400   1
   4  -1   5 1243.01 60.3600   1
  -4  -1  -5 1091.57 52.8300   1
  -4  -1   5 1033.51 53.3700   1
   7  -7   3 764.870 43.2700   1
  -7   7   3 738.850 49.8200   1
  -7   7   3 1033.35 49.8000   1
   7  -7   3 827.410 51.4500   1
   7  -7  -3 977.170 50.3800   1
  -7   7  -3 537.530 41.3100   1
  -7  -7  -3 763.430 48.3800   1
   7   7  -3 712.670 42.1100   1
  -7  -7  -3 965.470 52.0000   1
   7  -7   3 779.520 33.9200   1
   7  -7  -3 842.090 37.1600   1
  -7   7   3 852.820 38.7500   1
  -7  -7   3 891.330 40.2300   1
   7   3  -4 3907.20 98.8500   1
   7   3   4 3190.19 82.0300   1
   7  -3  -4 3792.63 81.0400   1
  -7   3  -4 3146.71 90.3800   1
   7  -3  -4 4307.73 78.4600   1
  -7  -3   4 4089.48 69.6300   1
  -7   3  -4 3835.95 103.860   1
   7  -3   4 3611.25 63.8900   1
  -7   3   4 4102.32 74.5800   1
  -7  -3  -4 4013.84 95.7800   1
  -7   3  -4 4352.40 110.470   1
  -7  -3  -4 3642.43 103.160   1
   5  -9   3 971.370 41.1800   1
   5  -9  -3 978.930 41.4000   1
   5  -9   3 823.660 39.6200   1
  -5   9   3 842.540 39.3900   1
  -5  -9   3 947.060 40.9400   1
  -5  -9  -3 967.080 52.3600   1
   5  -9   3 832.220 48.0800   1
  -5   9   3 883.030 45.8400   1
  -5  -9  -3 658.510 68.0400   1
  -5  -9  -3 981.680 53.7900   1
   5  -9  -3 1008.46 49.0400   1
   5   9  -3 973.400 54.1700   1
  -5   9   3 1019.01 47.6200   1
   8  -9   0 201.900 24.5000   1
   8  -9   0 254.330 20.0400   1
  -8   9   0 185.390 20.8300   1
  -8  -9   0 196.720 20.0300   1
  -8  -9   0 182.800 28.3400   1
   8  -9   0 225.550 32.5600   1
  11   0  -1 53.6400 19.9900   1
  11   0   1 63.1200 20.7500   1
  11   0   1 33.9300 20.4300   1
  11   0  -1 34.6000 21.3100   1
 -11   0   1 32.6600 14.6400   1
 -11   0  -1 36.9100 18.1200   1
  -9   6  -2 4329.75 118.840   1
   9  -6   2 3828.86 124.690   1
  -9  -6  -2 5130.57 129.560   1
   9  -6  -2 4481.92 94.1600   1
   9  -6   2 4613.81 101.390   1
   9   6  -2 4149.92 96.4400   1
   9  -6   2 3950.91 105.850   1
   9  -6  -2 4440.88 71.0400   1
  -9   6   2 4557.96 79.1700   1
  -9  -6   2 4323.21 74.6400   1
   9  -6   2 3926.76 91.3600   1
  -9  -6  -2 4581.44 90.0700   1
  -9   6   2 3858.56 132.390   1
   0 -12  -2 1228.72 49.8200   1
   0 -12   2 952.670 50.7300   1
   0  12   2 985.460 77.4700   1
   0  12  -2 747.130 41.5100   1
   0 -12   2 983.100 41.4000   1
   0 -12   2 840.310 52.6400   1
   0 -12  -2 1398.50 65.8000   1
   0 -12  -2 1177.65 47.8600   1
  11   1   1 1334.98 52.7200   1
  11   1   1 1284.58 45.7800   1
  11  -1   1 1407.58 43.8400   1
 -11   1  -1 1268.30 46.7700   1
  11  -1   1 1534.77 56.2100   1
  11   1  -1 1482.11 52.3400   1
  11  -1  -1 1462.99 48.9400   1
  11  -1  -1 1461.68 47.8100   1
  11   1  -1 1282.74 50.7100   1
 -11  -1   1 1474.09 59.1700   1
 -11   1   1 1485.50 43.2400   1
 -11  -1  -1 1313.16 47.2000   1
   3   8  -4 1647.94 59.7700   1
  -3  -8   4 1319.21 64.0100   1
   3  -8  -4 1674.38 55.4600   1
  -3  -8  -4 1639.23 63.5400   1
  -3   8   4 1386.54 45.1600   1
   3  -8   4 1684.48 46.8700   1
  -3  -8  -4 1775.04 69.1400   1
   3  -8  -4 1576.45 69.6100   1
   3  -8  -4 1729.44 50.7400   1
   3  -8   4 1896.23 49.1400   1
  -3  -8  -4 1273.46 53.4700   1
  -3   8   4 1748.41 56.4400   1
  -3  -8   4 1691.00 46.8100   1
  -9  -3  -3 3100.89 88.2000   1
   9   3  -3 3388.01 83.7600   1
   9  -3  -3 2824.25 72.9100   1
  -9   3  -3 3470.64 91.9200   1
  -9  -3   3 3104.53 56.9900   1
  -9   3   3 3007.17 59.1800   1
   9   3   3 2910.16 85.9100   1
   9  -3   3 3379.36 63.7800   1
  -9   3   3 3125.81 67.2800   1
   9  -3   3 2756.65 85.7900   1
  -1  12   2 518.430 30.9700   1
  -1  12   2 411.460 24.5700   1
   1  12   2 403.840 24.9200   1
  -1 -12   2 625.740 34.3400   1
   1 -12   2 546.620 29.6200   1
  -1  12  -2 483.980 35.2600   1
  -1  12   2 546.400 52.0600   1
  -1  12  -2 637.480 63.6100   1
   1 -12   2 433.920 32.2700   1
  -1 -12   2 387.780 31.2100   1
   1 -12  -2 615.960 40.7600   1
   1 -12   2 501.580 36.2200   1
  -1 -12  -2 540.420 44.8100   1
   1 -12  -2 616.480 46.6900   1
  -1 -12   2 431.430 37.4200   1
  -1 -12  -2 571.200 39.8900   1
   1 -12  -2 569.470 38.1300   1
  -1 -12  -2 583.060 38.3400   1
   0   5   5 786.900 46.2900   1
   0  -5   5 919.530 44.5100   1
   0   5   5 916.550 46.0500   1
   0  -5   5 926.470 42.6100   1
   0   5  -5 850.740 46.5000   1
   0  -5  -5 906.610 50.7400   1
   0  -5  -5 896.560 62.5200   1
   0  -5   5 835.210 46.5600   1
   0   5  -5 601.650 65.5400   1
 -10   6   0 133.910 17.6400   1
  10   6   0 92.8600 23.3800   1
  10  -6   0 119.040 18.3400   1
  10  -6   0 168.780 26.4600   1
 -10  -6   0 79.2900 16.4400   1
 -10   6   0 82.5500 18.8200   1
  10  -6   0 58.9500 11.8900   1
  -4   2   5 2243.32 51.1400   1
  -4  -2  -5 1947.21 65.4400   1
   4  -2   5 1828.56 64.0900   1
  -4  -2   5 1914.96 58.0400   1
   4  -2   5 2079.77 48.6400   1
  -4  -2   5 1951.13 59.8700   1
  -4   2  -5 2161.39 75.4600   1
   4   2  -5 2198.31 71.6300   1
   4  -2  -5 2155.84 65.0000   1
  -4   2  -5 2200.71 88.0900   1
  -4  -2  -5 2419.36 90.4500   1
  -4  -2   5 2268.48 50.9000   1
  -4   2  -5 1861.69 66.7300   1
  -4   2   5 1981.04 53.9200   1
   6 -11   0 2713.46 91.4400   1
  -6 -11   0 2426.82 76.9900   1
   6 -11   0 2225.03 69.3700   1
  -6 -11   0 2487.19 59.3300   1
  -6  11   0 2638.49 68.5800   1
   6 -11   0 2574.42 57.6300   1
  -7   9  -2 1569.98 45.6700   1
  -7   9   2 1662.89 53.2500   1
   7   9  -2 1500.17 65.6400   1
   7  -9   2 1828.39 59.4400   1
   7  -9  -2 1599.44 63.7400   1
  -7  -9  -2 1851.81 59.3600   1
  -7   9  -2 1444.10 58.2100   1
  -7  -9  -2 1554.29 58.3100   1
  -7   9   2 1656.15 47.1100   1
   7  -9   2 1533.35 49.4800   1
  -7   9   2 2051.06 54.5200   1
  -7  -9   2 1691.46 45.3800   1
   7  -9   2 1668.68 49.7200   1
   7  -9  -2 1741.56 43.7600   1
   7  -9   2 1700.34 40.3100   1
   0 -13   0 0.91000 18.3700   1
   0 -13   0 4.62000 12.8400   1
   0  13   0 6.98000 11.4000   1
  11   3   0 2273.87 71.0500   1
  11   3   0 2161.57 69.6000   1
  11  -3   0 2104.11 64.1900   1
  11  -3   0 2460.17 55.6600   1
 -11   3   0 2454.08 63.7400   1
 -11  -3   0 2496.35 56.8900   1
  -1   5  -5 1243.94 46.6300   1
   1  -5  -5 1366.53 68.2500   1
  -1  -5  -5 1460.56 70.4900   1
  -1  -5   5 1237.99 39.4300   1
   1  -5   5 1487.91 44.4000   1
  -1   5   5 1238.02 40.9200   1
   1  -5   5 1051.07 45.4100   1
  -1   5   5 1216.06 50.5400   1
   1  -5  -5 1335.28 49.7600   1
  -1  -5  -5 1280.10 52.0100   1
   1   5  -5 1369.68 53.1800   1
  -1  -5   5 970.540 54.8900   1
   1  -5   5 1103.60 66.2000   1
   1   5   5 1165.20 63.4200   1
  11  -2   1 2463.04 72.7800   1
 -11  -2  -1 2504.03 65.7800   1
 -11  -2   1 2363.05 55.4700   1
  11   2  -1 2430.02 71.9400   1
  11   2   1 2090.25 59.2300   1
  11  -2  -1 2485.40 59.7600   1
  11  -2   1 2504.72 60.9500   1
  11   2   1 2525.28 81.2700   1
  11   2  -1 2482.71 72.7700   1
  11  -2  -1 2321.63 65.5900   1
 -11   2  -1 2575.00 67.5600   1
 -11   2   1 2532.03 66.8300   1
  -1  13   0 -3.8500 11.9900   1
  -1 -13   0 8.63000 20.2500   1
   1 -13   0 9.44000 17.9400   1
  -1  13   0 40.5900 45.5100   1
   1  13   0 0.34000 12.2700   1
  -1 -13   0 6.33000 12.7500   1
   1 -13   0 -1.6500 12.8100   1
  -6  10   2 279.640 26.4500   1
   6 -10  -2 237.860 21.3800   1
  -6 -10   2 267.500 21.4900   1
  -6 -10  -2 252.470 30.8200   1
  -6  10   2 243.290 19.2600   1
   6 -10   2 177.650 16.5400   1
  -6 -10  -2 227.710 23.7500   1
   6 -10   2 214.610 23.1100   1
  -6  10  -2 148.980 17.6700   1
  -6 -10   2 294.980 32.3400   1
   6 -10   2 280.670 22.5800   1
  -6  10  -2 168.930 23.7200   1
   6 -10  -2 201.200 24.3100   1
   6 -10   2 267.460 24.6000   1
  -6  10   2 195.740 21.9600   1
   7 -10   1 5536.81 102.140   1
   7 -10  -1 5438.84 145.940   1
  -7 -10   1 5891.47 130.140   1
  -7 -10   1 5620.96 89.6500   1
  -7 -10  -1 5659.66 112.860   1
   7 -10  -1 5330.19 106.610   1
   7 -10  -1 5152.78 74.0300   1
  -7  10  -1 5063.60 98.5700   1
  -7  10   1 5190.95 92.4500   1
   4 -12  -1 2967.68 64.1900   1
  -4  12   1 2401.92 69.7600   1
   4 -12   1 2359.66 66.1000   1
   4 -12  -1 2728.80 69.7100   1
  -4 -12  -1 2717.19 94.5700   1
  -4  12  -1 2232.19 72.4400   1
  -4 -12   1 2440.06 77.8700   1
   4 -12  -1 2682.72 85.4100   1
   4 -12   1 2397.29 99.5600   1
   4 -12   1 2789.78 61.1700   1
   4 -12  -1 2470.93 98.0900   1
  -4 -12  -1 2602.12 60.8400   1
   4 -12   1 2606.98 57.5900   1
  -4 -12   1 2606.78 61.5300   1
  -3   4   5 495.920 29.1400   1
  -3  -4   5 437.920 25.9300   1
  -3  -4  -5 582.440 49.1200   1
  -3  -4   5 379.800 36.7400   1
   3  -4  -5 377.410 54.3000   1
  -3   4  -5 625.330 44.1500   1
   3   4  -5 435.640 33.7000   1
  -3   4  -5 439.260 35.6400   1
   3  -4  -5 435.160 33.2600   1
  -3  -4  -5 310.180 24.6600   1
   3  -4   5 409.030 29.4400   1
   3  -4   5 597.080 33.3200   1
   3  -4   5 487.100 27.9600   1
   3   4  -5 359.420 30.2200   1
  -3   4   5 539.570 37.1500   1
  -3  -4  -5 462.800 41.2800   1
  -9  -8   0 568.830 30.6200   1
   9  -8   0 491.900 33.6200   1
   9  -8   0 697.260 32.8400   1
   9  -8   0 547.070 36.3100   1
  -9   8   0 568.420 32.1600   1
 -10  -4  -2 473.200 32.3900   1
 -10   4  -2 526.290 40.0600   1
  10  -4   2 497.880 39.6200   1
 -10  -4  -2 570.720 54.5400   1
  10  -4  -2 505.440 37.7900   1
 -10   4   2 492.190 29.4900   1
  10  -4   2 502.230 28.1400   1
  10  -4  -2 551.550 29.6600   1
  10   4   2 467.320 37.7900   1
  10   4  -2 545.380 39.1900   1
 -10  -4   2 549.880 27.3100   1
 -10   4   2 469.970 25.5200   1
  10  -4   2 360.000 28.7700   1
   8  -9   1 9749.29 138.710   1
   8   9  -1 10007.4 171.390   1
   8  -9   1 10054.0 195.650   1
   8  -9  -1 8731.49 134.560   1
  -8   9   1 8430.70 114.930   1
  -8   9  -1 9904.85 124.070   1
   8  -9   1 9249.64 108.290   1
   8  -9  -1 9291.27 104.980   1
   8  -9   1 8366.26 116.280   1
  -8  -9   1 9201.03 114.140   1
  -8  -9  -1 9307.64 118.020   1
   8  -8   2 6532.46 115.740   1
  -8  -8  -2 6417.43 107.180   1
   8  -8   2 5679.81 106.490   1
  -8   8   2 6107.04 89.6500   1
   8  -8  -2 5956.01 107.790   1
  -8  -8   2 6342.92 87.3200   1
  -8  -8  -2 5842.93 121.720   1
  -8   8   2 6004.03 99.3400   1
   8   8  -2 5909.86 117.400   1
  -8   8   2 6222.08 129.480   1
   8  -8   2 6421.69 86.3800   1
  -2 -12  -2 4385.41 97.2800   1
   2 -12  -2 4655.86 99.3000   1
   2 -12   2 3800.47 88.9200   1
   2 -12  -2 4586.40 104.950   1
  -2 -12  -2 4335.59 85.4800   1
  -2 -12   2 4709.10 75.3000   1
  -2  12   2 4912.99 105.760   1
  -2  12   2 4196.12 131.480   1
  -2  12  -2 4817.27 148.520   1
  -2  12   2 3803.17 72.0000   1
   2 -12   2 3737.48 112.300   1
   2 -12  -2 4683.51 116.860   1
  -2 -12   2 4108.90 93.9100   1
  -2 -12  -2 4771.29 126.070   1
   8   6  -3 1363.10 56.1900   1
   8  -6  -3 1519.86 50.0800   1
  -8  -6  -3 1544.33 63.6200   1
  -8   6   3 1712.94 49.7000   1
   8  -6   3 1474.95 40.3800   1
   8  -6  -3 1489.73 39.7200   1
   8  -6  -3 1143.01 53.2800   1
  -8   6   3 1328.26 39.5300   1
  -8  -6   3 1450.07 44.7000   1
  -8  -6  -3 1701.24 61.1300   1
  -8   6   3 1304.93 69.5700   1
  -8   6  -3 1614.82 71.6300   1
   8  -6   3 1462.38 61.5500   1
   0 -11   3 339.350 33.6800   1
   0 -11  -3 287.750 28.1000   1
   0 -11   3 287.020 26.9800   1
   0  11   3 346.010 55.8400   1
   0 -11  -3 384.080 32.3700   1
   0 -11   3 444.290 25.4700   1
  -7   4   4 185.930 18.4100   1
   7   4  -4 207.250 25.5700   1
   7  -4   4 143.460 27.9800   1
  -7   4   4 252.370 23.2100   1
   7  -4   4 129.490 18.2700   1
  -7   4   4 169.420 18.9900   1
   7  -4   4 210.100 21.6200   1
  -7  -4  -4 227.340 27.4300   1
   7  -4  -4 194.460 20.5000   1
  -7  -4  -4 176.230 34.3300   1
  -7  -4   4 169.150 18.6200   1
  -7   4  -4 220.000 39.7400   1
  -7   4  -4 178.670 24.6300   1
   7  -4  -4 246.210 25.9500   1
  -7   4  -4 142.680 19.5700   1
   0  -9   4 0.46000 19.8100   1
   0  -9  -4 28.0700 24.4100   1
   0  -9   4 2.03000 18.2900   1
   0   9  -4 -3.3300 16.5200   1
   0  -9   4 -30.590 16.8300   1
   0  -9  -4 42.2000 31.7600   1
  -4 -10  -3 1447.04 54.6600   1
  -4 -10   3 1671.93 84.4700   1
  -4 -10  -3 1566.49 57.5800   1
   4 -10   3 1452.13 63.5300   1
   4 -10  -3 1456.11 70.3800   1
  -4 -10  -3 1013.95 72.9000   1
  -4  10   3 1311.76 45.3700   1
  -4 -10   3 1448.12 39.8800   1
   4 -10   3 1553.13 47.2000   1
  -4  10   3 1454.54 49.0000   1
   4 -10  -3 1413.46 40.7600   1
   4 -10   3 1787.92 45.5900   1
  -4  10   3 1940.53 62.1700   1
   4 -10  -3 1781.05 55.7300   1
   4  -3   5 2692.98 78.0700   1
  -4  -3  -5 3778.54 102.460   1
  -4  -3   5 3525.69 66.8500   1
  -4   3   5 3203.18 61.2600   1
   4  -3   5 3480.60 68.0200   1
  -4  -3   5 2837.71 73.4100   1
  -4  -3   5 2944.23 69.6600   1
   4  -3   5 3092.03 56.9600   1
  -4   3  -5 3642.39 108.860   1
  -4   3  -5 3418.46 89.2200   1
  -4  -3  -5 3327.40 84.5700   1
  -4   3  -5 2610.19 76.2200   1
   4  -3  -5 3377.03 81.4500   1
   4   3  -5 3700.88 92.2800   1
  -2  -5   5 282.550 31.8300   1
   2   5  -5 206.870 24.5700   1
   2  -5   5 285.620 22.8400   1
  -2   5   5 235.680 21.6100   1
   2  -5   5 254.090 22.4500   1
  -2  -5   5 232.060 21.4500   1
  -2  -5  -5 177.930 16.1500   1
  -2   5   5 251.610 24.9300   1
  -2  -5  -5 230.180 39.8600   1
  -2  -5  -5 284.220 30.4900   1
   2   5  -5 238.970 25.5600   1
  -5  -7  -4 333.700 35.2200   1
   5  -7  -4 298.130 20.4000   1
  -5  -7   4 287.970 22.0600   1
  -5   7   4 318.820 24.8800   1
   5  -7   4 339.800 23.9900   1
  -5  -7  -4 265.130 27.0900   1
   5  -7  -4 265.130 26.1700   1
   5   7  -4 295.030 27.1800   1
  -5   7   4 378.230 31.3000   1
   5  -7   4 241.440 19.7000   1
   1  11   3 1025.56 93.6300   1
   1 -11  -3 1319.08 51.2400   1
  -1 -11   3 1450.91 47.4000   1
  -1 -11  -3 1366.87 52.0300   1
   1 -11   3 1176.86 57.9100   1
  -1 -11   3 1208.22 55.6900   1
  -1 -11  -3 1031.24 64.9900   1
  -1 -11   3 900.850 52.2300   1
   1 -11   3 905.980 50.6200   1
  -1  11  -3 1382.35 82.5200   1
  -1  11   3 1215.55 64.9500   1
   1 -11   3 1205.74 37.2900   1
  -1 -11  -3 1213.12 50.9100   1
   1 -11  -3 1254.68 58.9900   1
  -1  -9  -4 2139.55 70.0500   1
  -1  -9   4 2020.29 85.0100   1
  -1  -9   4 1993.80 46.8400   1
  -1  -9  -4 2054.43 69.8300   1
   1  -9  -4 1952.11 68.7800   1
   1  -9  -4 2195.04 71.9500   1
  -1   9  -4 2276.58 109.700   1
  -1  -9   4 1610.23 71.9400   1
   1   9   4 1741.78 105.100   1
  -1   9   4 2256.94 72.6200   1
   1  -9   4 1974.90 47.9100   1
 -10  -6  -1 5644.72 93.9800   1
 -10   6   1 5894.82 92.3900   1
 -10   6   1 5692.03 102.270   1
  10  -6  -1 5708.15 120.620   1
  10  -6   1 4970.63 105.750   1
  10   6  -1 5412.93 105.190   1
  10   6   1 5723.13 128.070   1
 -10   6  -1 4989.93 119.280   1
  -2  13   0 2228.22 90.2800   1
  -2  13   0 1657.83 50.8100   1
   2 -13   0 2019.95 53.7100   1
  -2 -13   0 1689.38 48.8900   1
  -2 -13   0 1701.13 64.5800   1
   2 -13   0 1769.07 67.9300   1
  -6  11  -1 2199.69 72.1900   1
  -6 -11   1 2848.13 64.3200   1
  -6  11  -1 2657.11 64.8300   1
  -6 -11  -1 2779.83 78.6500   1
  -6 -11   1 3227.48 96.6700   1
   6 -11  -1 2730.52 57.9600   1
  -6  11   1 2518.79 60.0000   1
  -6 -11  -1 2453.46 59.7200   1
   6 -11   1 2723.57 76.9800   1
   6 -11  -1 3119.58 110.380   1
   6 -11  -1 2836.47 69.6400   1
   6 -11   1 2927.27 58.7400   1
   0 -13  -1 1911.97 64.3200   1
   0 -13   1 1857.76 65.4100   1
   0 -13   1 1635.38 47.6700   1
   0  13  -1 1297.56 46.7200   1
   0  13   1 1780.53 100.360   1
  -9   4   3 5803.80 84.5300   1
  -9  -4  -3 6071.31 114.620   1
   9   4  -3 5767.95 101.960   1
   9  -4   3 5432.45 113.200   1
  -9   4   3 5147.28 82.9500   1
  -9  -4  -3 6074.88 135.570   1
   9  -4   3 5448.47 77.3300   1
   9  -4  -3 5744.53 90.1300   1
  -9   4  -3 5943.17 123.060   1
   9   4   3 5158.84 106.140   1
 -11  -3   1 2183.91 59.4200   1
  11   3  -1 2325.05 69.5600   1
  11   3  -1 2013.16 67.3300   1
  11  -3   1 2102.62 69.8400   1
 -11   3   1 2390.67 66.2900   1
  11   3   1 1984.05 62.7500   1
  11  -3  -1 2656.05 62.8300   1
  11  -3   1 2328.52 57.8100   1
 -11  -3  -1 2456.87 62.2000   1
 -11   3  -1 2286.29 71.6200   1
  11   3   1 2053.96 69.9700   1
  11  -3  -1 2477.53 70.6700   1
  -6   6   4 1042.56 45.5700   1
   6  -6   4 959.830 41.4800   1
   6  -6  -4 942.640 41.5600   1
   6  -6   4 1102.01 47.2600   1
   6  -6  -4 1038.65 49.1200   1
  -6  -6  -4 964.240 56.7200   1
  -6  -6   4 1014.95 45.8200   1
  -6   6   4 1076.89 44.2000   1
  -6  -6  -4 949.650 52.4000   1
   6   6  -4 867.170 49.8900   1
  -1  13  -1 978.130 77.2700   1
  -1  13   1 916.150 68.2400   1
  -1  13  -1 609.960 37.1800   1
   1  13  -1 525.160 34.3800   1
  -1 -13   1 674.480 34.6300   1
   1 -13   1 659.840 33.2200   1
  -1 -13  -1 673.350 35.2300   1
   1 -13  -1 703.890 38.9300   1
  -1 -13  -1 933.330 52.0200   1
  -1  13   1 529.300 30.7800   1
  -1 -13   1 888.430 51.6600   1
   1 -13   1 796.580 47.3800   1
   1 -13  -1 905.210 49.6000   1
  11  -4   0 7110.43 119.600   1
 -11   4   0 6006.53 102.650   1
 -11  -4   0 6622.56 102.910   1
  11   4   0 5902.32 112.700   1
  11  -4   0 6758.27 94.9300   1
  -5   0  -5 2.99000 36.4600   1
  -5   0   5 9.24000 15.8300   1
   5   0   5 -5.2900 15.1400   1
  -5   0   5 -1.2900 10.5600   1
  -5   0  -5 -9.1200 14.6600   1
   5   0  -5 -9.0000 17.2500   1
  -5   0  -5 -7.2700 18.6500   1
  -5   0   5 2.84000 13.3900   1
  -5   0  -5 6.51000 11.1000   1
   8   0   4 12162.1 139.150   1
  -8   0  -4 11210.1 167.500   1
  -4  -8  -4 385.520 35.6900   1
   4   8  -4 181.070 21.4200   1
  -4  -8  -4 311.660 29.0400   1
   4  -8   4 353.970 24.4000   1
  -4  -8  -4 215.660 22.3000   1
   4  -8  -4 303.980 20.8800   1
  -4   8   4 293.150 22.6000   1
  -4  -8   4 177.870 22.8500   1
  -4   8   4 325.900 26.7400   1
   4   8  -4 336.620 29.3400   1
   4  -8  -4 309.770 27.6400   1
  -4  -8   4 246.930 18.8400   1
   4  -8   4 292.540 21.4700   1
   9  -8  -1 6025.00 102.480   1
  -9  -8   1 6593.22 121.580   1
  -9  -8  -1 6259.72 115.260   1
  -9   8   1 6262.21 119.840   1
   9  -8  -1 5968.70 133.340   1
   9   8  -1 6111.25 139.250   1
  -9   8  -1 6649.01 119.560   1
   9  -8   1 6101.16 133.900   1
   9  -8   1 6202.85 102.860   1
  -9  -8  -1 6342.20 156.370   1
   9  -8   1 5077.37 160.570   1
  -5 -11   2 998.390 42.3000   1
   5 -11   2 837.720 37.9700   1
   5 -11   2 797.980 46.6500   1
   5 -11   2 775.570 47.3100   1
   5 -11  -2 832.410 45.3500   1
  -5  11   2 843.570 40.9600   1
   5 -11  -2 880.660 37.7900   1
   5 -11   2 1082.31 37.9700   1
  -5  11  -2 763.910 48.7900   1
  -5 -11   2 1012.50 57.3800   1
  -5  11  -2 776.780 43.9300   1
  -5  11   2 890.310 45.6100   1
  -5 -11  -2 950.750 45.8400   1
  -5 -11  -2 864.330 46.7700   1
  -5 -12   0 215.000 26.1900   1
   5 -12   0 187.910 23.3300   1
  -5  12   0 185.790 22.5300   1
   5 -12   0 227.880 21.1500   1
  -5 -12   0 220.900 20.8800   1
  -5   1   5 167.840 18.1700   1
  -5  -1  -5 182.760 37.6000   1
   5  -1   5 200.950 19.2500   1
  -5  -1   5 148.090 15.9100   1
  -5  -1  -5 95.1600 14.4600   1
  -5  -1   5 227.630 21.6600   1
  -5   1  -5 109.020 16.3900   1
  -5  -1   5 202.620 19.6000   1
  -5   1   5 170.230 19.2600   1
  -5   1  -5 163.690 42.6800   1
   5   1   5 175.240 22.2300   1
  -5   1   5 222.460 21.7500   1
  -5  -1  -5 146.090 25.8400   1
  -5   1  -5 132.250 21.8900   1
   5  -1  -5 167.770 22.8700   1
   5   1  -5 158.890 23.1400   1
  -5   1  -5 120.180 19.7800   1
  -5  -1  -5 104.600 24.5200   1
  -8   1   4 616.120 34.3400   1
   8  -1   4 813.530 38.7200   1
   8   1   4 1204.99 63.7500   1
  -8   1   4 840.640 37.9000   1
   8  -1  -4 797.390 44.4700   1
  -8   1  -4 759.190 45.5300   1
  -8   1   4 838.700 38.0200   1
  -8  -1  -4 906.030 55.3600   1
   8   1  -4 1221.19 55.6500   1
  -8   1  -4 921.550 56.1000   1
   2 -11   3 39.2100 16.2500   1
   2 -11   3 30.3900 20.3600   1
  -2  11   3 73.5700 25.2900   1
   2 -11  -3 48.8300 26.1100   1
  -2 -11  -3 45.4500 27.8400   1
  -2  11   3 29.3200 14.2500   1
  -2 -11   3 36.8600 19.9200   1
  -2 -11  -3 37.4400 23.4100   1
  -2 -11   3 45.1800 21.3200   1
  -2 -11  -3 -2.6000 31.4800   1
   2 -11  -3 81.7000 23.4800   1
   2 -11   3 28.1000 11.9900   1
  -2  11  -3 48.3200 19.3800   1
  -2  11  -3 70.8600 37.4100   1
  -2 -11   3 29.2200 23.6100   1
  -2   9   4 120.340 16.8500   1
   2  -9  -4 117.950 18.9900   1
   2  -9   4 187.420 19.7200   1
  -2  -9  -4 112.690 30.4100   1
  -2   9   4 190.270 26.1000   1
  -2  -9   4 161.470 18.1500   1
   2   9  -4 75.4800 15.5000   1
   2  -9   4 175.390 20.1000   1
  -2   9  -4 86.5900 29.8300   1
   2   9   4 137.880 43.5700   1
  -2  -9   4 114.340 20.5200   1
   2  -9  -4 206.890 28.5400   1
  -2  -9  -4 162.930 26.0800   1
  -2  -9   4 198.990 32.4900   1
   2  -9  -4 70.2600 34.5200   1
  -3  12  -2 6570.79 170.850   1
  -3  12   2 6252.66 133.470   1
   3 -12   2 5738.18 134.120   1
  -3  12  -2 5053.79 135.530   1
   3 -12  -2 6088.80 113.330   1
  -3  12   2 5387.06 117.700   1
   3 -12   2 6170.22 106.360   1
  -3 -12   2 5831.55 110.550   1
   3 -12   2 5500.98 148.730   1
  -3 -12   2 6072.12 149.170   1
  -3 -12  -2 6219.45 135.360   1
   3 -12  -2 6188.72 137.110   1
   3 -12  -2 6321.37 144.130   1
  -9   7  -2 1835.39 70.5300   1
  -9  -7  -2 2565.21 75.2900   1
   9  -7   2 2415.30 78.4900   1
   9  -7   2 2004.87 68.0600   1
  -9  -7   2 2369.86 60.2100   1
   9   7  -2 2744.06 87.7400   1
  -9   7  -2 2458.66 96.2100   1
  -9   7   2 2211.18 57.2900   1
  -9   7   2 2101.38 94.0800   1
  -9  -7  -2 2561.81 95.8200   1
   9  -7  -2 2480.89 70.1000   1
   9  -7  -2 1903.58 63.1800   1
   9  -7   2 2603.65 59.5600   1
  -9   7   2 2452.75 65.7500   1
   0   6   5 18.0800 19.3900   1
   0  -6   5 1.48000 14.2600   1
   0  -6  -5 12.6900 21.9700   1
   0   6  -5 5.69000 15.5900   1
   0  -6   5 11.0800 14.6500   1
   0   6   5 -15.460 17.2800   1
   0  -6   5 30.4600 16.6900   1
   0  -6  -5 45.9400 35.5700   1
   0   6  -5 -3.1900 35.6900   1
   2 -13   1 5460.38 106.200   1
  -2 -13  -1 5439.03 105.640   1
   2 -13  -1 5030.67 108.980   1
  -2  13   1 5739.73 170.600   1
  -2 -13   1 6071.71 144.220   1
  -2 -13  -1 4859.36 112.670   1
   2 -13   1 5481.05 150.360   1
   2 -13  -1 5744.61 126.350   1
  -2  13  -1 5537.10 160.500   1
  -2 -13   1 5902.51 110.080   1
   3   5  -5 4777.11 109.500   1
   3  -5  -5 4703.69 104.530   1
  -3  -5   5 3939.94 112.140   1
  -3  -5  -5 4655.41 122.480   1
  -3   5   5 4694.26 102.070   1
  -3   5   5 4625.64 91.6600   1
  -3  -5  -5 4876.79 119.740   1
   3  -5   5 4550.21 85.8000   1
  -6   9   3 4830.83 115.240   1
   6   9  -3 4759.68 113.030   1
  -6   9   3 5445.31 109.390   1
  -6  -9  -3 5562.26 132.310   1
  -6  -9  -3 5000.24 130.440   1
   6  -9   3 5735.48 112.250   1
  -6  -9   3 4929.74 95.0800   1
   6  -9  -3 5197.28 114.780   1
   6  -9  -3 5080.21 94.1400   1
  -6   9   3 5233.63 99.2800   1
   6  -9   3 5231.18 106.130   1
  10  -5   2 12386.2 222.470   1
  10  -5  -2 11696.8 211.030   1
  10   5  -2 13533.8 230.270   1
 -10   5  -2 12816.1 231.430   1
 -10  -5  -2 12600.0 202.820   1
 -10   5   2 12517.0 188.920   1
 -10  -5   2 12951.0 188.620   1
  10  -5  -2 12627.9 182.900   1
  10  -5   2 12971.7 182.920   1
 -10  -5  -2 11925.9 221.500   1
  -5  -2  -5 720.230 44.5200   1
  -5   2  -5 902.520 61.9400   1
  -5  -2  -5 895.140 57.7300   1
  -5  -2   5 924.940 43.9700   1
  -5   2   5 726.290 33.6200   1
   5  -2  -5 798.270 41.7900   1
  -5  -2   5 578.030 34.2900   1
   5  -2   5 750.450 37.2700   1
  -5  -2  -5 554.780 33.4600   1
  -5  -2   5 645.300 39.2200   1
  -5   2   5 792.690 39.8200   1
   5  -2   5 616.940 43.1100   1
  -5   2  -5 687.410 46.4600   1
   5   2   5 688.750 42.4900   1
   5   2  -5 734.260 44.3800   1
  -5   2  -5 600.390 47.8200   1
  -8  -2  -4 1484.28 63.9500   1
  -8  -2  -4 1614.27 59.6100   1
  -8   2  -4 1635.98 68.6100   1
   8  -2  -4 1653.26 55.7100   1
   8   2  -4 1546.86 60.7400   1
  -8   2   4 1675.86 54.1200   1
  -8   2   4 1179.17 47.4300   1
   8  -2   4 1252.91 42.6300   1
  -8   2  -4 1240.83 54.4600   1
   8   2   4 1219.74 48.8900   1
   8  -2  -4 1378.88 50.2800   1
  -8   2   4 1530.97 47.9600   1
  -8  -2   4 1669.05 51.5700   1
   4  -4  -5 4235.80 136.360   1
   4  -4  -5 5787.85 128.470   1
   4   4  -5 5485.61 123.310   1
  -4  -4  -5 5112.25 120.370   1
   4  -4   5 5123.14 99.0700   1
  -4  -4  -5 6011.93 157.170   1
  -4  -4   5 5657.44 117.590   1
  -4   4   5 5121.65 99.8700   1
   4  -4   5 5821.30 131.310   1
   4  -4   5 5249.16 94.1100   1
   7  -8   3 8542.14 163.190   1
  -7   8   3 7220.60 165.680   1
  -7   8   3 8322.94 142.030   1
   7  -8   3 6942.05 111.210   1
  -7   8  -3 7687.42 161.820   1
   7   8  -3 7741.18 154.070   1
   7  -8  -3 7965.35 128.350   1
  -7  -8  -3 7223.69 156.790   1
   7  -8   3 8385.09 150.630   1
  -7  -8   3 7567.12 123.900   1
  -7   8   3 7737.03 130.430   1
   7  -8  -3 8274.86 149.430   1
  -7  -8  -3 8050.50 151.020   1
  -1   6   5 2215.29 63.3300   1
   1  -6  -5 2483.80 95.4500   1
  -1  -6  -5 2402.45 93.0400   1
  -1  -6   5 2159.37 58.1600   1
   1  -6   5 2066.38 54.6400   1
   1  -6   5 2060.80 59.0400   1
  -1   6   5 1931.38 63.9200   1
   1   6  -5 1710.09 70.1400   1
  -1   6  -5 1795.45 100.790   1
  -1   6  -5 2520.36 113.130   1
   1   6  -5 1949.82 63.3800   1
   1  -6  -5 2324.91 74.3900   1
  -1  -6   5 1506.46 74.0100   1
  -1  -6  -5 2337.42 79.2800   1
   1   6   5 2052.52 73.9600   1
  -3  13   0 5017.93 149.890   1
   3 -13   0 4665.39 99.2700   1
  -3 -13   0 5027.44 97.6400   1
  -3 -13   0 4839.60 122.530   1
   3 -13   0 4930.80 120.290   1
  -3  13   0 4019.98 102.800   1
  10  -7   0 2761.93 60.6200   1
 -10   7   0 2920.15 68.6300   1
 -10  -7   0 2518.00 61.3800   1
  10  -7   0 3196.80 89.8900   1
 -10   7   0 2478.14 83.8200   1
  10   7   0 2610.42 89.0300   1
   7  -5  -4 534.280 29.0100   1
  -7   5   4 359.050 26.4500   1
  -7   5   4 506.860 30.6200   1
   7  -5   4 326.310 30.0200   1
   7   5  -4 524.730 35.6200   1
   7  -5  -4 594.370 37.0600   1
  -7   5  -4 440.250 40.0300   1
  -7   5  -4 450.670 35.9200   1
  -7  -5  -4 538.130 38.7600   1
   7  -5   4 457.610 26.1400   1
  -7   5  -4 507.970 47.4700   1
  -7  -5  -4 616.870 41.0600   1
  -7  -5   4 546.110 29.0200   1
  -7   5   4 485.370 26.1500   1
  11  -4   1 200.230 20.5900   1
  11  -4   1 213.810 26.4600   1
  11   4  -1 159.590 25.4600   1
  11   4   1 149.820 23.1500   1
  11  -4  -1 264.190 23.9400   1
  11   4   1 210.430 39.5100   1
 -11  -4   1 208.950 20.4200   1
 -11   4   1 189.300 19.9100   1
 -11  -4  -1 186.530 21.0200   1
 -11   4  -1 231.130 25.2700   1
  11  -4  -1 154.490 22.9500   1
  -5 -12  -1 272.690 26.9200   1
   5 -12  -1 325.430 31.7400   1
  -5 -12   1 335.920 33.3000   1
  -5 -12   1 233.900 21.9800   1
   5 -12   1 185.640 28.8400   1
   5 -12   1 236.760 20.9300   1
  -5 -12  -1 177.370 20.1100   1
   5 -12  -1 349.550 30.5200   1
   5 -12   1 257.220 25.3800   1
  -5  12   1 258.840 25.9300   1
  -5  12  -1 242.920 23.8900   1
   5 -12   1 332.080 25.1700   1
   5 -12  -1 297.410 23.7000   1
  11   0   2 20.9100 19.8400   1
  11   0   2 9.12000 21.8300   1
  11   0  -2 6.84000 20.9800   1
 -11   0   2 0.54000 13.9200   1
 -11   0  -2 9.52000 18.1400   1
  11   0  -2 1.02000 19.9100   1
  -9   5  -3 403.480 38.3700   1
  -9   5   3 372.980 43.1300   1
   9  -5  -3 401.810 30.5100   1
  -9   5  -3 222.730 25.1300   1
  -9  -5  -3 337.810 32.1600   1
   9  -5   3 380.600 23.9500   1
   9  -5  -3 413.260 26.2900   1
  -9   5   3 396.630 22.7600   1
  -9  -5   3 402.640 23.8300   1
  -9   5   3 497.260 30.9800   1
   9  -5   3 276.890 27.8700   1
   9  -5   3 385.010 31.7000   1
   9   5  -3 356.200 29.9800   1
  -9  -5  -3 429.010 32.1800   1
  10   0  -3 3323.05 84.8400   1
 -10   0  -3 3204.89 95.1900   1
 -10   0   3 3082.60 70.2300   1
  10   0  -3 3054.24 80.3200   1
 -10   0  -3 2982.93 102.650   1
  10   0   3 3125.31 79.4100   1
 -11  -1  -2 421.820 30.3300   1
 -11   1  -2 453.280 31.8900   1
  11  -1  -2 474.020 31.4400   1
  11   1  -2 384.020 29.1300   1
  11  -1   2 412.890 36.9900   1
  11   1   2 376.550 32.0100   1
  11  -1   2 456.900 28.9500   1
  11   1   2 437.850 30.6600   1
  11   1  -2 459.250 33.6500   1
 -11   1   2 454.380 26.2200   1
 -11  -1   2 430.380 23.9000   1
  11  -1  -2 440.170 32.4400   1
  -3  11  -3 4123.44 111.920   1
  -3  11  -3 5490.41 143.210   1
   3 -11   3 4213.02 117.150   1
   3 -11   3 4507.24 139.050   1
   3 -11  -3 5120.83 117.880   1
  -3 -11  -3 4714.38 108.730   1
  -3 -11  -3 4211.26 139.200   1
  -3  11   3 4611.23 107.620   1
   3 -11  -3 4646.16 129.900   1
   3 -11   3 4261.25 82.2000   1
  -3 -11   3 4566.12 90.3400   1
  -3 -11  -3 4871.32 107.280   1
  -3 -11   3 5447.68 144.090   1
   3 -11  -3 4710.63 95.5800   1
   3 -11   3 5319.73 101.560   1
   2  -6  -5 787.520 58.8400   1
  -2  -6  -5 724.190 70.2100   1
  -2  -6   5 678.860 32.6100   1
   2  -6   5 688.000 33.4900   1
  -2  -6  -5 683.820 45.4600   1
  -2  -6  -5 439.740 27.7300   1
  -2  -6   5 565.570 44.3900   1
   2  -6  -5 668.160 39.2600   1
   2   6  -5 686.010 40.6500   1
   2   6  -5 490.010 34.9400   1
  -2   6   5 700.330 41.7500   1
  -2   6   5 699.110 35.9200   1
   2  -6   5 705.060 35.3200   1
  -3  -9  -4 279.160 27.5700   1
  -3   9   4 321.500 23.3800   1
   3  -9   4 339.210 22.4500   1
  -3  -9   4 331.830 23.1000   1
  -3  -9  -4 391.370 35.8800   1
   3  -9  -4 373.940 29.6800   1
   3  -9  -4 311.100 39.7200   1
  -3   9   4 316.320 25.7800   1
   3   9  -4 248.810 24.5900   1
   3   9  -4 359.650 31.4100   1
  -3  -9   4 239.020 28.4100   1
  -3  -9  -4 406.580 32.3400   1
   3  -9   4 405.730 25.6700   1
   3  -9  -4 325.990 21.9800   1
  -5 -10  -3 974.530 51.8300   1
   5 -10   3 861.360 48.1600   1
  -5  10   3 891.590 41.7900   1
  -5 -10  -3 688.920 63.6900   1
  -5 -10  -3 949.390 53.7900   1
   5 -10  -3 1081.32 48.3400   1
   5  10  -3 1053.54 58.4300   1
  -5  10   3 935.030 44.9600   1
   5 -10   3 1104.78 37.0300   1
   5 -10  -3 905.790 37.9900   1
   5 -10   3 901.030 38.8500   1
  -5 -10   3 934.350 38.5100   1
  -5  10   3 764.760 40.7600   1
  -8 -10   0 77.1700 16.7700   1
   8 -10   0 267.040 27.9200   1
  -8 -10   0 79.3700 24.9000   1
   8 -10   0 333.520 40.5600   1
  -8  10   0 275.330 34.8100   1
   8 -10   0 236.400 38.1900   1
 -10   1  -3 405.220 37.0900   1
 -10  -1  -3 491.310 41.1000   1
  10  -1  -3 407.800 31.2300   1
  10   1  -3 528.680 35.8400   1
  10  -1   3 418.300 29.6000   1
  10  -1  -3 415.590 32.6200   1
 -10  -1   3 412.190 24.7300   1
 -10   1   3 386.770 23.4600   1
 -10  -1  -3 396.240 34.1100   1
 -10   1  -3 382.110 34.7700   1
  10   1   3 361.360 31.2400   1
 -11   5   0 1581.95 58.7100   1
 -11  -5   0 1499.89 48.2900   1
  11  -5   0 1717.64 50.1900   1
  11   5   0 1396.69 59.3400   1
  11  -5   0 1531.18 58.0100   1
   8  -7   3 15108.0 249.580   1
  -8   7   3 15390.4 218.350   1
   8  -7   3 13931.0 196.110   1
  -8  -7  -3 14972.1 240.330   1
  -8   7   3 15696.4 220.940   1
   8  -7   3 13222.8 214.100   1
  -8  -7  -3 15229.9 252.080   1
   8  -7  -3 14702.6 201.080   1
  -8  -7   3 14397.9 197.970   1
  -8   7  -3 16080.7 280.430   1
  -8   7   3 13340.5 251.520   1
   5   3  -5 1358.20 56.6200   1
  -5   3   5 1377.01 45.8300   1
   5  -3   5 1242.23 41.8800   1
  -5  -3   5 1114.17 44.9600   1
  -5   3   5 1514.76 47.3200   1
  -5  -3   5 1408.49 45.3200   1
   5  -3   5 1079.24 51.8000   1
  -5   3  -5 1382.24 63.2600   1
  -5  -3  -5 1620.66 68.0600   1
  -5   3  -5 1669.43 80.0600   1
   5  -3  -5 1505.98 52.6800   1
  -5   3  -5 1014.07 54.8600   1
  -5  -3  -5 1440.08 59.4900   1
   5   3   5 877.540 81.4300   1
  -8   3   4 1896.66 53.1100   1
   8  -3  -4 2182.40 68.5600   1
  -8   3  -4 1770.03 63.9400   1
  -8  -3  -4 2183.45 77.5000   1
   8  -3  -4 2053.53 62.4000   1
  -8   3  -4 2263.23 85.4200   1
   8  -3   4 2006.29 54.8000   1
  -8  -3  -4 2288.49 77.9400   1
   8   3  -4 1851.27 66.3500   1
  -8   3   4 1591.05 54.0300   1
  -8   3  -4 1472.31 64.5500   1
  -8  -3   4 2217.53 56.7100   1
  -8   3   4 2151.54 54.8300   1
   8   3   4 1729.07 61.8100   1
   7 -11   0 8651.44 138.090   1
  -7 -11   0 7941.69 131.040   1
   7 -11   0 7334.68 147.520   1
  -7 -11   0 9169.79 198.830   1
   7 -11   0 9111.76 213.820   1
  -7  11   0 8285.44 144.130   1
  -3  13   1 2381.31 74.3800   1
   3 -13  -1 2697.56 83.6700   1
  -3 -13   1 2390.00 63.8800   1
   3 -13  -1 2358.00 74.6100   1
  -3 -13  -1 2587.77 70.8900   1
   3 -13   1 2497.78 63.4500   1
  -3  13  -1 2379.93 77.8800   1
  -3  13  -1 2392.25 93.1800   1
   3 -13   1 1928.38 70.8700   1
   3 -13  -1 2305.70 72.2800   1
  -3 -13  -1 2269.17 73.1600   1
  -3 -13   1 2458.11 99.4500   1
  10  -7  -1 1444.52 52.6600   1
  10  -7   1 1749.33 63.4400   1
  10   7  -1 1468.68 69.8100   1
 -10   7   1 1670.15 49.4500   1
  10  -7   1 1554.88 46.5600   1
  10  -7  -1 1925.19 54.0300   1
 -10  -7   1 1752.70 51.4800   1
 -10  -7  -1 1787.38 56.7000   1
 -10   7   1 1711.55 56.1800   1
 -10   7  -1 1623.03 77.8800   1
 -10  -7  -1 1836.13 84.5700   1
  11   2   2 428.060 32.8900   1
  11   2  -2 438.530 34.8600   1
 -11   2  -2 428.110 31.9400   1
  11  -2  -2 482.680 32.8600   1
  11   2  -2 394.440 30.3900   1
  11  -2   2 393.260 30.8500   1
  11  -2  -2 437.030 27.6700   1
  11   2   2 437.100 38.0600   1
  11  -2   2 442.180 29.5100   1
 -11  -2   2 510.670 29.3300   1
 -11   2   2 466.030 24.8100   1
 -11   2   2 437.560 28.8200   1
 -11  -2  -2 440.200 32.6100   1
   7 -10   2 386.810 31.6100   1
  -7  10  -2 249.300 29.8200   1
  -7 -10  -2 362.010 33.1700   1
   7 -10  -2 410.810 31.8200   1
  -7  10  -2 374.970 28.7100   1
   7 -10   2 435.750 28.9600   1
  -7 -10  -2 495.250 32.9300   1
  -7 -10   2 448.640 28.1800   1
   7 -10   2 435.720 30.4900   1
   7 -10  -2 380.890 22.8300   1
   7 -10   2 409.910 25.7700   1
  -7  10   2 411.320 29.1300   1
   7  10  -2 379.640 36.8600   1
 -10   2   3 2574.16 60.3900   1
  10  -2  -3 2460.55 75.2000   1
  10  -2  -3 2256.85 66.1200   1
  10  -2   3 2489.37 94.9600   1
 -10   2   3 2439.36 60.4000   1
  10  -2   3 2599.70 62.8200   1
  10   2   3 2217.29 71.4000   1
 -10  -2  -3 2559.32 96.2300   1
  10   2  -3 2887.86 80.9000   1
 -10  -2   3 2695.59 62.9700   1
 -10  -2  -3 2430.42 70.9900   1
 -10   2  -3 2588.84 83.2800   1
  -4 -12  -2 614.790 43.1800   1
   4 -12  -2 630.350 37.6000   1
   4 -12   2 595.510 35.0500   1
  -4  12   2 611.610 36.1800   1
  -4  12   2 699.810 36.0200   1
  -4  12   2 601.080 40.7400   1
   4 -12  -2 626.030 31.7300   1
   4 -12   2 594.790 43.6200   1
   4 -12   2 665.010 32.8600   1
   4 -12  -2 633.740 45.5600   1
   4 -12   2 714.910 37.2000   1
  -4  12  -2 529.760 43.6000   1
  -4 -12   2 712.660 35.1300   1
  -4 -12  -2 740.540 41.9900   1
  -4  12  -2 505.140 31.8700   1
   4 -12  -2 693.820 56.1000   1
  -4 -12   2 618.820 43.7400   1
  -9   9   0 543.720 29.6200   1
   9  -9   0 637.290 31.3100   1
   9  -9   0 466.120 33.3000   1
   9  -9   0 576.040 34.9200   1
  -9  -9   0 629.800 49.7100   1
  -9  -9   0 569.920 30.6400   1
  -6  -7  -4 349.180 33.8200   1
  -6  -7   4 353.230 24.1400   1
  -6   7   4 415.240 26.8500   1
   6  -7  -4 257.750 18.9600   1
  -6  -7  -4 337.170 30.4500   1
   6  -7  -4 319.340 30.5000   1
   6  -7   4 380.180 25.8700   1
   6   7  -4 342.120 29.1400   1
  -6   7   4 426.320 28.5200   1
   6  -7   4 320.740 21.5800   1
  -8   9   2 1685.30 80.1100   1
   8  -9   2 1377.65 54.2500   1
  -8  -9  -2 1500.10 55.1900   1
  -8  -9  -2 1438.85 65.1500   1
   8  -9  -2 1590.30 60.1000   1
   8  -9   2 1391.30 61.0600   1
   8   9  -2 1355.26 63.4200   1
  -8   9   2 1797.28 60.1100   1
   8  -9   2 1421.26 44.3500   1
   8  -9  -2 1583.81 46.3800   1
   8  -9   2 1399.75 46.7600   1
  -8  -9   2 1565.84 45.1700   1
   5  -8  -4 2749.36 67.1700   1
  -5  -8  -4 3192.11 97.5400   1
   5  -8   4 3081.54 68.2400   1
  -5  -8  -4 2971.53 84.8600   1
   5  -8  -4 2962.45 86.9000   1
  -5  -8   4 3145.41 71.0800   1
  -5   8   4 2869.28 71.8000   1
  -5   8   4 3340.36 79.6300   1
   5  -8   4 2962.85 73.1100   1
  -4  -5   5 3793.49 84.4400   1
   4  -5  -5 2900.02 123.250   1
  -4  -5  -5 3811.40 100.560   1
  -4   5   5 3610.69 87.3900   1
   4  -5   5 3580.04 75.7600   1
   4  -5   5 3583.20 79.5400   1
   4   5  -5 3254.34 88.4600   1
  -4  -5  -5 4089.46 113.250   1
  -4   5   5 3802.59 81.6900   1
   4  -5  -5 3476.36 93.1300   1
   4   5   5 2172.22 168.930   1
   4 -13   0 3907.43 103.760   1
  -4 -13   0 3417.94 74.3700   1
  -4  13   0 3545.62 89.7900   1
   4 -13   0 3104.47 83.7600   1
  -4 -13   0 4021.26 125.700   1
   4 -13   0 3644.60 79.9600   1
  -8  10   1 496.010 30.2900   1
  -8 -10  -1 536.200 31.6500   1
  -8 -10   1 522.720 29.6000   1
   8 -10   1 515.390 30.6200   1
   8 -10   1 494.190 33.0200   1
   8 -10  -1 646.980 30.6300   1
   8 -10   1 523.990 29.8200   1
  -8  10  -1 545.510 30.5100   1
   8 -10   1 536.510 34.0100   1
   8 -10  -1 508.540 35.0600   1
  -8 -10  -1 563.970 39.9400   1
  -8 -10   1 657.980 53.6600   1
   8 -10   1 543.470 47.4700   1
  12   0   0 535.890 33.8000   1
  12   0   0 445.680 31.6200   1
 -12   0   0 305.190 33.1600   1
 -12   0   0 536.110 30.4300   1
   6   0  -5 652.910 37.4100   1
  -6   0  -5 449.260 35.4100   1
  -6   0  -5 465.430 35.7400   1
  -6   0  -5 625.320 47.2300   1
   6   0   5 570.900 32.0200   1
  -6   0   5 478.760 28.6000   1
  -6   0   5 645.490 33.9500   1
   6   0   5 360.500 46.2100   1
  11  -5  -1 7242.53 155.110   1
  11  -5   1 6122.25 127.470   1
  11   5  -1 6059.49 131.140   1
  11   5   1 6341.34 159.940   1
  11  -5  -1 6484.79 110.280   1
 -11  -5   1 5841.33 108.130   1
 -11  -5  -1 6160.64 120.260   1
 -11   5   1 5908.83 110.700   1
 -11   5  -1 6425.11 142.080   1
  -3  -6  -5 1579.66 67.5500   1
   3  -6   5 1280.28 40.3000   1
   3  -6   5 1519.54 47.5800   1
  -3  -6  -5 1286.99 54.5200   1
  -3  -6   5 1084.07 56.8500   1
   3  -6  -5 1494.85 56.4100   1
   3   6  -5 1328.86 55.6500   1
   3   6   5 832.080 92.7300   1
   3   6  -5 1044.81 50.5400   1
  -3   6   5 1549.26 54.9600   1
  -3   6   5 1425.95 49.3200   1
  10  -6  -2 5088.43 110.710   1
  10  -6   2 5399.38 129.450   1
  10   6  -2 5023.35 122.960   1
 -10   6  -2 4904.12 143.160   1
 -10  -6  -2 4573.41 100.190   1
 -10   6   2 4761.77 115.710   1
 -10   6   2 5081.08 102.770   1
 -10  -6   2 4091.38 80.7600   1
  10  -6  -2 5036.41 97.4200   1
 -10  -6  -2 5081.68 136.290   1
 -10   6   2 5057.59 100.080   1
   6 -11  -2 1615.21 49.1700   1
  -6 -11   2 1372.40 74.3500   1
  -6 -11  -2 1585.46 60.7100   1
  -6  11  -2 1271.29 66.1300   1
   6 -11  -2 1635.36 55.6400   1
   6 -11   2 1554.42 58.8300   1
  -6  11  -2 1337.38 47.6200   1
   6 -11   2 1669.02 48.1000   1
   6 -11   2 1367.84 44.7800   1
  -6 -11   2 1461.59 44.8700   1
  -6 -11  -2 1534.44 55.4900   1
   6 -11   2 1393.71 55.9000   1
  -6  11   2 1400.03 51.1300   1
  -7 -11   1 806.590 58.4800   1
   7 -11  -1 709.650 33.5300   1
   7 -11   1 752.560 34.3500   1
  -7  11  -1 656.050 35.9600   1
  -7  11   1 638.740 37.7200   1
   7 -11   1 690.880 41.2100   1
   7 -11  -1 628.040 42.1300   1
  -7 -11  -1 793.120 40.9200   1
  -7 -11   1 812.290 38.8500   1
  -7 -11  -1 568.590 37.0000   1
   7 -11  -1 685.490 61.9700   1
   6 -12   0 1713.47 76.4300   1
  -6 -12   0 1700.46 73.3600   1
   6 -12   0 1522.00 58.4600   1
  -6  12   0 1982.01 63.6200   1
   6 -12   0 1421.50 42.4100   1
  -6 -12   0 1527.87 45.3200   1
   0 -10   4 330.530 37.7300   1
   0 -10  -4 371.670 37.7000   1
   0 -10  -4 278.260 27.4300   1
   0  10  -4 271.900 28.0000   1
   0 -10   4 351.800 22.3600   1
 -12  -1   0 60.6900 16.2700   1
 -12   1   0 45.8400 15.9700   1
  12  -1   0 86.7700 21.5300   1
 -12   1   0 39.7400 19.5200   1
  12   1   0 68.1500 29.6800   1
  12  -1   0 60.1600 21.1800   1
  12   1   0 50.2400 25.7900   1
   0  13   2 -56.680 43.7700   1
   0 -13   2 14.8500 22.7600   1
   0  13   2 -13.300 10.0800   1
   0 -13  -2 -15.860 25.0200   1
   0 -13  -2 -6.2000 27.1300   1
   0 -13  -2 15.6500 19.9200   1
   0 -13   2 50.5900 24.0400   1
   0 -13   2 1.82000 27.6000   1
   6  -1   5 931.170 42.9400   1
   6  -1   5 521.560 61.2800   1
  -6   1   5 669.840 36.4900   1
  -6  -1   5 797.630 42.4300   1
  -6   1   5 850.020 41.5300   1
  -6   1  -5 967.320 60.4900   1
  -6   1  -5 704.630 47.4200   1
   6   1  -5 860.440 48.9200   1
  -6  -1  -5 1079.18 58.4000   1
  -6  -1   5 947.050 41.2300   1
  -6   1   5 1061.78 42.2200   1
   6   1   5 816.360 45.5300   1
   6  -1  -5 903.690 44.6900   1
  -6  -1   5 662.770 36.2100   1
  -6   1  -5 737.290 47.9700   1
  -6  -1  -5 750.550 47.4400   1
  11   3   2 3567.08 98.2300   1
  11  -3  -2 3298.53 84.9800   1
  11   3   2 3336.32 105.280   1
  11  -3   2 3541.67 78.1300   1
  11  -3  -2 3685.44 83.1600   1
 -11  -3   2 3565.62 76.7700   1
 -11   3   2 3527.10 75.5000   1
 -11   3   2 3695.01 93.2100   1
 -11  -3  -2 4019.27 98.1300   1
 -11   3  -2 3731.06 104.410   1
  11   3  -2 3548.98 90.5800   1
  11  -3   2 3324.35 92.5800   1
   0  -7  -5 1081.80 55.5100   1
   0  -7  -5 736.930 44.0100   1
   0  -7   5 1115.95 43.5900   1
   0   7  -5 1049.97 51.1300   1
   0   7   5 1034.68 49.6500   1
   0  -7  -5 825.690 43.1900   1
   0  -7   5 867.990 53.3500   1
   0  -7  -5 1176.50 52.5500   1
   0   7  -5 914.270 90.4700   1
   0  -7   5 1135.79 39.3000   1
  -5  -4   5 400.470 25.0300   1
  -5   4   5 415.170 25.4700   1
  -5  -4  -5 463.360 42.5600   1
  -5  -4  -5 425.440 33.1500   1
   5  -4  -5 611.920 39.7100   1
   5   4  -5 520.450 35.9800   1
  -5  -4   5 348.660 29.3500   1
   5  -4   5 480.690 26.9800   1
   5  -4   5 494.640 30.2500   1
  -5   4  -5 455.070 53.3600   1
   5  -4   5 518.230 44.9500   1
  -5   4   5 563.870 35.7500   1
  -8   4   4 569.560 29.7700   1
   8  -4  -4 589.360 32.7800   1
  -8   4  -4 377.690 32.2000   1
   8   4  -4 521.780 36.1000   1
  -8   4   4 623.550 33.2900   1
  -8   4   4 502.120 31.8400   1
   8  -4   4 526.210 26.5800   1
   8  -4  -4 612.540 35.7800   1
  -8  -4  -4 564.250 40.2500   1
  -8   4  -4 541.800 37.7300   1
  -8   4  -4 620.240 49.0200   1
  -8  -4  -4 586.140 42.5800   1
  -8  -4   4 608.790 30.7400   1
  -7   6   4 1816.94 51.1700   1
   7  -6   4 1823.96 47.8400   1
  -7  -6  -4 1873.09 71.7800   1
   7  -6  -4 1920.47 62.4000   1
  -7   6  -4 1693.93 75.3300   1
  -7  -6   4 1694.96 49.9200   1
  -7  -6  -4 1995.96 76.5100   1
  -7   6   4 1853.39 54.4000   1
   7   6  -4 1597.79 63.4000   1
   7  -6  -4 2156.19 63.6500   1
  -1 -10   4 177.960 25.4400   1
  -1  10  -4 275.880 45.9700   1
   1  10   4 141.370 35.8900   1
  -1 -10   4 112.050 20.4100   1
   1 -10  -4 238.610 34.6600   1
  -1 -10  -4 172.120 29.7000   1
  -1 -10   4 181.070 19.5300   1
   1 -10  -4 194.010 25.1700   1
   1 -10   4 206.470 20.6400   1
  -1 -10  -4 206.940 28.6500   1
   1  10  -4 109.140 16.8100   1
  -1  10   4 196.970 24.6300   1
 -10  -3  -3 7029.16 159.570   1
  10  -3   3 6739.50 155.720   1
  10  -3   3 6680.39 120.960   1
  10  -3  -3 6257.48 116.200   1
 -10   3   3 6819.76 119.060   1
 -10   3   3 6979.20 124.230   1
 -10  -3  -3 7214.97 145.790   1
 -10  -3   3 6723.19 117.770   1
 -10   3  -3 6955.85 151.140   1
  10   3  -3 6319.25 133.800   1
  10  -3  -3 6887.64 129.610   1
  10   3   3 7323.66 151.430   1
  -1  13   2 4635.50 161.000   1
  -1  13  -2 3527.02 93.5800   1
   1 -13   2 3983.74 81.9700   1
  -1 -13   2 4655.85 91.5400   1
  -1 -13  -2 4644.57 107.900   1
   1 -13  -2 4538.12 110.670   1
   1  13   2 3768.52 159.050   1
   1 -13  -2 4049.53 100.680   1
   1 -13   2 4407.56 119.910   1
  -1 -13  -2 3949.14 93.3800   1
  -1 -13   2 4491.25 130.250   1
   1 -13  -2 4817.14 135.440   1
  -1 -13  -2 4092.59 128.620   1
  -1  13  -2 5306.73 190.640   1
  -1   7   5 232.870 22.5800   1
   1  -7   5 273.050 23.4700   1
  -1  -7  -5 154.490 17.1700   1
   1  -7  -5 265.090 41.7300   1
  -1   7   5 205.850 24.1800   1
   1   7  -5 156.430 20.3300   1
   1   7   5 172.000 25.3400   1
  -1   7  -5 176.630 32.0700   1
   1   7  -5 219.730 23.4000   1
   1  -7  -5 281.670 31.6900   1
   1  -7  -5 181.580 16.6800   1
   1  -7   5 242.740 20.8100   1
   1  -7  -5 180.480 21.2700   1
  -1  -7   5 248.400 21.6600   1
  -1  -7  -5 255.850 42.6600   1
  -1  -7  -5 214.960 28.3700   1
  -1  -7   5 172.500 28.3600   1
   4 -11   3 687.760 33.8800   1
  -4  11  -3 556.900 45.6600   1
   4 -11   3 591.110 39.3000   1
   4 -11   3 681.600 46.2700   1
   4 -11  -3 529.380 47.3500   1
   4 -11   3 466.930 39.6900   1
  -4 -11  -3 606.410 39.1000   1
   4 -11  -3 600.460 35.9300   1
  -4 -11  -3 439.910 44.1800   1
  -4 -11   3 542.730 46.7300   1
  -4  11   3 513.800 31.1200   1
  -4 -11   3 554.090 29.1400   1
   4 -11   3 634.240 36.3700   1
  -4 -11  -3 679.800 45.8700   1
  -4  11   3 562.490 33.0400   1
   4 -11  -3 569.090 28.2900   1
  -4  11   3 684.230 40.7400   1
   4  -9  -4 1793.95 61.3400   1
  -4  -9  -4 1763.82 67.5100   1
   4  -9  -4 1475.66 45.3800   1
   4   9  -4 1748.71 63.8100   1
  -4   9   4 1756.66 57.1000   1
   4  -9   4 1805.31 48.1500   1
  -4   9   4 1834.46 63.7900   1
   4  -9   4 1703.38 52.6800   1
  -4  -9   4 1752.29 50.6800   1
  -4  -9  -4 1936.68 71.4300   1
  -9  -9  -1 599.190 45.0000   1
   9  -9   1 430.970 29.4200   1
   9  -9  -1 559.560 37.0400   1
   9  -9  -1 490.850 35.3700   1
   9  -9   1 419.920 45.0900   1
   9  -9  -1 566.900 28.6800   1
   9  -9   1 566.730 31.5200   1
   9  -9   1 453.370 36.7800   1
  -9   9  -1 604.340 33.2700   1
   9   9  -1 465.790 35.9800   1
  -9   9   1 550.140 31.4300   1
  -9  -9   1 527.130 33.0200   1
  -9  -9  -1 531.630 32.1000   1
  -9   8   2 26.8900 18.4000   1
   9  -8  -2 3.63000 14.5000   1
  -9  -8   2 -3.9200 13.6900   1
  -9   8   2 9.96000 13.8900   1
  -9  -8  -2 25.1000 19.5600   1
  -9   8   2 7.62000 22.3800   1
  -9  -8  -2 19.8600 24.4400   1
   9  -8  -2 11.2600 20.4700   1
  -9   8  -2 15.6600 19.4800   1
   9  -8   2 19.9400 18.4500   1
   9  -8   2 12.0000 10.2300   1
   9   8  -2 -6.0300 21.9400   1
   9  -8   2 -15.080 15.5300   1
  12   2   0 2092.51 71.3900   1
  12  -2   0 2276.93 64.9400   1
  12   2   0 1953.91 71.3100   1
  12  -2   0 2099.83 67.7300   1
 -12  -2   0 1967.32 62.5000   1
 -12   2   0 2032.78 64.0700   1
  -9   6   3 1710.34 89.1700   1
  -9   6  -3 2328.14 84.8200   1
  -9  -6   3 2310.24 56.2100   1
  -9  -6  -3 2386.53 73.0200   1
  -9   6   3 2249.72 58.7300   1
   9  -6  -3 2363.56 57.8100   1
   9  -6   3 2325.78 58.5700   1
  -9   6   3 2758.07 70.9200   1
   9  -6   3 2386.73 83.1100   1
   9   6  -3 2420.97 80.6500   1
  -9  -6  -3 2437.60 88.3100   1
  -6  -2   5 421.530 28.0000   1
   6   2  -5 442.840 32.2700   1
  -6  -2  -5 401.310 44.3800   1
  -6   2   5 426.710 27.1800   1
   6   2   5 349.790 31.4200   1
   6  -2   5 443.190 27.6500   1
  -6  -2   5 280.490 21.4600   1
  -6   2   5 301.100 23.1500   1
  -6   2  -5 393.220 46.9900   1
  -6   2  -5 334.780 32.5800   1
  -6  -2  -5 325.090 29.9500   1
   6  -2  -5 376.850 31.0300   1
   6   2   5 194.360 47.4600   1
  -6   2  -5 323.950 32.1800   1
  -6   2   5 368.710 26.5100   1
  -6  -2   5 379.670 26.4200   1
   0 -12   3 -5.7200 12.3000   1
   0  12   3 -13.050 32.4000   1
   0 -12  -3 2.03000 20.0100   1
   0 -12   3 -7.7800 17.0400   1
   0 -12  -3 14.6800 29.3300   1
   0 -12  -3 -25.700 24.8300   1
   0 -12   3 6.95000 14.5300   1
   4 -13   1 560.410 30.8700   1
   4 -13   1 511.270 36.4100   1
  -4 -13   1 538.760 30.7200   1
   4 -13   1 590.890 33.5400   1
  -4 -13  -1 481.470 28.2000   1
   4 -13  -1 478.360 45.7700   1
   4 -13   1 437.640 44.8600   1
  -4  13   1 475.930 32.8900   1
  -4  13  -1 385.870 30.7700   1
   4 -13  -1 566.330 30.5400   1
   4 -13  -1 493.110 34.4100   1
   4 -13  -1 506.230 41.0100   1
  -4 -13   1 529.610 40.2200   1
  -4 -13  -1 591.620 40.1800   1
   0  14   0 7448.48 229.060   1
   0 -14   0 7065.82 153.680   1
  11  -6   0 353.360 23.6400   1
  11  -6   0 210.140 19.9200   1
 -11  -6   0 283.970 21.4900   1
 -11   6   0 276.660 26.6700   1
  11  -6   0 282.070 26.8300   1
  11   6   0 264.130 29.7300   1
  10  -8   0 4109.11 108.390   1
 -10   8   0 4327.17 89.5900   1
 -10  -8   0 4288.88 91.9100   1
  10   8   0 4398.78 123.740   1
 -12   0  -1 4447.54 103.810   1
  12   0   1 4455.43 98.2100   1
  12   0   1 4055.99 104.620   1
  12   0  -1 4050.03 98.2700   1
 -12   0   1 4627.95 98.3700   1
  12   0  -1 4474.72 102.550   1
   1 -12   3 275.110 53.5500   1
  -1 -12  -3 405.570 33.3400   1
  -1 -12   3 298.570 32.9100   1
  -1 -12  -3 383.600 42.7100   1
   1  12   3 291.360 50.4000   1
   1 -12   3 259.830 26.6000   1
  -1 -12   3 208.660 24.6300   1
   1 -12  -3 439.610 33.8300   1
  -1 -12   3 303.160 22.3100   1
  -1 -12  -3 367.410 33.0400   1
   1 -12  -3 355.350 32.5500   1
   1 -12   3 293.940 20.9500   1
  -1  12   3 303.750 40.3000   1
  -1  12  -3 431.450 55.7800   1
   2 -10   4 1255.71 43.2600   1
  -2 -10   4 1171.63 41.4700   1
  -2 -10  -4 1202.28 54.0700   1
   2 -10  -4 1067.24 54.1600   1
  -2  10   4 1048.27 44.8200   1
  -2  10   4 1026.06 49.5600   1
  -2  10  -4 904.390 70.1800   1
   2  10   4 846.930 93.7700   1
   2 -10  -4 1191.27 57.8600   1
  -2 -10  -4 1203.53 54.3900   1
  -2 -10   4 989.720 63.0100   1
   2 -10   4 1083.78 38.5900   1
   2 -10  -4 1036.23 42.1700   1
  -2 -13   2 5918.06 165.800   1
   2 -13  -2 7364.77 151.220   1
  -2 -13  -2 7064.85 140.090   1
   2 -13   2 5510.23 153.010   1
  -2  13   2 6529.66 142.270   1
   2 -13   2 6358.66 109.580   1
  -2  13   2 6608.63 173.120   1
  -2  13  -2 7844.81 210.030   1
   2 -13  -2 7108.33 143.340   1
  -2 -13  -2 6835.18 136.720   1
   2 -13  -2 6908.49 156.870   1
  -2 -13  -2 6991.44 176.330   1
  -1 -14   0 9075.82 184.080   1
  -1 -14   0 9087.71 143.420   1
   1 -14   0 8848.06 160.690   1
  -6 -12  -1 509.590 39.7600   1
  -6  12   1 423.940 30.2200   1
  -6 -12  -1 516.230 32.1100   1
  -6 -12   1 456.720 28.4900   1
   6 -12  -1 466.460 25.9700   1
   6 -12   1 430.060 24.6800   1
  -6  12  -1 430.610 28.5200   1
   6 -12   1 469.780 35.3900   1
   6 -12  -1 382.140 29.1700   1
  -6 -12   1 413.640 40.2100   1
   6 -12  -1 418.440 40.4500   1
 -12  -1   1 409.100 26.7900   1
 -12   1  -1 372.420 28.0900   1
 -12  -1  -1 412.050 28.7700   1
  12  -1  -1 380.630 30.4100   1
  12   1  -1 366.530 33.1300   1
  12   1   1 354.710 33.1200   1
  12  -1   1 347.600 27.9000   1
  12  -1   1 344.550 30.2700   1
  12  -1  -1 409.160 29.5800   1
 -12   1   1 382.120 28.4300   1
  12   1   1 431.990 33.7900   1
  12   1  -1 406.740 33.2800   1
   7  -9   3 707.000 46.4900   1
   7  -9  -3 692.680 42.1000   1
  -7   9  -3 604.720 44.1900   1
  -7  -9  -3 757.090 50.3700   1
   7   9  -3 590.640 38.5700   1
  -7   9   3 683.070 43.3900   1
   7  -9   3 594.580 36.9500   1
  -7  -9  -3 756.760 42.7000   1
  -7  -9   3 639.900 30.4700   1
  -7   9   3 799.560 38.5100   1
   7  -9   3 678.250 35.8000   1
   7  -9  -3 626.440 30.3600   1
   7  -9   3 672.330 36.8400   1
  -7   9   3 655.730 37.5700   1
   2  -7  -5 520.820 28.1600   1
  -2  -7  -5 390.880 28.6100   1
  -2   7   5 658.730 33.5100   1
  -2  -7   5 676.690 35.1000   1
   2  -7   5 759.490 37.7700   1
   2   7  -5 411.000 29.9200   1
  -2   7   5 837.300 47.0300   1
   2  -7   5 599.990 31.2600   1
   2   7  -5 579.420 37.8100   1
   2  -7  -5 609.860 54.5400   1
   2  -7  -5 563.360 40.5100   1
  -2  -7  -5 668.820 45.2900   1
  -2  -7  -5 605.650 45.8600   1
  -2  -7   5 510.130 42.1200   1
   9   0  -4 9.28000 21.4000   1
  -9   0  -4 -0.0100 29.6100   1
  -9   0   4 23.2500 14.0900   1
  -9   0  -4 4.64000 20.0700   1
   9   0   4 32.7700 19.8300   1
  -9   0   4 6.00000 15.7000   1
 -11   4   2 3625.67 78.8900   1
 -11  -4   2 3308.16 80.9600   1
 -11   4   2 3632.43 93.2300   1
 -11  -4  -2 3749.69 95.6800   1
 -11   4  -2 3848.90 111.930   1
  11  -4   2 3617.75 80.5000   1
  11  -4  -2 3615.56 81.7600   1
 -11  -4   2 3372.39 74.3600   1
 -11  -4  -2 3462.41 125.600   1
  11   4   2 3544.92 102.230   1
  11  -4  -2 3705.44 94.7000   1
  11   4  -2 3426.66 97.8300   1
  11  -4   2 3376.54 100.270   1
 -11   4   2 3767.68 77.9500   1
  -6 -10  -3 4900.28 131.690   1
  -6  10   3 4368.03 93.4700   1
  -6  10   3 4580.32 94.2600   1
  -6 -10   3 4852.91 89.2600   1
  -6 -10  -3 4872.01 110.800   1
   6 -10  -3 4507.08 110.350   1
   6  10  -3 4554.59 126.600   1
  -6  10   3 4151.44 98.5500   1
   6 -10   3 4963.71 107.590   1
   6 -10  -3 4969.30 92.4200   1
 -12   3   0 7889.66 154.010   1
 -12  -3   0 6661.84 121.590   1
  12   3   0 7166.03 146.380   1
  12  -3   0 7798.70 134.590   1
  12   3   0 7607.51 164.490   1
  12  -3   0 7090.68 140.290   1
   6  -3   5 1552.60 45.2200   1
  -6   3  -5 1370.16 60.9200   1
  -6   3  -5 1757.35 73.5600   1
  -6  -3   5 1262.29 48.0100   1
  -6   3   5 1855.30 57.0700   1
  -6  -3  -5 1308.91 59.1200   1
  -6   3  -5 1278.28 71.4300   1
   6   3  -5 1603.10 58.2900   1
   6  -3  -5 1725.95 55.4800   1
  -6   3   5 1739.87 50.0600   1
  -6  -3   5 1728.27 51.2700   1
  -6  -3  -5 1647.83 67.1100   1
  -9  -1  -4 289.630 29.0900   1
  -9   1   4 391.730 24.3300   1
   9  -1  -4 342.700 34.9400   1
  -9   1  -4 365.130 37.0100   1
   9   1   4 286.400 26.5200   1
   9  -1  -4 307.110 29.5400   1
   9   1  -4 277.540 25.4200   1
  -9   1   4 312.570 23.3000   1
   9  -1   4 313.500 26.2700   1
  -9  -1  -4 320.740 32.9700   1
  -9   1  -4 306.070 31.1400   1
  -9  -1   4 365.610 24.4800   1
  10   4  -3 3226.38 88.9600   1
 -10   4   3 3321.82 76.1400   1
  10   4   3 3212.75 92.7100   1
  10  -4  -3 3250.14 74.4900   1
 -10   4   3 3156.08 70.1500   1
  10  -4  -3 3039.75 78.5200   1
 -10  -4  -3 3419.88 106.380   1
 -10   4  -3 3723.17 106.800   1
 -10  -4   3 3315.51 74.4900   1
 -10  -4  -3 3501.09 93.4700   1
  10  -4   3 2858.86 90.1600   1
   5 -12   2 1354.31 56.2700   1
  -5 -12  -2 1495.44 55.7900   1
  -5 -12   2 1523.87 43.8700   1
  -5 -12  -2 1512.09 59.1200   1
   5 -12  -2 1779.36 89.6300   1
   5 -12  -2 1525.59 44.9200   1
  -5 -12   2 1616.93 77.5900   1
  -5  12  -2 1248.63 62.4200   1
   5 -12  -2 1500.12 56.1700   1
   5 -12   2 1461.74 62.6300   1
  -5  12   2 1890.97 64.0900   1
  -5  12  -2 1291.30 50.4300   1
   5 -12   2 1488.33 48.1200   1
   5 -12   2 1663.57 49.6300   1
   8  -8   3 3498.67 71.3300   1
  -8   8   3 3197.89 71.8000   1
   8   8  -3 2846.85 87.0800   1
   8  -8   3 3360.85 99.7000   1
   8  -8  -3 3112.10 79.5300   1
  -8  -8  -3 2880.51 86.2000   1
  -8   8   3 3006.04 74.5400   1
  -8  -8   3 3088.39 73.5800   1
   8  -8   3 2896.10 83.6800   1
  -8  -8  -3 3163.43 84.4700   1
  -8   8   3 2749.71 99.6300   1
   8  -8  -3 3044.31 67.2700   1
  12   2   1 1674.96 68.6600   1
  12  -2   1 1856.22 54.7400   1
  12  -2  -1 1661.32 52.0200   1
 -12   2   1 1659.46 53.1700   1
 -12  -2   1 1736.78 53.9400   1
 -12   2  -1 1679.20 62.0200   1
 -12  -2  -1 1770.60 58.5900   1
  12   2  -1 1606.03 59.1000   1
  12   2   1 1671.72 62.3200   1
  12   2  -1 1536.14 57.2200   1
  12  -2   1 1754.40 68.3100   1
  12  -2  -1 1929.19 64.7200   1
   4  -6  -5 469.190 32.2100   1
   4   6  -5 420.920 32.2100   1
   4  -6  -5 391.540 50.3400   1
   4  -6  -5 483.760 38.7900   1
  -4  -6  -5 474.950 32.5600   1
   4  -6   5 472.870 28.6400   1
  -4  -6  -5 464.180 39.6400   1
  -4  -6   5 337.060 26.3900   1
  -4   6   5 445.920 27.0600   1
  -4  -6  -5 300.610 23.2600   1
   4  -6   5 459.900 26.1100   1
  -4   6   5 518.080 36.5300   1
  -2 -12  -3 3199.42 95.4900   1
   2 -12  -3 3042.31 87.0700   1
  -2 -12   3 2892.80 68.8200   1
  -2  12   3 3241.68 97.6700   1
   2 -12   3 2957.06 70.3700   1
  -2  12  -3 2312.51 87.3300   1
  -2  12  -3 3143.29 118.910   1
   2 -12   3 2197.42 90.3400   1
  -2 -12  -3 2273.25 91.9300   1
   2 -12  -3 2838.33 94.7100   1
  -2 -12  -3 3195.94 94.4700   1
  -2 -12   3 2840.00 92.6000   1
   2 -14   0 588.260 35.8400   1
  -2 -14   0 714.670 44.9700   1
   2 -14   0 535.510 42.3000   1
  -2  14   0 540.530 70.1700   1
  -2  14   0 453.040 31.7600   1
  -2 -14   0 530.760 33.1400   1
  -5   5   5 8061.31 142.180   1
   5   5  -5 7301.29 145.760   1
  -5  -5   5 7722.06 133.200   1
  -5   5   5 8011.66 132.240   1
   5  -5   5 7322.79 125.080   1
   5  -5  -5 8257.46 159.150   1
   5  -5  -5 6125.22 182.920   1
  -5  -5  -5 7573.84 159.100   1
   5  -5   5 7761.04 126.420   1
  -8   5  -4 3878.28 104.180   1
  -8  -5   4 4039.70 81.9800   1
  -8  -5  -4 4732.03 118.560   1
  -8   5  -4 4865.35 135.970   1
  -8  -5  -4 4190.28 125.350   1
   8  -5  -4 4681.75 113.310   1
   8   5  -4 4381.08 99.6100   1
  -8   5   4 4442.72 98.9700   1
   8  -5  -4 4494.87 91.9600   1
   8  -5   4 3835.70 75.7100   1
  -8   5   4 4233.18 85.5700   1
   0  14  -1 10.9700 50.3800   1
   0 -14  -1 14.6500 23.6100   1
   0  14   1 16.6400 45.2400   1
   0  14   1 2.47000 10.4600   1
   0 -14  -1 1.63000 15.8600   1
   0  14  -1 1.59000 11.4700   1
   0 -14   1 7.23000 14.4700   1
   0 -14   1 20.2700 19.8000   1
  11  -6   1 3437.76 98.2700   1
 -11  -6   1 2942.91 73.1800   1
  11   6  -1 3121.60 95.6200   1
 -11  -6  -1 3023.64 75.1100   1
 -11   6   1 2929.39 76.5500   1
  11  -6  -1 3061.47 88.3300   1
  11   6   1 2950.81 106.870   1
 -11   6  -1 3041.60 93.6300   1
  11  -6  -1 3214.07 68.9300   1
  11  -6   1 2619.83 58.3600   1
 -11   6   1 3110.86 69.8200   1
   5 -13   0 322.230 29.7600   1
  -5  13   0 273.080 25.1500   1
  -5 -13   0 229.130 20.4100   1
   5 -13   0 316.670 23.1100   1
  -5 -13   0 363.580 30.6500   1
  10   8  -1 1395.11 58.9400   1
  10  -8   1 1340.67 40.8300   1
  10  -8  -1 1513.84 44.3300   1
  10  -8   1 996.850 44.7400   1
 -10  -8  -1 1378.98 49.6700   1
 -10   8  -1 1286.58 75.6900   1
 -10   8   1 1416.58 46.8600   1
 -10  -8   1 1410.80 46.4400   1
  10  -8  -1 1427.41 55.9500   1
 -10  -8  -1 1413.34 71.1700   1
  10  -8   1 1171.30 96.7800   1
  10  -8   1 1220.99 52.7100   1
  -9  -2  -4 90.5600 20.8100   1
  -9   2  -4 102.470 21.9100   1
   9  -2   4 94.1900 17.6300   1
   9   2   4 115.330 25.0200   1
  -9   2   4 107.410 17.2700   1
  -9  -2   4 85.4300 16.6100   1
  -9  -2  -4 146.800 31.4700   1
   9  -2  -4 129.230 24.8100   1
  -9   2  -4 62.2300 29.6800   1
  -9   2   4 82.3100 15.3400   1
   9   2  -4 150.860 26.5500   1
  -9   2  -4 64.8900 16.9000   1
   9  -2  -4 128.210 24.0500   1
  -1 -14  -1 652.330 32.3100   1
   1 -14  -1 724.370 42.0200   1
  -1 -14   1 730.460 41.8100   1
   1 -14  -1 687.440 35.9200   1
   1 -14   1 591.920 36.0600   1
  -1 -14  -1 621.970 35.2500   1
  -1  14  -1 742.420 69.3400   1
  -1  14   1 687.320 56.3100   1
  -1 -14   1 681.550 32.9700   1
  -1  14   1 477.490 28.1000   1
  -1  14  -1 515.420 32.1900   1
   1 -14   1 679.490 29.9500   1
  -6   8   4 131.370 21.6800   1
   6   8  -4 93.9400 22.4400   1
  -6  -8   4 111.680 16.0800   1
   6  -8   4 115.170 16.5500   1
   6  -8  -4 119.410 24.7600   1
  -6  -8  -4 128.400 23.3700   1
   6  -8  -4 124.790 15.5200   1
   6  -8   4 138.240 18.7600   1
  -6  -8  -4 142.590 28.7900   1
  -6   8   4 140.940 17.6700   1
   3 -10  -4 676.610 53.9300   1
  -3 -10  -4 628.120 44.0000   1
   3 -10  -4 589.940 34.0500   1
  -3 -10   4 566.860 27.8900   1
   3 -10   4 605.790 30.4000   1
  -3  10   4 569.380 30.1900   1
   3 -10  -4 496.390 26.1500   1
   3 -10   4 677.950 30.5500   1
   3  10  -4 386.980 29.1900   1
  -3  10   4 535.920 32.5500   1
  -3 -10   4 385.700 32.3200   1
  -3 -10  -4 630.340 39.9200   1
  -3 -10   4 520.750 50.5000   1
  -3 -13   2 2799.86 92.4000   1
   3 -13   2 2855.83 66.7400   1
  -3  13  -2 2353.54 80.3600   1
  -3  13   2 2617.99 81.5800   1
  -3  13  -2 3005.82 105.870   1
   3 -13   2 2477.94 92.0500   1
   3 -13   2 2730.67 62.3600   1
   3 -13  -2 2522.78 77.1800   1
  -3 -13  -2 2617.23 86.2900   1
  -3 -13  -2 3133.75 87.9400   1
   3 -13  -2 2800.63 90.0800   1
   3 -13  -2 3062.56 100.560   1
   3 -13   2 2316.46 92.8200   1
  -3  13   2 2317.78 72.5600   1
   3 -13  -2 2629.43 67.0400   1
  -3 -13   2 2810.31 66.8900   1
   3  -7  -5 130.590 14.7500   1
   3   7   5 80.3200 30.7800   1
   3  -7   5 167.420 19.0600   1
  -3  -7   5 150.210 17.4200   1
  -3  -7  -5 165.830 37.3700   1
  -3   7   5 139.480 18.2400   1
   3  -7   5 153.000 17.6200   1
   3   7  -5 86.8700 16.9900   1
  -3   7   5 147.850 20.6800   1
   3   7  -5 127.190 21.8300   1
  -3  -7   5 103.510 20.6000   1
   3  -7  -5 177.500 27.7700   1
  -3  -7  -5 117.370 22.7700   1
  10  -7   2 6172.11 137.710   1
 -10   7   2 5050.39 170.050   1
 -10   7  -2 6039.35 147.390   1
  10   7  -2 6163.88 135.360   1
 -10   7   2 5840.10 105.830   1
 -10  -7   2 5898.95 116.880   1
 -10   7   2 6065.48 126.440   1
  12   3   1 536.180 39.7500   1
  12  -3  -1 657.600 38.2200   1
  12  -3   1 605.700 39.5900   1
  12   3  -1 586.730 39.9000   1
  12  -3   1 655.610 30.5800   1
  12  -3  -1 701.550 33.0600   1
  12   3   1 581.060 38.5800   1
  12   3  -1 559.070 38.7300   1
 -12  -3   1 620.310 31.3900   1
 -12   3   1 576.290 29.0300   1
 -12  -3  -1 705.080 35.5800   1
 -12   3  -1 639.640 34.5600   1
   7  -7  -4 1283.17 56.2000   1
  -7  -7  -4 1274.22 64.6200   1
  -7  -7  -4 1300.36 61.2800   1
  -7  -7   4 1214.41 40.2200   1
  -7   7   4 1210.51 40.0800   1
   7  -7   4 1435.51 50.0600   1
   7  -7   4 1253.83 42.5300   1
  -7   7   4 1285.70 49.5000   1
   7   7  -4 1216.47 53.7700   1
   7  -7  -4 1156.32 38.2000   1
   5 -11  -3 133.520 23.9100   1
   5 -11   3 139.570 30.1800   1
   5 -11   3 147.770 26.2400   1
  -5 -11  -3 102.250 39.1000   1
  -5 -11   3 113.060 29.9400   1
   5 -11   3 131.390 17.9900   1
   5 -11  -3 143.840 16.7600   1
  -5  11   3 132.270 16.1500   1
  -5 -11  -3 156.830 35.2000   1
  -5  11   3 125.300 17.2500   1
  -5 -11  -3 133.170 30.1500   1
   5 -11   3 154.030 17.2600   1
  -5  11   3 126.430 22.3100   1
  -5 -11   3 141.430 20.3100   1
  -8  11   0 88.9000 17.1100   1
   8 -11   0 67.2400 25.2000   1
  -8 -11   0 314.340 30.8900   1
   8 -11   0 63.0000 19.6100   1
   8 -11   0 115.520 14.8300   1
  -5   9   4 525.160 29.9000   1
   5  -9   4 579.960 28.9300   1
   5   9  -4 472.030 36.2300   1
   5  -9  -4 465.940 25.5700   1
   5  -9   4 503.440 28.2300   1
  -5  -9  -4 559.300 38.2500   1
  -5  -9   4 477.110 25.2100   1
  -5   9   4 581.310 31.6700   1
  -5  -9  -4 454.870 31.5100   1
   5  -9  -4 451.210 30.2600   1
   0   0   6 17387.2 394.870   1
   0   0   6 13688.5 214.450   1
   0   0  -6 16267.6 266.790   1
 -12   4   0 1571.55 56.4000   1
 -12  -4   0 1733.46 56.4800   1
  12  -4   0 1733.77 51.7400   1
  12   4   0 1457.68 59.6400   1
  12  -4   0 1509.65 59.6500   1
  -6   4   5 737.060 31.6800   1
  -6  -4   5 687.360 30.0400   1
  -6  -4  -5 807.590 48.4200   1
  -6   4  -5 773.690 53.6800   1
   6   4  -5 687.530 42.1700   1
  -6   4  -5 610.240 51.2500   1
   6  -4  -5 883.260 40.1000   1
  -6   4  -5 735.790 48.1400   1
  -6  -4  -5 714.790 45.1900   1
   6  -4   5 647.800 43.2000   1
  -6   4   5 848.530 36.3900   1
   6  -4   5 693.670 29.5700   1
  -2 -14  -1 1733.31 69.1600   1
   2 -14   1 1474.77 46.2700   1
  -2 -14  -1 1817.21 58.9100   1
   2 -14  -1 1563.67 60.2500   1
  -2 -14   1 1360.75 66.4800   1
  -2 -14   1 1630.02 50.7800   1
  -2  14  -1 1096.61 46.8700   1
  -2  14   1 1551.92 79.1500   1
  -2  14  -1 1634.39 84.6200   1
   2 -14  -1 1350.08 57.9900   1
   2 -14   1 1446.57 70.9800   1
   0  -8  -5 -0.5200 43.3900   1
   0  -8  -5 -3.8300 18.6100   1
   0   8  -5 34.6400 36.6300   1
   0  -8   5 63.1000 21.0300   1
   0  -8  -5 -14.260 39.4900   1
  -9 -10   0 4430.00 92.0300   1
  -9 -10   0 4670.12 134.710   1
   9 -10   0 4520.01 107.250   1
   9 -10   0 4857.24 89.9000   1
  -9  10   0 4588.91 98.6700   1
   9 -10   0 3669.59 138.500   1
   0  -1   6 137.470 30.1400   1
   0   1   6 24.2000 28.5400   1
   0   1   6 19.7100 31.9200   1
   0   1  -6 52.1400 31.0700   1
   0  -1   6 76.2100 37.5100   1
   0  -1  -6 41.6200 28.9900   1
  -3  12   3 865.130 40.6600   1
   3 -12  -3 796.110 33.3600   1
   3 -12   3 996.900 37.8500   1
   3 -12  -3 880.270 56.6500   1
  -3  12  -3 845.620 49.5000   1
  -3  12   3 1144.36 53.6100   1
  -3  12   3 683.260 31.7000   1
  -3  12  -3 1016.55 60.8800   1
   3 -12   3 870.940 47.9200   1
   3 -12  -3 1104.71 48.5100   1
  -3 -12  -3 972.880 46.3900   1
  -3 -12   3 1148.26 60.8000   1
  -3 -12  -3 900.620 64.1800   1
  -3 -12  -3 951.460 46.3800   1
  -3 -12   3 905.680 34.2400   1
   3 -12   3 888.700 34.8200   1
  -1   0   6 53.8800 28.8100   1
  -1   0   6 57.7700 26.0800   1
   1   0  -6 58.0100 30.7300   1
  -1   0  -6 -1.7100 18.7500   1
   8 -10   2 1005.89 53.8300   1
   8 -10  -2 1064.08 38.2700   1
   8 -10   2 1006.39 35.6200   1
   8  10  -2 898.420 49.1000   1
   8 -10  -2 1360.31 52.6100   1
  -8  10   2 1055.79 41.8500   1
  -8 -10  -2 1005.80 49.8600   1
  -8 -10   2 985.380 35.4100   1
   8 -10   2 1058.04 42.6200   1
  -8 -10  -2 1293.50 48.5000   1
  -5 -13   1 610.090 28.5600   1
   5 -13  -1 629.340 35.6600   1
   5 -13   1 490.290 31.3400   1
  -5  13   1 581.030 34.2400   1
  -5  13  -1 603.260 34.6700   1
   5 -13   1 627.200 29.4300   1
  -5 -13  -1 610.710 34.3200   1
   5 -13  -1 668.230 46.6300   1
  -5 -13   1 637.280 42.6600   1
   5 -13  -1 659.170 29.3000   1
  -5 -13  -1 658.730 39.1900   1
   5 -13   1 622.490 29.8500   1
  -9   7   3 772.080 35.0200   1
   9  -7   3 640.550 29.0400   1
   9  -7  -3 655.870 29.4300   1
  -9   7   3 617.380 30.3600   1
  -9  -7   3 655.510 32.8500   1
  -9  -7  -3 644.350 37.6600   1
  -9   7   3 535.200 45.4800   1
  -9   7  -3 775.270 54.6700   1
  -9  -7  -3 580.970 43.0800   1
  -9   7  -3 438.150 34.3600   1
   9  -7  -3 710.760 38.4600   1
   9   7  -3 517.250 34.5000   1
   9  -7   3 591.250 37.5800   1
   3 -14   0 257.350 25.8900   1
  -3 -14   0 315.700 28.1100   1
   3 -14   0 285.080 24.4600   1
  -3 -14   0 317.930 21.3200   1
  -3  14   0 268.260 27.0300   1
  -3  14   0 343.680 40.7000   1
  -9  -3  -4 716.400 43.2500   1
   9  -3  -4 761.670 40.2400   1
   9   3  -4 653.170 37.3500   1
  -9   3   4 738.950 32.7500   1
   9  -3   4 730.720 31.7900   1
  -9  -3   4 655.230 28.6500   1
  -9   3  -4 777.080 47.4900   1
  -9  -3  -4 760.490 46.0900   1
  -9   3   4 741.530 31.5700   1
  -9   3  -4 680.890 40.7100   1
   9   3   4 646.130 39.4400   1
   9  -3  -4 751.440 36.8500   1
  -9   3  -4 422.700 34.9900   1
  -7   0   5 -19.730 14.0800   1
   7   0   5 54.3800 19.6100   1
  -7   0   5 -6.1000 11.1100   1
  -7   0   5 2.79000 15.3900   1
  -7   0  -5 14.6600 19.6700   1
   7   0  -5 13.1100 19.8200   1
  -7   0  -5 83.7100 36.5600   1
 -11  -5   2 837.860 33.1000   1
 -11  -5   2 807.710 36.5700   1
 -11   5   2 815.700 40.4200   1
 -11  -5  -2 782.240 40.1600   1
 -11   5  -2 882.880 52.2800   1
  11   5  -2 801.870 40.6300   1
  11  -5   2 956.020 50.3800   1
 -11   5   2 955.910 36.7100   1
  11  -5   2 869.040 33.6900   1
 -11  -5  -2 835.900 56.0800   1
  11  -5  -2 842.440 34.4200   1
  11  -5  -2 833.250 44.8700   1
  -1   8   5 5914.63 119.160   1
  -1   8  -5 5558.81 182.510   1
  -1  -8  -5 6706.61 154.080   1
   1  -8  -5 6602.79 164.190   1
   1  -8   5 6389.07 113.540   1
   1  -8  -5 5161.04 106.770   1
  -1  -8  -5 6421.09 145.370   1
   1  -8  -5 6413.46 134.070   1
   1   8  -5 6684.91 161.720   1
   1   8   5 5986.04 147.030   1
  -1   8   5 6633.66 141.150   1
  -1   1   6 17483.0 404.170   1
   1   1   6 17159.5 406.850   1
   1   1  -6 16876.3 395.890   1
   1  -1  -6 16188.7 259.220   1
  -1  -1  -6 16250.9 265.330   1
  -1  -1  -6 16650.9 411.120   1
  -1   1   6 15921.0 226.220   1
  -1  -1   6 13968.4 243.510   1
   1  -1   6 13625.1 235.460   1
  -7 -11  -2 687.060 38.6800   1
  -7  11   2 662.300 35.2100   1
   7 -11   2 582.250 48.3100   1
   7 -11  -2 535.650 24.9700   1
  -7 -11  -2 673.410 36.9000   1
   7 -11   2 707.130 32.2100   1
  -7 -11   2 521.320 27.0500   1
  -7  11  -2 515.960 28.3300   1
   7 -11   2 614.170 35.7100   1
  -7  11  -2 474.230 32.9000   1
   7 -11  -2 547.720 34.9600   1
  -7 -11   2 531.450 38.8200   1
  -7 -12   0 12.0700 14.9900   1
  -7  12   0 -6.9800 15.4500   1
   7 -12   0 -3.3100 23.6000   1
  -7 -12   0 -16.870 22.8300   1
   7 -12   0 1.37000 17.7300   1
   7 -12   0 -0.5600 15.6100   1
 -10   5   3 1392.69 45.2200   1
  10  -5   3 1388.30 42.5700   1
  10  -5  -3 1405.53 46.9600   1
 -10  -5   3 1218.21 40.4800   1
 -10   5   3 1370.74 44.8800   1
 -10  -5  -3 1173.52 58.3900   1
 -10   5  -3 1441.89 65.4100   1
 -10  -5  -3 1445.90 57.7300   1
  10  -5  -3 1403.64 52.7100   1
  10   5  -3 1223.34 52.7300   1
  10  -5   3 1321.65 60.6300   1
  -7   1  -5 1033.35 60.7700   1
  -7   1   5 1357.43 46.9700   1
   7   1   5 1375.74 56.7300   1
  -7   1   5 1498.60 45.5100   1
  -7  -1   5 1441.55 45.7500   1
  -7  -1  -5 1544.69 65.5800   1
  -7   1  -5 1713.37 75.4400   1
   7  -1   5 1355.47 47.2300   1
  -7  -1   5 1086.85 43.9900   1
  -7  -1   5 1617.25 50.4000   1
  -7  -1  -5 1229.56 57.7200   1
   7  -1  -5 1494.08 53.4800   1
   7   1  -5 1391.29 61.9300   1
  -7   1  -5 1264.28 63.5900   1
 -11   7   0 1416.02 69.7200   1
 -11  -7   0 1368.80 44.6700   1
  11  -7   0 1194.60 37.1800   1
  11   7   0 1159.69 59.0400   1
  11  -7   0 1220.13 52.1400   1
   0  -2   6 6147.74 132.530   1
   0  -2   6 5719.12 131.160   1
   0   2   6 6450.01 133.790   1
   0   2  -6 6368.98 129.380   1
   0  -2  -6 5835.41 121.750   1
   0  -2   6 6479.25 117.780   1
   0   2   6 6473.49 116.260   1
  -9  -9  -2 2832.57 90.4600   1
   9  -9  -2 3131.49 68.7400   1
  -9  -9  -2 2987.37 83.4600   1
   9  -9  -2 3042.56 84.3900   1
  -9   9   2 3044.10 73.0500   1
  -9  -9   2 2761.24 76.7400   1
   9  -9   2 3185.08 68.5000   1
  -9  -9   2 2913.82 65.5700   1
   9   9  -2 2544.00 82.3100   1
   9  -9   2 2882.57 86.2200   1
  -8 -11  -1 8192.26 143.090   1
  -8 -11   1 7387.82 124.770   1
   8 -11  -1 7244.44 118.300   1
   8 -11   1 8092.70 127.470   1
   8 -11   1 7192.54 187.280   1
   8 -11   1 7878.25 152.530   1
  -8 -11   1 7378.72 177.190   1
   8 -11  -1 7343.57 149.750   1
  -8  11   1 7301.36 133.580   1
  -8  11  -1 7685.42 134.490   1
  -8 -11  -1 7905.76 161.210   1
  -2   0   6 5081.12 98.7600   1
  -2   0   6 4241.07 94.6700   1
  -2   0  -6 4616.09 113.360   1
   2   0  -6 4873.13 108.050   1
   2   0   6 4809.42 97.0500   1
   1   2   6 71.6900 19.9200   1
  -1   2   6 66.6900 19.2300   1
  -1  -2   6 286.290 31.3500   1
   1  -2   6 56.8500 24.5500   1
  -1  -2   6 206.190 32.1700   1
  -1   2  -6 48.1200 19.7500   1
  -1  -2  -6 59.4700 43.3500   1
  -1   2   6 69.8900 21.5100   1
   1   2   6 73.0000 18.0500   1
  -1  -2  -6 94.3900 23.8200   1
   1  -2  -6 91.1800 21.7300   1
   1   2  -6 125.850 38.7200   1
 -11   0  -3 1.58000 24.9100   1
 -11   0   3 46.1900 21.3900   1
  11   0  -3 46.4600 24.7600   1
  11   0  -3 47.2200 23.4900   1
 -11   0  -3 38.6200 26.4200   1
  11   0   3 39.4200 21.1300   1
  -7  -2  -5 680.330 45.9200   1
  -7  -2   5 571.500 28.6200   1
  -7   2   5 603.230 29.7600   1
   7   2   5 534.400 41.1700   1
   7   2  -5 558.800 32.6500   1
   7  -2  -5 661.580 33.4300   1
  -7   2  -5 496.360 39.7300   1
   7  -2   5 542.760 27.9700   1
  -7  -2  -5 518.510 37.3400   1
  -7   2  -5 721.100 51.7500   1
  -7   2   5 534.410 30.4500   1
  -5  -6  -5 701.470 44.7100   1
  -5  -6   5 709.480 32.1100   1
  -5   6   5 777.850 34.4000   1
   5  -6   5 779.080 35.1500   1
   5  -6  -5 597.180 31.1300   1
  -5  -6  -5 600.300 35.9600   1
   5  -6  -5 760.560 46.7900   1
   5   6  -5 682.640 39.4700   1
  -5   6   5 705.100 34.7500   1
   5  -6   5 641.500 29.3400   1
 -12  -4   1 3761.44 86.4600   1
 -12   4   1 3423.93 87.3200   1
 -12  -4  -1 4052.66 92.2900   1
 -12   4  -1 3993.35 102.690   1
  12   4  -1 3564.53 104.990   1
  12  -4   1 3945.00 103.300   1
  12  -4  -1 4057.27 104.030   1
  12   4   1 3771.14 114.140   1
  12  -4   1 3983.56 81.1900   1
  12  -4  -1 4393.54 90.7100   1
  12   4   1 3565.04 100.710   1
  -8   6  -4 2436.36 92.0300   1
  -8  -6  -4 2734.99 91.6600   1
   8   6  -4 2661.93 82.7400   1
   8  -6   4 2890.19 64.1700   1
   8  -6  -4 2877.44 66.5500   1
  -8   6   4 2944.27 69.5700   1
  -8  -6   4 2408.35 57.4600   1
  -8  -6  -4 2967.22 87.5400   1
  -8   6  -4 3221.34 104.330   1
  -8   6   4 2983.22 75.6800   1
   8  -6  -4 3050.58 77.2100   1
   2  -8   5 682.840 35.3100   1
   2  -8  -5 766.330 69.5600   1
  -2  -8   5 626.700 28.6700   1
   2  -8   5 587.230 30.3100   1
  -2   8   5 616.050 32.4100   1
   2  -8  -5 490.320 30.4200   1
  -2  -8  -5 778.100 49.5900   1
  -2   8   5 537.830 40.4300   1
   2   8  -5 591.760 40.0600   1
   2  -8  -5 596.030 40.8500   1
  -2  -8  -5 564.440 41.7800   1
  -2  -1  -6 374.360 44.6300   1
  -2   1   6 441.330 32.4400   1
   2  -1   6 384.000 26.7000   1
  -2  -1   6 412.310 30.5500   1
   2   1   6 372.000 25.9400   1
  -2  -1   6 419.310 36.0600   1
  -2   1   6 386.340 30.4800   1
   2  -1   6 333.080 26.2700   1
   2   1   6 367.630 27.9600   1
   2  -1   6 340.720 23.9600   1
   2  -1  -6 413.440 37.7900   1
  -2   1  -6 290.760 29.2400   1
  -2  -1  -6 328.030 29.2300   1
   2   1  -6 366.700 36.3200   1
   0 -11   4 52.8000 14.9700   1
   0 -11   4 33.2700 17.4400   1
   0 -11  -4 4.14000 25.8200   1
   0 -11  -4 -0.6000 19.2400   1
   0  11  -4 103.410 43.0500   1
 -11  -1   3 2809.25 69.0700   1
  11  -1  -3 2609.92 74.9000   1
  11   1   3 2214.00 64.6200   1
 -11  -1  -3 2179.92 89.4900   1
  11  -1  -3 2459.32 76.6400   1
 -11   1   3 2683.34 64.9000   1
  11  -1   3 2375.63 65.0200   1
  11   1  -3 2732.10 75.1300   1
 -11   1  -3 2437.56 77.0900   1
 -11  -1  -3 2456.84 84.2300   1
  -4  10   4 603.220 34.3300   1
  -4 -10   4 654.330 29.7500   1
   4 -10   4 618.520 28.0200   1
  -4  10   4 642.840 35.1800   1
   4  10  -4 608.660 45.1000   1
   4 -10  -4 742.610 39.3200   1
  -4 -10  -4 615.430 38.9200   1
  -4 -10  -4 625.900 37.9100   1
   4 -10  -4 704.380 33.4100   1
   4 -10   4 595.540 29.4500   1
   9 -10  -1 869.370 36.7900   1
   9 -10   1 672.340 49.3100   1
  -9 -10  -1 739.690 51.8600   1
   9 -10  -1 687.230 43.8000   1
   9 -10   1 722.470 58.1400   1
  -9 -10   1 695.750 56.9500   1
  -9 -10  -1 839.330 42.4200   1
  -9 -10   1 678.020 33.4700   1
   9 -10   1 613.100 37.1600   1
  -9  10   1 969.900 45.5600   1
  -9  10  -1 647.530 35.8100   1
   9 -10   1 749.400 33.8800   1
  -4  13  -2 2375.99 74.9900   1
   4 -13   2 3063.28 69.7200   1
   4 -13  -2 3046.96 72.0900   1
   4 -13   2 2718.55 61.9600   1
  -4 -13  -2 2838.27 94.3600   1
  -4  13   2 3112.26 84.6500   1
  -4 -13   2 2741.19 89.7900   1
   4 -13  -2 3008.25 105.620   1
   4 -13  -2 2850.87 121.410   1
  -4 -13  -2 3316.84 88.7700   1
  -4 -13   2 2742.17 69.1600   1
   4 -13   2 2629.97 81.8800   1
   4 -13  -2 2910.58 79.9900   1
  10  -9   0 32.7600 18.0500   1
 -10   9   0 56.5700 21.7300   1
 -10  -9   0 57.7000 27.3100   1
 -10  -9   0 44.5900 16.2100   1
  10  -9   0 50.9300 29.7900   1
   4   7  -5 89.1000 19.6100   1
  -4  -7  -5 116.700 32.5500   1
  -4  -7   5 86.1000 15.6600   1
   4  -7   5 121.860 18.0200   1
  -4  -7  -5 102.220 22.4600   1
  -4   7   5 142.460 21.1600   1
   4  -7   5 122.320 15.4700   1
   4  -7  -5 111.660 15.5000   1
   4  -7  -5 128.010 23.8400   1
  -4  -7  -5 85.3800 15.6800   1
  -4   7   5 132.480 18.9100   1
  12   0  -2 2563.60 73.2000   1
  12   0   2 2311.83 66.4700   1
  12   0   2 2168.13 83.3500   1
 -12   0  -2 2245.75 72.3200   1
 -12   0   2 2431.11 73.3900   1
 -12   0   2 2496.39 66.9400   1
  12   0  -2 2381.57 67.8800   1
  -3 -14   1 346.190 34.1700   1
  -3 -14  -1 350.630 29.0100   1
   3 -14   1 420.700 32.2600   1
  -3  14  -1 464.600 45.1100   1
  -3  14   1 364.950 29.1700   1
   3 -14  -1 400.400 34.9400   1
  -3  14  -1 403.590 32.8700   1
  -3 -14   1 404.380 25.5700   1
   3 -14   1 456.990 26.5700   1
  -3 -14  -1 472.190 28.6300   1
   3 -14  -1 438.350 35.2800   1
   3 -14  -1 385.130 29.2600   1
   1  11   4 838.780 72.3500   1
  -1  11   4 1042.82 50.0500   1
  -1  11  -4 1067.88 72.0400   1
   1 -11   4 1021.68 38.1400   1
  -1 -11   4 1047.46 37.2600   1
  -1 -11  -4 1124.00 53.9300   1
   1 -11  -4 1222.39 65.4300   1
  -1 -11   4 1079.97 60.8700   1
  -1 -11  -4 1099.03 59.5500   1
   1 -11   4 986.020 80.7900   1
   1 -11  -4 1044.50 53.9500   1
  -1  11  -4 1114.14 80.8200   1
   6 -12   2 507.720 32.7900   1
  -6 -12  -2 579.710 38.1000   1
  -6  12   2 411.810 28.3700   1
  -6  12  -2 438.700 31.1400   1
  -6 -12   2 533.060 25.9900   1
   6 -12  -2 636.100 28.9300   1
  -6 -12  -2 487.600 30.7100   1
  -6 -12   2 449.490 37.6000   1
   6 -12   2 476.400 26.4000   1
   6 -12   2 512.450 26.0600   1
   6 -12  -2 462.280 52.3900   1
   7 -12  -1 1522.61 45.3900   1
   7 -12   1 1621.32 48.7700   1
  -7  12  -1 1343.38 47.5300   1
  -7  12   1 1553.29 52.1400   1
   7 -12  -1 1544.43 60.9100   1
  -7 -12  -1 1652.11 54.4700   1
  -7 -12   1 1719.51 73.4800   1
   7 -12  -1 1290.46 74.1200   1
  -7 -12  -1 1343.07 53.5600   1
   7 -12   1 1396.54 55.3500   1
  -7 -12   1 1756.19 52.0800   1
  12   1  -2 885.940 45.7100   1
  12  -1   2 899.420 37.3900   1
 -12   1  -2 949.660 44.6600   1
  12   1   2 901.720 52.7900   1
 -12  -1   2 1015.24 37.5200   1
  12  -1   2 923.210 51.8400   1
  12  -1  -2 1087.35 44.9900   1
  12  -1  -2 937.430 40.2500   1
 -12  -1  -2 1022.98 46.0100   1
  12   1  -2 945.970 47.9100   1
 -12   1   2 962.490 37.4000   1
 -12  -1   2 986.650 40.6700   1
  12   1   2 1003.58 45.7200   1
 -12   1   2 955.190 41.6400   1
  -9  -4  -4 1553.08 67.0000   1
  -9   4  -4 1690.01 73.5700   1
  -9  -4  -4 1716.18 66.0500   1
   9  -4   4 1422.71 45.8900   1
   9  -4  -4 1736.50 55.9800   1
  -9   4   4 1527.40 49.6100   1
  -9   4  -4 1608.80 70.5400   1
   9  -4  -4 1487.27 52.8600   1
   9   4  -4 1546.06 58.1500   1
  -9   4   4 1811.36 55.4000   1
  -9  -4   4 1696.35 49.3800   1
  11  -7   1 202.040 23.9200   1
 -11   7   1 233.260 20.6400   1
 -11   7   1 223.790 22.0800   1
  11  -7  -1 229.000 19.5600   1
  11   7  -1 218.950 26.5100   1
  11  -7   1 262.070 20.9000   1
 -11   7  -1 234.330 32.5000   1
 -11  -7  -1 265.730 31.2100   1
  11  -7  -1 224.860 25.1800   1
 -11  -7   1 257.490 21.1000   1
 -11  -7  -1 220.170 20.1000   1
   0   3  -6 17.7300 20.9700   1
   0  -3   6 25.7400 19.7500   1
   0   3   6 4.61000 17.4000   1
   0  -3  -6 -1.2500 20.8600   1
   0  -3  -6 36.2600 39.0600   1
   0  -3   6 -1.6700 20.6500   1
   0   3   6 -17.120 16.3000   1
  -2  -2  -6 1223.09 72.3400   1
   2  -2   6 1199.59 44.1600   1
  -2  -2   6 1118.27 38.0500   1
  -2   2   6 1185.19 41.6800   1
   2   2   6 1235.00 45.4600   1
  -2   2  -6 819.900 57.2300   1
   2  -2   6 1082.29 41.0500   1
  -2  -2  -6 949.660 45.2000   1
   2  -2  -6 1066.86 58.5500   1
   2   2  -6 1149.65 45.7100   1
  -2   2   6 1218.95 47.0800   1
   2  -2   6 1032.05 57.5000   1
  -2  -2   6 1147.94 43.8600   1
   2   2   6 1130.44 54.6400   1
 -12  -5   0 41.2000 17.2800   1
 -12   5   0 40.8100 16.6500   1
  12   5   0 34.9000 22.9900   1
  12  -5   0 58.9000 17.1600   1
  12  -5   0 66.4500 22.3700   1
  11   2  -3 477.950 30.9300   1
  11  -2  -3 518.980 31.1900   1
 -11   2   3 609.970 29.0900   1
 -11   2  -3 601.760 41.5000   1
 -11  -2   3 595.760 29.7900   1
 -11  -2  -3 483.010 42.9600   1
 -11  -2  -3 537.970 36.9300   1
  11  -2   3 547.750 29.5800   1
  11  -2  -3 592.320 33.9500   1
  11  -2   3 427.730 33.3600   1
  11   2   3 516.120 34.5800   1
   6   5  -5 1342.58 50.9000   1
   6  -5  -5 1701.23 59.1700   1
  -6  -5  -5 1386.84 64.2500   1
  -6   5   5 1736.64 54.8700   1
  -6   5  -5 1791.86 78.4600   1
  -6  -5  -5 1467.92 70.3800   1
  -6  -5   5 1684.88 49.2500   1
  -6   5   5 1513.34 46.7300   1
   6  -5   5 1708.28 53.9100   1
   6  -5  -5 1613.06 62.8500   1
   6  -5   5 1342.88 43.0200   1
  -7  10   3 6558.63 123.450   1
   7 -10  -3 6616.29 136.850   1
   7 -10   3 6568.17 136.190   1
   7  10  -3 6193.18 145.930   1
  -7 -10  -3 6515.49 134.090   1
  -7  10   3 6111.30 107.390   1
  -7 -10   3 6217.53 108.020   1
   7 -10   3 6511.24 106.940   1
  -7 -10  -3 6278.01 156.010   1
   7 -10   3 6184.31 117.300   1
   7 -10  -3 6427.06 109.650   1
   1  -3   6 443.230 32.2200   1
   1   3   6 487.570 35.1400   1
  -1   3   6 599.190 35.1000   1
  -1  -3  -6 616.240 38.7500   1
  -1  -3  -6 777.820 56.2100   1
  -1  -3   6 715.120 33.3700   1
   1  -3   6 624.790 30.0400   1
  -1   3   6 605.870 32.1400   1
   1   3   6 685.020 32.4800   1
   1  -3   6 501.750 36.0600   1
  -1  -3   6 432.510 29.6200   1
  -1  -3   6 537.780 29.2300   1
   1  -3  -6 675.950 38.3500   1
  -1   3  -6 559.240 32.4500   1
   1   3  -6 503.890 36.8900   1
  -6 -13   0 201.420 32.8300   1
   6 -13   0 216.080 32.7100   1
  -6 -13   0 167.910 17.9600   1
   6 -13   0 171.560 18.3800   1
  -6  13   0 197.480 24.3900   1
   6 -13   0 147.800 20.9200   1
   4 -12  -3 329.920 35.5400   1
  -4 -12  -3 385.480 29.7800   1
  -4 -12   3 439.090 22.6800   1
   4 -12   3 463.950 25.4000   1
  -4  12   3 435.310 28.9300   1
   4 -12  -3 365.720 23.6600   1
  -4 -12  -3 359.460 28.9600   1
  -4 -12  -3 322.250 37.7300   1
   4 -12   3 453.040 62.5000   1
  -4  12   3 449.650 30.6900   1
  -4  12  -3 331.240 32.4900   1
   4 -12   3 467.400 28.5200   1
  -4 -12   3 443.770 44.4700   1
   4 -12  -3 437.740 30.0300   1
  -7  -3   5 1095.21 39.4600   1
  -7  -3  -5 1027.56 56.6300   1
   7  -3  -5 1119.36 47.0800   1
   7   3  -5 1218.94 50.3700   1
  -7   3   5 1052.35 40.8500   1
   7  -3   5 1061.25 37.8400   1
  -7   3  -5 880.590 51.1800   1
  -7   3   5 1137.18 39.8800   1
  -7  -3  -5 1185.10 57.5500   1
  -7   3  -5 1213.95 63.8000   1
  -4 -14   0 1514.99 70.5100   1
   4 -14   0 1213.34 48.6600   1
  -4 -14   0 1778.99 53.2800   1
  -4  14   0 1455.91 55.9100   1
   4 -14   0 1836.31 73.7600   1
   4 -14   0 1553.78 48.4200   1
  -8   9   3 136.430 24.2900   1
   8  -9   3 200.290 34.9700   1
   8  -9  -3 246.530 33.6400   1
  -8  -9  -3 233.690 29.1000   1
  -8  -9  -3 155.660 25.0000   1
   8  -9   3 201.820 27.1600   1
  -8   9   3 246.140 31.0400   1
   8  -9  -3 267.010 26.6600   1
   8  -9   3 225.400 27.8500   1
   8   9  -3 217.910 27.2300   1
  -8  -9   3 140.900 18.7100   1
  12   2  -2 3882.47 100.660   1
  12  -2  -2 4086.54 97.8800   1
 -12   2  -2 4010.84 108.200   1
 -12   2   2 3983.05 78.8000   1
 -12  -2   2 4262.98 89.7300   1
  12  -2   2 4457.20 93.6300   1
  12  -2  -2 3878.96 89.0200   1
  12   2   2 3964.99 98.4300   1
  12   2  -2 3702.87 98.1900   1
 -12  -2   2 4091.30 91.1300   1
  12  -2   2 4100.36 105.020   1
  12   2   2 3796.63 109.060   1
 -12   2   2 4137.24 96.6500   1
 -12  -2  -2 3904.78 100.330   1
   2 -11  -4 337.590 39.7400   1
   2 -11  -4 290.200 22.4100   1
   2 -11  -4 269.260 28.6700   1
   2  11   4 234.180 50.5100   1
  -2 -11  -4 359.310 33.4400   1
  -2  11  -4 290.610 37.2000   1
  -2  11   4 315.820 29.2800   1
  -2 -11   4 304.920 30.6700   1
  -2 -11  -4 348.670 29.8600   1
   2 -11   4 316.750 22.8000   1
  -2  11   4 310.060 26.1900   1
   2 -11   4 344.280 21.8000   1
  -2 -11   4 363.220 22.4700   1
  -3   0  -6 -8.0200 18.7800   1
   3   0   6 -4.0600 16.7800   1
   3   0  -6 -31.140 18.8900   1
   3   0   6 27.6100 15.0100   1
  -3   0   6 -15.610 17.7100   1
   3   0   6 0.76000 17.3800   1
  -3   0  -6 -16.160 39.2800   1
  -3   0   6 -0.3400 13.6000   1
   0 -14   2 6873.53 160.100   1
   0 -14   2 6165.55 112.410   1
   0 -14  -2 6352.72 129.080   1
   0  14   2 6282.04 210.790   1
   0 -14  -2 6949.75 173.920   1
  10  -9   1 7663.93 172.360   1
  10   9  -1 7239.00 171.990   1
 -10   9   1 6440.59 118.000   1
 -10   9  -1 7515.28 128.730   1
  10  -9   1 7367.73 121.990   1
 -10  -9  -1 7008.79 135.220   1
 -10  -9   1 6776.58 118.280   1
  10  -9  -1 7191.66 119.490   1
  10  -9   1 5603.08 178.180   1
 -10  -9  -1 7166.47 174.860   1
  11  -6   2 1259.63 40.1100   1
 -11  -6   2 1193.48 39.6600   1
  11  -6   2 1340.81 60.4500   1
  11  -6  -2 1348.13 61.0100   1
  11  -6  -2 1329.50 42.7500   1
 -11   6  -2 1251.71 58.9700   1
 -11  -6   2 1306.91 50.1000   1
 -11   6   2 1353.94 44.3600   1
 -11   6   2 1231.38 48.7700   1
 -11  -6  -2 1271.79 51.2700   1
  11   6  -2 1268.48 60.8900   1
 -11  -6  -2 1219.57 59.9300   1
   3   8  -5 195.880 24.6300   1
   3   8   5 131.710 35.3700   1
  -3   8   5 207.190 25.3100   1
  -3   8   5 205.690 21.6700   1
   3  -8   5 250.220 21.5800   1
  -3  -8   5 209.300 18.9800   1
  -3  -8  -5 216.510 34.5700   1
   3  -8   5 203.930 18.9400   1
   3  -8  -5 178.280 17.6400   1
  -3  -8  -5 184.620 26.0100   1
   3  -8  -5 164.620 23.4500   1
  -3  -1  -6 356.690 28.5800   1
  -3  -1   6 496.350 25.2800   1
   3   1  -6 368.070 32.9800   1
   3   1   6 420.980 39.9300   1
  -3   1  -6 427.540 35.8200   1
   3  -1   6 430.290 29.3900   1
  -3   1  -6 529.180 58.3000   1
  -3  -1  -6 520.750 56.4600   1
  -3   1   6 503.890 27.0000   1
   3  -1   6 476.750 28.0200   1
  -3  -1   6 466.890 28.3500   1
   3   1   6 462.900 29.3000   1
  -3   1   6 448.520 27.5700   1
   3  -1   6 421.100 28.2800   1
   3  -1  -6 469.900 31.7600   1
  10  -8  -2 14.7200 21.1500   1
  10  -8   2 23.1900 18.4600   1
  10   8  -2 37.6400 22.8300   1
 -10  -8   2 39.0400 15.1200   1
 -10  -8   2 17.2300 17.9800   1
 -10   8   2 29.1400 14.5400   1
 -10  -8  -2 21.5400 22.0000   1
 -10   8  -2 48.5100 31.9800   1
 -10  -8  -2 24.9100 20.8300   1
  10  -8   2 -28.210 15.7000   1
 -10   8   2 8.54000 19.8500   1
  10  -8  -2 20.9600 15.9000   1
 -10  -8  -2 45.2200 26.8200   1
  10  -8   2 8.17000 22.7900   1
  10   6  -3 2821.23 83.2800   1
  10  -6   3 2671.97 82.7500   1
 -10   6   3 3015.58 71.4300   1
 -10  -6   3 3049.45 71.5500   1
 -10   6   3 3112.73 73.3900   1
 -10  -6  -3 2544.62 76.8000   1
 -10   6  -3 3000.95 105.680   1
  10  -6   3 2939.16 66.6800   1
  10  -6  -3 2456.40 61.1100   1
  10  -6  -3 2800.35 76.1200   1
 -10  -6  -3 2580.35 90.0400   1
  -1 -14  -2 4629.81 137.710   1
   1 -14  -2 4735.55 124.300   1
  -1 -14   2 3906.23 110.830   1
  -1 -14  -2 4448.33 112.300   1
   1 -14  -2 4828.32 133.170   1
   1  14   2 4164.50 171.250   1
  -1  14  -2 5643.00 201.800   1
  -1  14   2 4581.45 152.830   1
   1 -14   2 4719.18 92.8900   1
   1 -14   2 4109.87 104.470   1
  -1 -14  -2 5019.45 121.580   1
   1 -14  -2 4979.39 118.450   1
  -1 -14   2 4732.46 92.2000   1
  -6 -11   3 5115.35 155.900   1
  -6 -11  -3 4657.68 130.830   1
  -6 -11   3 5054.45 95.5900   1
  -6 -11  -3 5487.57 116.890   1
   6 -11  -3 5520.15 98.9600   1
  -6  11   3 4919.15 98.8700   1
   6 -11   3 5093.98 103.650   1
   6 -11   3 5979.58 103.840   1
  -6  11   3 5600.26 115.220   1
   6 -11   3 6024.23 127.830   1
   6 -11  -3 5479.71 113.500   1
  -6  -9  -4 311.980 28.4400   1
   6  -9  -4 361.950 32.5500   1
  -6  -9  -4 213.090 30.2700   1
  -6  -9   4 236.940 19.4300   1
  -6   9   4 374.810 33.2000   1
   6  -9   4 304.730 23.4500   1
   6  -9  -4 358.860 23.6500   1
   6   9  -4 289.930 28.4300   1
  -6   9   4 403.080 36.9300   1
   6  -9   4 274.260 21.9500   1
   0 -13   3 529.750 25.6900   1
   0  13  -3 564.260 64.7400   1
   0 -13  -3 625.580 38.3700   1
   0 -13   3 478.400 41.3500   1
   0 -13  -3 464.490 48.3300   1
   0 -13  -3 660.420 42.6800   1
   7  -8   4 158.110 15.8300   1
   7  -8  -4 171.360 15.2200   1
  -7   8   4 189.490 22.0700   1
   7  -8   4 171.690 19.0400   1
   7  -8  -4 229.430 25.8500   1
  -7  -8  -4 171.690 27.4500   1
   7   8  -4 166.220 24.9100   1
  -7  -8  -4 162.130 29.5400   1
  -7   8   4 187.980 18.4200   1
  -7  -8   4 165.440 16.4100   1
  -2  -3   6 1422.89 44.7000   1
  -2  -3  -6 1496.98 71.3300   1
   2  -3   6 1267.14 40.4600   1
   2  -3  -6 1404.87 61.1400   1
   2   3  -6 1105.36 49.6500   1
  -2   3   6 1482.99 48.8000   1
  -2  -3  -6 1483.94 64.1200   1
  -2   3  -6 1084.84 57.9300   1
  -2   3   6 1324.16 51.0300   1
   2   3   6 1479.91 65.2000   1
   2  -3   6 1123.09 51.5000   1
  -2  -3   6 1105.40 54.3500   1
   2   3   6 1563.52 51.8800   1
  -2  -3   6 1093.28 46.8700   1
   2  -3   6 1508.94 48.9500   1
 -11   3  -3 2441.20 89.1500   1
  11  -3   3 2681.91 66.7700   1
 -11   3   3 2614.79 69.9500   1
 -11  -3  -3 2392.11 79.4400   1
 -11  -3  -3 2662.52 94.2500   1
  11  -3  -3 2571.76 76.4000   1
  11   3  -3 2481.94 73.5000   1
  11  -3   3 2367.61 82.5100   1
 -11   3   3 2536.90 59.9600   1
 -11  -3   3 2594.65 61.6200   1
  11   3   3 2331.33 78.0900   1
  11  -3  -3 2531.41 69.6000   1
  12  -5   1 1475.44 61.9000   1
  12  -5  -1 1394.00 57.2700   1
 -12  -5   1 1486.51 47.6500   1
  12   5   1 1381.30 61.5500   1
  12   5  -1 1217.87 63.3500   1
 -12   5  -1 1422.94 60.3700   1
 -12   5   1 1511.37 58.1100   1
 -12  -5  -1 1355.79 52.3100   1
  12  -5  -1 1520.43 46.0500   1
  12  -5   1 1403.56 41.8200   1
  -1 -13   3 788.520 53.3600   1
  -1 -13  -3 812.640 40.3600   1
   1 -13  -3 1025.75 52.4700   1
  -1  13  -3 938.380 76.9600   1
   1  13   3 890.640 78.7300   1
  -1  13   3 773.400 59.1600   1
   1 -13   3 942.470 35.7400   1
  -1 -13   3 897.610 34.2800   1
  -1 -13  -3 960.420 46.3900   1
   1 -13  -3 920.690 51.1500   1
   1 -13   3 820.210 48.5600   1
  -1 -13  -3 909.590 56.5900   1
   1 -13  -3 885.400 66.4300   1
  -3  -2  -6 3680.32 117.080   1
   3  -2  -6 3682.63 95.8300   1
  -3  -2   6 3698.83 80.8300   1
  -3   2   6 3928.90 81.1700   1
  -3  -2  -6 4483.64 123.810   1
   3  -2   6 4083.06 85.6300   1
   3  -2   6 3637.05 80.7700   1
  -3   2   6 3205.07 97.5900   1
   3   2   6 3819.94 110.210   1
   3   2  -6 3219.35 99.1000   1
   0  -4   6 648.410 45.3100   1
   0   4   6 731.850 44.6000   1
   0   4  -6 705.240 45.4800   1
   0   4   6 949.770 42.4600   1
   0  -4   6 852.170 32.9200   1
   0  -4  -6 876.850 59.8700   1
   0  -4   6 700.920 34.4200   1
   0  -4  -6 710.070 40.1300   1
  -6 -13  -1 928.140 53.8600   1
   6 -13  -1 863.670 41.4800   1
   6 -13   1 666.270 41.1700   1
  -6  13   1 791.180 38.2500   1
  -6  13  -1 843.550 38.5700   1
   6 -13   1 900.890 33.5700   1
  -6 -13   1 894.220 35.1500   1
  -6 -13  -1 964.100 38.7800   1
   6 -13  -1 808.270 30.1100   1
   6 -13  -1 809.460 52.1700   1
  -6 -13   1 914.050 56.0100   1
 -12   3  -2 5004.43 128.790   1
 -12  -3  -2 4846.44 106.440   1
  12  -3  -2 4646.35 92.2900   1
  12  -3   2 4764.23 92.3600   1
  12   3   2 4340.90 119.040   1
  12  -3   2 4157.55 110.210   1
  12   3  -2 4812.77 113.010   1
 -12   3   2 4665.77 103.630   1
 -12  -3   2 4512.56 96.3900   1
 -12  -3   2 4740.93 89.8800   1
  12  -3  -2 4679.55 105.670   1
  12   3   2 4934.90 118.130   1
   9  -8   3 187.700 26.3800   1
  -9  -8  -3 36.5500 23.1200   1
   9  -8   3 156.800 19.3200   1
   9   8  -3 90.8000 24.1000   1
  -9   8   3 188.310 22.5400   1
  -9  -8   3 105.390 18.0200   1
  -9   8   3 135.100 14.7800   1
   9  -8  -3 99.4700 15.7300   1
  -9  -8  -3 162.460 27.4800   1
   9  -8  -3 166.780 24.1500   1
   4 -14  -1 2796.42 66.0400   1
  -4 -14   1 2409.90 60.8400   1
   4 -14   1 2424.22 60.9400   1
  -4 -14  -1 2742.50 74.6100   1
   4 -14  -1 2277.69 99.1500   1
   4 -14  -1 2530.65 76.8100   1
   4 -14   1 3033.63 71.0300   1
  -4  14  -1 2569.42 83.7300   1
  -4  14   1 2327.92 74.8600   1
   4 -14  -1 2616.73 88.3000   1
  -4 -14   1 2693.16 83.5400   1
  -4 -14  -1 2602.18 91.4200   1
   4 -14   1 2518.86 75.2000   1
  -1  -4   6 907.770 40.9600   1
  -1  -4  -6 1399.54 71.0900   1
   1  -4   6 1020.22 36.9600   1
   1   4   6 1183.03 43.8800   1
  -1   4   6 1305.60 46.5400   1
  -1  -4   6 1139.85 37.7200   1
   1  -4   6 1214.58 40.5100   1
  -1  -4  -6 1126.91 53.3600   1
   1  -4  -6 1122.68 49.7200   1
   1   4  -6 1086.05 51.6400   1
   1   4  -6 728.110 84.6200   1
  -1   4  -6 1007.54 56.7300   1
   1   4   6 1028.62 52.4900   1
  -1   4   6 1237.39 53.0100   1
   1  -4   6 818.210 43.3100   1
 -13   0   0 38.9700 16.3500   1
  13   0   0 57.0600 24.3400   1
  13   0   0 67.3900 23.5500   1
  -9   5   4 2741.30 71.1900   1
  -9   5  -4 2267.12 82.5000   1
   9   5  -4 2133.45 67.8700   1
  -9  -5  -4 2372.15 77.1500   1
  -9  -5  -4 2607.69 85.6800   1
  -9  -5   4 2131.43 53.5000   1
  -9   5   4 2422.64 59.4100   1
   9  -5  -4 2187.45 57.6400   1
  -9   5  -4 2280.57 91.3100   1
   9  -5   4 2172.45 51.8000   1
 -10   0  -4 54.8900 30.1300   1
 -10   0  -4 45.3700 23.1300   1
 -10   0   4 30.5400 15.7400   1
  10   0  -4 -19.100 18.2700   1
  10   0   4 21.3800 19.7300   1
  -7   4   5 132.800 20.5800   1
   7   4  -5 161.760 23.4000   1
   7  -4  -5 179.410 24.6700   1
  -7   4  -5 98.5300 21.5500   1
  -7  -4  -5 110.020 24.0400   1
  -7  -4   5 108.330 16.5500   1
  -7  -4  -5 149.590 32.8200   1
  -7   4  -5 194.240 41.3000   1
  -7   4   5 141.210 17.0400   1
   7  -4  -5 155.860 23.1900   1
   7  -4   5 94.0800 14.5000   1
  -2 -14  -2 839.680 45.5600   1
  -2 -14   2 878.910 35.1600   1
   2 -14   2 754.910 31.6100   1
  -2  14  -2 683.860 47.4600   1
  -2  14   2 780.090 52.6700   1
   2 -14   2 710.650 51.8800   1
  -2 -14  -2 764.740 39.3900   1
  -2 -14   2 784.980 51.8800   1
   2 -14  -2 844.840 56.2100   1
   2 -14  -2 985.490 50.3800   1
  -2  14  -2 1031.61 75.2800   1
  -2  14   2 926.470 47.8500   1
  -2 -14  -2 1012.24 56.5100   1
   2 -14  -2 768.640 48.3200   1
  11   8   0 6109.69 143.820   1
  11  -8   0 7724.03 160.940   1
 -11   8   0 7468.03 118.910   1
 -11  -8   0 6818.17 121.130   1
  11  -8   0 7251.00 112.030   1
   0  -9  -5 10100.0 198.470   1
   0   9  -5 9805.10 301.880   1
   0   9   5 10480.2 188.850   1
   0  -9  -5 10598.3 186.890   1
   0  -9   5 9920.10 146.870   1
   3 -11  -4 156.090 16.6400   1
  -3 -11  -4 125.010 22.1900   1
  -3 -11   4 176.660 27.2400   1
  -3  11   4 186.810 20.1600   1
   3 -11  -4 191.420 41.5900   1
  -3 -11  -4 205.060 31.5600   1
  -3 -11   4 212.090 20.0000   1
   3 -11   4 215.410 18.0500   1
   3 -11   4 234.570 44.9600   1
  -3  11   4 159.850 23.3600   1
   3 -11  -4 166.000 25.5300   1
   5  10  -4 7953.72 163.400   1
   5 -10  -4 8351.38 145.290   1
   5 -10   4 8787.47 132.060   1
  -5  10   4 8470.87 140.990   1
   5 -10  -4 7707.80 123.670   1
   5 -10   4 8749.82 145.550   1
  -5  10   4 8029.71 139.930   1
  -5 -10  -4 7930.48 160.880   1
  -5 -10  -4 7333.81 152.310   1
  13  -1   0 3551.74 84.4800   1
 -13   1   0 2972.74 80.2900   1
 -13  -1   0 2963.38 71.0100   1
  13   1   0 3345.25 82.9100   1
  13  -1   0 3219.64 88.0300   1
  13   1   0 3280.56 91.3900   1
   0 -15   0 12.4600 13.6900   1
   0  15   0 -48.640 47.1600   1
   0 -15   0 3.50000 21.1500   1
  -5 -13   2 987.250 37.3700   1
  -5 -13  -2 942.770 43.5600   1
   5 -13  -2 963.000 43.0200   1
   5 -13   2 762.540 46.8000   1
   5 -13  -2 700.150 55.9500   1
  -5  13   2 868.830 41.1000   1
  -5 -13   2 964.630 55.3500   1
  -5  13  -2 721.790 43.8400   1
   5 -13   2 928.790 34.3600   1
   5 -13  -2 847.750 31.2900   1
  -5 -13  -2 894.800 55.1400   1
   5 -13   2 985.310 36.0100   1
 -10   1   4 1221.48 41.2300   1
 -10  -1   4 1153.25 39.1400   1
 -10   1  -4 1263.83 68.2400   1
 -10  -1  -4 1260.59 59.1200   1
  10   1   4 1179.44 49.0400   1
  10  -1   4 1130.85 42.5900   1
 -10   1   4 1289.59 46.4000   1
  10  -1  -4 1299.94 53.8700   1
 -10  -1  -4 1189.32 60.5500   1
 -10   1  -4 1001.67 52.7500   1
  10   1  -4 1003.71 43.7600   1
  10  -1  -4 1275.99 54.1500   1
  -5   7   5 823.090 35.8700   1
   5   7  -5 884.130 46.5600   1
  -5   7   5 872.140 38.0900   1
   5  -7  -5 808.420 34.5700   1
   5  -7   5 956.750 39.7400   1
   5  -7   5 843.360 32.9300   1
  -5  -7   5 910.300 36.8300   1
  -5  -7  -5 826.640 42.3300   1
  -5  -7  -5 915.910 47.1000   1
   5  -7  -5 936.120 48.9700   1
   8   7  -4 1087.13 50.2400   1
  -8   7   4 1066.88 39.5500   1
   8  -7  -4 978.350 45.0400   1
  -8  -7  -4 965.710 58.6800   1
   8  -7   4 1030.82 35.8800   1
   8  -7  -4 1004.57 34.6900   1
  -8   7   4 1007.78 35.5000   1
  -8  -7  -4 991.190 52.6300   1
  -8  -7   4 862.290 33.2000   1
  -8   7  -4 941.130 57.9600   1
  -1  -9  -5 815.670 49.4400   1
  -1  -9   5 948.680 38.2600   1
   1  -9   5 684.800 40.2100   1
  -1   9   5 797.000 41.9300   1
   1  -9  -5 601.470 37.3900   1
   1  -9   5 688.380 43.6900   1
  -1   9   5 1143.15 51.1300   1
  -1  -9  -5 716.770 47.3900   1
  -1   9  -5 645.870 69.0800   1
   1  -9  -5 892.000 64.1700   1
  -1  -9   5 665.820 61.3100   1
  -2  13  -3 297.610 50.7400   1
   2  13   3 385.380 57.5500   1
   2 -13   3 398.660 25.1000   1
   2 -13  -3 393.230 36.7500   1
  -2 -13  -3 397.650 30.3000   1
  -2 -13   3 447.450 43.7200   1
  -2  13   3 567.310 42.0300   1
  -2 -13  -3 419.130 32.7000   1
  -2 -13   3 413.200 22.9400   1
   2 -13  -3 433.110 37.2400   1
  -2  13  -3 417.650 49.9600   1
   2 -13   3 382.780 37.7700   1
  -2 -13  -3 410.810 41.7400   1
   1 -15   0 617.640 33.4100   1
  -1  15   0 756.390 62.7600   1
   1 -15   0 744.420 48.4400   1
  -1 -15   0 706.930 50.6200   1
  -1 -15   0 639.870 34.1900   1
 -12   6   0 526.760 37.4800   1
  12  -6   0 557.330 37.3800   1
  12   6   0 434.560 38.3700   1
  12  -6   0 601.780 31.4200   1
 -12  -6   0 593.980 33.1400   1
   6  -6   5 287.990 22.6800   1
  -6  -6  -5 222.900 24.8300   1
   6  -6   5 233.020 17.6700   1
  -6   6   5 384.030 29.4600   1
   6   6  -5 309.570 28.5900   1
   6  -6  -5 371.570 32.5700   1
  -6   6   5 298.590 23.2200   1
  -6  -6   5 263.330 22.1400   1
   6  -6  -5 284.520 22.7900   1
  -6  -6  -5 275.860 36.3400   1
  -3   3   6 1937.59 60.4200   1
  -3  -3  -6 2581.01 91.5500   1
   3  -3   6 1892.34 49.9700   1
   3   3   6 1763.45 69.0600   1
   3   3  -6 1989.68 75.7500   1
  -3   3  -6 1568.36 64.9200   1
   3  -3  -6 2044.41 67.0400   1
  -3  -3  -6 2068.15 76.3200   1
  -3  -3   6 1549.52 60.6200   1
  -3   3   6 2260.56 60.3400   1
  -3  -3   6 1682.57 63.0300   1
   3  -3   6 2216.65 63.1300   1
  -4   0  -6 2094.62 86.7300   1
  -4   0   6 1812.83 53.0500   1
   4   0   6 1929.13 58.0800   1
   4   0   6 1906.38 66.8400   1
  -4   0   6 1715.94 62.4900   1
   4   0   6 1750.05 66.9400   1
   4   0  -6 1798.81 61.8800   1
  -4   0  -6 1788.77 81.2200   1
   2   4  -6 1083.31 47.9300   1
   2   4   6 1083.37 55.5200   1
  -2   4   6 1290.40 53.4900   1
  -2  -4  -6 1326.42 70.2100   1
   2  -4   6 848.410 44.7200   1
  -2  -4   6 1089.19 49.9200   1
  -2  -4  -6 1176.19 55.1700   1
   2  -4  -6 1365.29 60.8400   1
  -2   4  -6 924.950 53.6300   1
  -2  -4   6 1198.19 42.5000   1
   2  -4   6 1113.49 40.0800   1
   2   4   6 1141.14 43.9300   1
   2  -4   6 1256.32 45.7500   1
  -2   4   6 1066.63 39.5900   1
  13   2   0 1961.39 74.1900   1
 -13   2   0 1834.98 62.3400   1
 -13  -2   0 1864.07 58.9200   1
  13  -2   0 1667.47 58.6400   1
  13   2   0 1760.80 68.2500   1
  13  -2   0 1836.22 58.2500   1
 -11   4  -3 1024.00 52.6300   1
 -11   4   3 1081.01 37.7600   1
 -11  -4   3 994.100 39.2900   1
  11   4   3 908.970 49.7100   1
 -11  -4  -3 976.960 58.3200   1
  11  -4   3 959.500 34.9200   1
 -11   4   3 1169.56 41.9100   1
  11  -4  -3 1173.54 56.8900   1
  11   4  -3 951.700 49.3100   1
  11  -4   3 935.560 52.9000   1
 -11  -4  -3 1036.76 67.3200   1
  11  -4  -3 979.850 39.2900   1
  -8   0  -5 99.0900 21.2100   1
   8   0  -5 160.710 26.8100   1
  -8   0  -5 208.670 41.2900   1
  -8   0   5 138.750 19.1000   1
   8   0   5 109.910 20.5300   1
  -8   0   5 145.810 20.1100   1
  10  -2   4 1359.52 44.2000   1
 -10   2  -4 1576.46 72.8100   1
 -10  -2  -4 1531.29 64.3800   1
 -10  -2   4 1464.63 44.7500   1
 -10   2   4 1462.88 46.7800   1
  10  -2  -4 1463.82 54.3000   1
  10   2   4 1427.11 56.5400   1
 -10   2   4 1527.24 47.7700   1
  10   2  -4 1335.20 56.7700   1
  10  -2  -4 1431.55 61.2900   1
 -10  -2  -4 1405.14 63.9800   1
 -10   2  -4 1341.48 64.9800   1
   9 -11   0 404.750 36.8000   1
  -9 -11   0 421.420 38.6000   1
   9 -11   0 405.380 46.8900   1
  -9 -11   0 397.900 24.7500   1
   9 -11   0 486.570 27.8700   1
  -9  11   0 364.140 33.2100   1
  -4   8   5 125.570 21.5800   1
  -4  -8  -5 118.030 23.3800   1
   4  -8  -5 135.790 23.7500   1
   4   8  -5 132.180 23.2600   1
   4   8   5 103.430 38.6500   1
   4  -8   5 120.170 16.5400   1
   4  -8  -5 114.480 13.9600   1
  -4  -8   5 131.390 22.9000   1
   4  -8   5 140.480 18.4200   1
  -4   8   5 149.790 19.3600   1
  -4  -8  -5 127.790 31.4500   1
  -4   1  -6 1149.33 63.4300   1
  -4  -1  -6 1233.10 67.7800   1
  -4   1   6 1218.43 43.9800   1
   4  -1   6 1079.94 43.4500   1
   4  -1   6 918.070 38.6900   1
  -4  -1   6 945.870 42.0100   1
  -4   1   6 957.740 49.1500   1
   4  -1   6 870.560 43.7300   1
   4   1   6 941.460 51.0600   1
  -4  -1  -6 871.970 49.9400   1
  -4   1  -6 881.820 44.4100   1
   4  -1  -6 1054.64 47.6300   1
   4   1  -6 1025.96 45.2100   1
  -4  -1   6 1046.69 49.8700   1
  -8  11  -2 172.210 18.6000   1
   8 -11   2 217.380 19.9600   1
   8 -11  -2 214.250 18.9600   1
  -8 -11   2 278.310 20.5000   1
  -8 -11   2 262.730 23.7300   1
  -8 -11  -2 325.170 29.1600   1
   8 -11   2 151.140 18.5500   1
  -8 -11   2 348.010 38.3100   1
  -8 -11  -2 302.710 33.9400   1
   8 -11  -2 229.050 27.4800   1
   8 -11   2 194.350 24.5400   1
  -8  11   2 216.410 23.2800   1
   5 -12   3 1295.88 42.7300   1
  -5 -12   3 1083.14 37.7500   1
  -5 -12  -3 1031.75 64.1300   1
   5 -12  -3 1187.57 39.8000   1
  -5  12   3 1186.60 45.1100   1
   5 -12   3 1293.46 38.9400   1
  -5  12   3 1212.81 47.1900   1
  -5  12  -3 966.400 46.1900   1
  -5 -12   3 1171.89 63.8000   1
  -5 -12  -3 1134.44 56.0500   1
   5 -12  -3 1179.13 47.3500   1
  -5 -12  -3 1192.19 48.6600   1
  -8 -12   0 5080.34 91.2300   1
  -8  12   0 4688.37 96.8100   1
   8 -12   0 4730.54 147.170   1
   8 -12   0 4393.49 92.4100   1
  -8 -12   0 5173.72 141.060   1
   8 -12   0 4558.76 81.3600   1
  -8   1  -5 9.13000 16.9100   1
  -8  -1  -5 9.14000 18.5200   1
  -8  -1  -5 40.9400 33.6100   1
  -8   1   5 -4.9500 15.1500   1
  -8   1   5 -4.5700 15.6100   1
  -8  -1   5 14.2300 15.4000   1
   8  -1   5 11.0000 16.4100   1
   8   1   5 -2.8300 21.4600   1
   8  -1  -5 -18.610 20.7300   1
  -8  -1   5 4.91000 14.4500   1
  -8   1  -5 14.9300 36.5400   1
   8   1  -5 18.1000 21.3600   1
  -5  14   0 70.6600 20.2200   1
   5 -14   0 53.3000 22.3100   1
  -5 -14   0 79.7000 22.6100   1
  -5 -14   0 77.2000 15.8000   1
   5 -14   0 104.660 19.9100   1
 -13   0  -1 -1.1000 17.8000   1
 -13   0   1 0.63000 12.2600   1
  13   0  -1 1.79000 24.2300   1
  13   0   1 2.11000 21.8500   1
  13   0   1 28.2600 22.6900   1
  13   0  -1 8.18000 21.2100   1
   2   9  -5 1044.85 54.9700   1
  -2  -9  -5 1203.87 56.6300   1
  -2   9   5 1063.74 46.7400   1
   2  -9   5 1179.80 40.5700   1
   2  -9  -5 939.760 38.8700   1
  -2   9   5 1096.59 46.3000   1
   2   9   5 829.690 68.5300   1
   2  -9   5 1219.76 44.9200   1
  -2  -9   5 1322.62 44.0400   1
  -2  -9  -5 1131.45 55.4900   1
   2  -9  -5 1131.80 46.6700   1
   2  -9  -5 1168.19 62.4700   1
 -12  -4   2 948.580 41.2900   1
  12   4  -2 937.580 44.3700   1
 -12   4   2 982.570 44.3500   1
  12  -4   2 987.520 48.7800   1
 -12   4  -2 1066.16 52.7500   1
 -12  -4  -2 1140.48 48.9600   1
 -12  -4  -2 1083.18 68.7900   1
  12  -4  -2 923.720 44.2000   1
 -12  -4   2 822.440 34.1600   1
  12   4   2 882.970 46.8100   1
  12  -4  -2 917.010 34.8800   1
  12  -4   2 1181.92 44.9400   1
  11   8  -1 353.490 39.9800   1
 -11   8   1 325.390 24.2300   1
  11  -8  -1 364.040 26.8700   1
 -11  -8   1 246.650 20.7600   1
 -11   8  -1 241.580 37.5300   1
  11  -8   1 317.960 21.2100   1
 -11  -8  -1 223.160 22.7200   1
 -11  -8  -1 357.700 35.4400   1
  11  -8  -1 286.190 24.9800   1
  11  -8   1 290.120 27.6000   1
  -9 -10   2 2920.11 72.4900   1
  -9 -10   2 2799.16 61.9800   1
   9 -10   2 2641.19 71.5000   1
   9 -10  -2 3089.86 67.1300   1
   9 -10   2 2954.82 61.8300   1
  -9  10   2 2749.54 69.8400   1
  -9 -10  -2 2486.62 88.9800   1
   9  10  -2 2852.07 89.1900   1
   9 -10   2 2658.76 83.2700   1
   9 -10  -2 2761.05 77.5300   1
  -9 -10  -2 3188.61 83.8800   1
  -2 -15   0 1325.25 61.8400   1
   2 -15   0 1709.86 62.0200   1
  -2 -15   0 1506.78 54.2000   1
  -2  15   0 1957.29 110.020   1
   2 -15   0 1404.84 69.0800   1
  13  -1   1 102.010 26.1800   1
  13  -1  -1 88.5800 21.4500   1
  13   1   1 90.1300 25.6400   1
  13   1  -1 99.2300 25.9000   1
 -13  -1   1 81.1400 17.4800   1
 -13   1   1 91.9200 15.8100   1
 -13  -1  -1 76.1800 18.8400   1
 -13   1  -1 57.3400 19.4400   1
  13  -1  -1 86.8100 23.7300   1
  13   1  -1 78.0200 22.9500   1
  13  -1   1 93.1100 21.3400   1
  13   1   1 76.2900 22.6200   1
   0  15   1 4213.48 159.370   1
   0  15  -1 4816.10 170.670   1
   0 -15  -1 4315.41 116.860   1
   0 -15   1 4653.57 120.400   1
   0 -15  -1 4765.68 106.220   1
   0 -15   1 4268.33 85.9400   1
  -3 -14  -2 2015.60 68.0500   1
   3 -14  -2 1920.30 53.9700   1
   3 -14  -2 1987.33 65.1900   1
   3 -14   2 1695.70 71.3400   1
  -3  14  -2 2533.43 96.8400   1
  -3  14   2 2112.47 71.3100   1
  -3  14  -2 1757.20 71.5900   1
   3 -14   2 2184.65 56.2900   1
   3 -14   2 2141.90 54.8000   1
   3 -14  -2 2032.52 75.5700   1
  -3 -14  -2 1894.77 62.9800   1
  -3 -14   2 1904.74 50.1500   1
   3 -14  -2 2103.88 76.2100   1
  -3 -14   2 1827.36 92.5100   1
   0  -5  -6 -24.970 34.5000   1
   0  -5   6 16.7600 14.7700   1
   0  -5   6 11.9400 14.0800   1
   0   5   6 -11.310 19.7800   1
   0   5  -6 0.30000 14.8300   1
   0  -5  -6 -0.9600 20.1700   1
   4  -2   6 2356.19 58.8800   1
   4  -2   6 2796.03 69.5600   1
  -4   2   6 2878.35 65.7000   1
  -4  -2   6 2873.96 65.0500   1
  -4   2  -6 3057.74 104.880   1
  -4  -2   6 2863.27 74.9200   1
  -4  -2  -6 3180.78 110.150   1
   4  -2  -6 3076.38 80.2800   1
  -4   2  -6 2197.88 78.3900   1
  -4  -2  -6 2331.88 95.6900   1
   4   2  -6 2940.78 86.0800   1
   4   2   6 2717.08 90.9200   1
   4  -2   6 2269.92 71.5000   1
  -4   2   6 2723.11 71.8500   1
   7 -12   2 248.530 26.2000   1
   7 -12  -2 241.620 26.5400   1
  -7 -12  -2 237.640 25.4000   1
  -7 -12   2 265.370 31.5700   1
  -7 -12  -2 247.330 23.3300   1
  -7 -12   2 188.580 17.2100   1
  -7  12  -2 197.810 19.0400   1
   7 -12   2 209.040 18.7000   1
   7 -12  -2 213.170 17.4400   1
   7 -12   2 297.750 23.1900   1
  -7 -12   2 254.030 21.4700   1
  -7  12   2 265.720 25.1700   1
  -8   2   5 295.660 22.3700   1
  -8   2   5 284.750 23.3300   1
   8  -2   5 280.940 23.4300   1
  -8  -2  -5 300.620 28.9200   1
  -8   2  -5 231.270 24.3600   1
  -8  -2   5 259.970 20.1100   1
   8   2  -5 278.140 26.7100   1
  -8   2  -5 317.280 38.9300   1
  -8  -2  -5 352.580 39.4200   1
   8   2   5 275.410 32.5500   1
   8  -2  -5 347.690 29.2000   1
  -1 -15   1 856.420 50.6400   1
   1 -15  -1 746.710 44.5100   1
  -1 -15  -1 830.250 37.4400   1
   1 -15   1 758.620 33.6900   1
  -1 -15   1 782.000 34.9400   1
  -1  15   1 925.480 76.0800   1
  -1  15  -1 999.350 75.2800   1
   1  15   1 698.080 70.6800   1
   1 -15  -1 926.420 55.1200   1
   1 -15   1 876.080 48.8200   1
  -1 -15  -1 846.050 48.9400   1
  11  -7  -2 1863.20 59.5100   1
  11   7  -2 1653.87 64.7100   1
 -11   7   2 1826.17 49.4500   1
  11  -7   2 2111.37 53.4500   1
  11  -7  -2 2027.93 54.6800   1
 -11  -7   2 2153.96 59.4700   1
 -11  -7   2 2051.50 59.2900   1
 -11   7   2 1922.87 64.2600   1
 -11  -7  -2 2049.66 63.0500   1
 -11   7  -2 1990.73 85.4800   1
 -11  -7  -2 1926.33 75.1100   1
  11  -7   2 1790.04 68.9500   1
 -10  10   0 2.08000 15.6100   1
  10 -10   0 7.86000 12.4900   1
  10 -10   0 17.9400 18.9800   1
 -12   6  -1 28.8300 20.5600   1
 -12   6   1 37.6000 14.5100   1
 -12  -6  -1 13.0600 15.7600   1
 -12  -6   1 40.0000 15.2300   1
  12  -6  -1 49.6000 16.3700   1
  12  -6   1 22.7800 14.8500   1
  12   6   1 -0.3000 22.9600   1
  12   6  -1 21.4700 23.7800   1
  12  -6   1 47.3200 20.2400   1
  12  -6  -1 55.5200 21.9600   1
  -3  13   3 402.800 30.5600   1
   3 -13  -3 424.260 34.2200   1
   3 -13   3 352.960 34.9200   1
  -3  13  -3 402.190 42.8600   1
   3 -13   3 440.390 25.1900   1
  -3 -13  -3 292.400 37.3800   1
  -3 -13   3 366.150 36.6300   1
  -3  13   3 458.040 32.1900   1
  -3 -13  -3 320.920 27.7300   1
  -3  13  -3 308.130 27.2600   1
   3 -13   3 452.030 27.7500   1
   3 -13  -3 365.150 24.2100   1
   3 -13  -3 457.490 40.9500   1
  -3 -13  -3 436.490 36.4200   1
  -3 -13   3 447.510 23.5600   1
  -1   5  -6 232.980 24.1500   1
   1   5  -6 194.360 52.7200   1
   1   5   6 310.930 31.3500   1
  -1   5   6 277.260 25.6600   1
  -1  -5   6 270.960 25.3900   1
   1  -5   6 263.170 19.3500   1
   1   5   6 310.460 25.5900   1
  -1   5   6 321.970 24.0900   1
   1  -5   6 266.030 22.8100   1
  -1  -5  -6 191.300 38.6700   1
   1  -5  -6 242.780 44.4200   1
  -1  -5   6 320.770 25.3200   1
  -1  -5  -6 280.200 30.1600   1
   1  -5  -6 319.550 28.7100   1
   1   5  -6 224.290 23.5800   1
 -13  -3   0 267.270 23.5500   1
  13  -3   0 199.140 26.2500   1
  13   3   0 182.660 26.4600   1
  13  -3   0 285.500 25.8800   1
  13   3   0 233.950 30.7500   1
 -13   3   0 240.740 20.6600   1
  10  -7  -3 608.190 30.7300   1
  10  -7  -3 574.350 35.8200   1
  10   7  -3 544.510 37.2100   1
  10  -7   3 538.330 41.1900   1
 -10   7   3 682.320 34.3800   1
  10  -7   3 572.400 27.2000   1
 -10  -7  -3 518.250 38.6700   1
 -10  -7   3 667.610 31.8600   1
 -10   7   3 629.100 34.1000   1
 -10   7  -3 532.740 50.9100   1
 -10  -7  -3 543.200 40.3700   1
  10  -3  -4 1883.07 69.4400   1
 -10   3  -4 1535.24 70.1500   1
 -10  -3  -4 1397.92 58.3000   1
 -10   3   4 1625.79 52.3000   1
 -10   3  -4 1916.10 73.0700   1
  10   3  -4 1712.43 58.7000   1
 -10  -3  -4 1820.26 68.0600   1
 -10  -3   4 1471.82 44.0500   1
 -10   3   4 1498.82 43.3400   1
  10   3   4 1420.47 55.4300   1
  10  -3  -4 1860.40 63.6100   1
  10  -3   4 1503.05 45.5300   1
   7  -5   5 1107.87 38.3200   1
  -7   5  -5 1029.26 60.2100   1
   7  -5  -5 1082.29 46.4400   1
  -7   5   5 987.580 35.5600   1
  -7  -5   5 1014.07 35.6500   1
  -7  -5  -5 1103.03 51.8200   1
   7  -5  -5 1172.62 47.3800   1
   7   5  -5 970.160 47.4000   1
  -7   5   5 1130.67 42.1700   1
  -7  -5  -5 1038.88 52.9700   1
  13  -2   1 119.510 24.0700   1
  13   2   1 155.610 27.4500   1
  13  -2   1 148.500 23.1200   1
  13   2   1 174.800 27.2700   1
  13   2  -1 113.970 27.4000   1
 -13  -2   1 135.200 18.3900   1
 -13   2   1 155.310 18.9900   1
 -13  -2  -1 109.730 19.4700   1
 -13   2  -1 126.020 22.0900   1
  13  -2  -1 134.090 24.3200   1
  13  -2  -1 136.350 21.8000   1
  13   2  -1 106.970 22.9200   1
  -4 -11   4 5063.90 90.1700   1
   4 -11   4 5810.05 113.630   1
  -4 -11  -4 5396.95 125.220   1
  -4  11   4 5693.45 120.460   1
   4 -11  -4 5348.71 104.770   1
   4 -11   4 5536.11 94.8600   1
  -4  11   4 5460.36 117.350   1
   4 -11  -4 5255.79 107.490   1
  -4 -11  -4 5837.51 137.500   1
   7 -13   0 3141.24 116.870   1
  -7 -13   0 2948.50 94.0900   1
   7 -13   0 3275.57 90.1100   1
  -7  13   0 2875.49 71.9900   1
   7 -13   0 3066.22 63.7900   1
  -7 -13   0 2943.13 69.5900   1
   9 -11  -1 2198.07 70.2700   1
   9 -11   1 2081.36 64.2500   1
  -9  11   1 2118.36 59.8500   1
  -9  11  -1 2151.64 64.4600   1
   9 -11   1 2569.44 56.7100   1
  -9 -11   1 2192.26 59.9800   1
  -9 -11  -1 2517.96 66.6300   1
   9 -11  -1 2277.35 55.1800   1
  -9 -11  -1 2462.44 88.7300   1
  -9 -11   1 2256.50 101.510   1
   9 -11   1 1944.28 92.4600   1
   3   4  -6 1276.89 50.5200   1
  -3  -4  -6 1373.58 63.9500   1
   3  -4  -6 1190.65 50.8600   1
  -3  -4  -6 1520.20 71.6200   1
  -3  -4   6 1562.52 52.8100   1
  -3   4   6 1541.83 49.7300   1
   3  -4   6 1561.50 49.7600   1
   3  -4   6 1412.47 45.2700   1
  -3   4   6 1444.80 52.0900   1
   3   4   6 1351.86 62.6300   1
   8 -12  -1 202.730 27.0400   1
  -8 -12  -1 212.930 30.3900   1
  -8 -12   1 291.310 35.2700   1
  -8 -12   1 378.470 36.1700   1
   8 -12  -1 214.040 17.5000   1
   8 -12   1 223.250 19.4600   1
  -8  12  -1 253.180 23.5900   1
  -8  12   1 364.700 29.8900   1
   8 -12   1 199.990 23.8300   1
  -8 -12  -1 462.210 32.5600   1
   5 -14   1 104.600 21.6000   1
  -5 -14  -1 49.5100 21.2400   1
   5 -14  -1 114.640 22.4300   1
   5 -14  -1 109.450 26.0800   1
  -5  14   1 70.3100 20.4000   1
  -5 -14   1 104.400 22.6700   1
   5 -14  -1 75.2300 18.5500   1
  -5 -14  -1 93.2700 18.3800   1
   5 -14   1 69.4700 18.9700   1
  -5 -14   1 66.4700 15.3000   1
  -5  14  -1 87.1900 20.8200   1
  -9  -6  -4 3033.01 92.5400   1
   9   6  -4 2879.64 87.8300   1
  -9   6   4 3057.35 70.1400   1
  -9   6  -4 2934.23 99.7600   1
   9  -6   4 2867.07 61.9500   1
  -9   6   4 2737.21 69.3500   1
   9  -6  -4 2692.78 62.7200   1
  -9   6  -4 2631.99 87.2500   1
  -9  -6  -4 2826.48 83.6600   1
  -9  -6   4 2905.78 64.4400   1
   9  -6  -4 2922.31 78.7800   1
   0 -12   4 2109.24 55.6800   1
   0  12   4 1746.40 90.4500   1
   0  12  -4 2398.39 129.150   1
   0 -12  -4 1976.40 70.7200   1
   0 -12   4 1596.39 73.7600   1
   0 -12  -4 2324.63 82.4600   1
  -2 -15   1 867.060 50.9800   1
   2 -15   1 799.620 53.7300   1
  -2 -15  -1 893.090 47.9200   1
  -2  15   1 894.780 62.4500   1
  -2  15   1 1093.31 53.9500   1
  -2 -15   1 938.070 33.9900   1
   2 -15   1 1019.30 39.5400   1
  -2 -15  -1 1059.34 40.6900   1
   2 -15  -1 997.650 47.8100   1
  -2  15  -1 1125.64 77.8900   1
   2 -15  -1 839.340 51.3500   1
   3   9  -5 89.6700 20.2700   1
   3   9   5 74.9300 33.6400   1
  -3   9   5 74.2100 21.7600   1
   3  -9   5 119.360 17.2700   1
   3  -9  -5 65.4500 13.7300   1
   3  -9   5 96.9400 15.9900   1
  -3  -9   5 99.3500 18.2200   1
  -3  -9  -5 124.120 39.3000   1
   3  -9  -5 105.820 33.5200   1
  -3   9   5 84.3700 17.9500   1
  -3  -9  -5 91.6100 20.9000   1
   3  -9  -5 123.010 24.5200   1
   8 -10   3 882.830 32.1700   1
  -8  10   3 1083.25 44.5600   1
   8  10  -3 749.840 45.6800   1
   8 -10   3 863.130 45.3700   1
   8 -10  -3 954.720 47.9400   1
  -8 -10  -3 776.100 42.5000   1
  -8  10   3 836.710 33.9900   1
  -8 -10  -3 884.960 43.4700   1
  -8 -10   3 857.520 36.3900   1
   8 -10   3 858.480 41.1900   1
   8 -10  -3 1011.07 35.0200   1
  10  -9  -2 583.830 37.3200   1
 -10  -9  -2 566.970 47.8700   1
  10  -9   2 515.940 50.9500   1
  10  -9   2 677.780 43.7400   1
  10   9  -2 513.850 41.5200   1
 -10   9   2 755.750 32.6600   1
  10  -9   2 716.680 32.6900   1
  10  -9  -2 555.820 26.9300   1
 -10  -9   2 682.020 31.4800   1
 -10  -9   2 660.400 33.2900   1
 -10  -9  -2 605.370 35.9500   1
  -4  -3   6 9018.34 132.070   1
  -4   3   6 9351.37 145.420   1
   4  -3   6 9596.41 149.650   1
   4  -3   6 7925.62 123.040   1
  -4  -3   6 8700.88 140.010   1
  -4   3   6 9398.49 160.590   1
  -4  -3  -6 8517.94 183.170   1
   4  -3  -6 9346.03 160.970   1
   4   3   6 7938.94 175.620   1
  -2   5   6 1121.67 45.8300   1
  -2  -5   6 1028.81 45.8100   1
   2  -5   6 1144.52 39.3400   1
  -2   5   6 1301.32 44.1200   1
   2  -5   6 1400.93 47.0600   1
  -2  -5  -6 1228.67 67.4700   1
  -2  -5  -6 1051.97 52.0100   1
   2  -5  -6 1305.20 51.0700   1
   2   5  -6 1011.22 43.0300   1
   2   5   6 1208.39 53.8400   1
  -2  -5   6 1255.31 43.1000   1
 -11   5  -3 4093.80 118.130   1
 -11  -5   3 3716.26 74.1600   1
 -11  -5  -3 4136.47 116.000   1
 -11  -5  -3 3217.82 107.340   1
  11  -5  -3 4058.85 107.770   1
  11   5  -3 3844.08 96.2400   1
 -11   5   3 3933.58 84.6300   1
 -11   5   3 3898.48 80.6800   1
  11  -5  -3 3837.28 80.8700   1
  11  -5   3 3609.36 79.8200   1
  11  -5   3 3286.20 98.0600   1
  -3  15   0 389.610 45.2700   1
   3 -15   0 292.000 27.3100   1
  -3  15   0 270.510 26.1600   1
  -3 -15   0 350.570 31.4700   1
   3 -15   0 290.500 24.2600   1
  -3 -15   0 274.630 20.5500   1
  -1 -12  -4 148.890 26.2400   1
   1  12   4 94.5700 33.2800   1
  -1  12   4 121.610 27.0900   1
   1 -12   4 168.420 21.4300   1
  -1 -12  -4 151.010 29.7400   1
   1 -12  -4 119.250 32.2700   1
   1 -12  -4 139.990 26.4000   1
  -1  12  -4 162.570 45.8300   1
  -1 -12   4 122.470 24.0300   1
  -1 -12   4 169.370 18.1500   1
  -8   3   5 499.410 28.3900   1
   8  -3   5 540.050 30.2000   1
  -8   3  -5 533.240 46.9700   1
  -8  -3  -5 608.370 43.8400   1
   8   3  -5 674.890 41.2400   1
   8  -3  -5 596.680 35.2200   1
  -8  -3   5 587.410 29.3100   1
  -8   3   5 642.770 32.2400   1
  -8   3  -5 474.380 42.9000   1
  -8  -3  -5 507.960 40.2500   1
   8   3   5 491.780 38.1700   1
  -7 -11   3 345.670 23.8600   1
   7 -11   3 293.280 22.3800   1
  -7  11   3 288.840 21.2600   1
  -7 -11  -3 288.380 29.4800   1
  -7 -11  -3 135.680 27.4400   1
   7 -11  -3 353.410 31.1400   1
  -7  11   3 385.990 29.7800   1
   7  11  -3 321.620 34.3100   1
  -7 -11  -3 364.380 30.2300   1
   7 -11   3 327.070 23.4900   1
   7 -11  -3 276.700 20.1500   1
   7  -9   4 1815.17 47.1100   1
   7  -9  -4 1791.99 60.9100   1
   7   9  -4 1443.97 61.2700   1
  -7  -9  -4 1518.53 60.6400   1
  -7   9   4 1703.41 55.5000   1
  -7  -9  -4 1783.59 69.9400   1
  -7  -9   4 1444.86 41.1900   1
  -7   9   4 1671.60 49.9700   1
   7  -9   4 1713.88 52.2000   1
   7  -9  -4 1650.52 48.9100   1
 -10 -10  -1 258.910 32.3500   1
  10 -10  -1 216.420 26.5800   1
 -10 -10  -1 197.540 23.5900   1
 -10 -10   1 112.720 18.3400   1
 -10  10   1 228.880 23.6200   1
  10 -10   1 139.220 17.5500   1
  10 -10   1 154.040 27.7800   1
  10 -10   1 137.330 31.2500   1
  10 -10  -1 189.330 20.7000   1
 -10  10  -1 194.510 23.0500   1
 -13   3  -1 248.680 26.2800   1
 -13  -3  -1 308.730 26.7700   1
 -13   3   1 267.940 23.4700   1
 -13  -3   1 320.230 24.0400   1
  13   3  -1 319.920 38.0600   1
  13   3   1 279.310 32.4300   1
  13  -3  -1 321.990 25.2500   1
  13  -3   1 313.930 25.7900   1
  13   3   1 287.640 30.4900   1
  13   3  -1 271.790 28.9300   1
  13  -3   1 372.040 34.8400   1
  13  -3  -1 257.040 28.3000   1
 -12  -5  -2 36.9700 28.4300   1
 -12   5   2 34.3300 13.3300   1
 -12  -5   2 -3.4700 16.3200   1
 -12  -5   2 22.7700 16.2500   1
  12  -5  -2 15.8400 17.8600   1
  12  -5   2 34.9900 17.1300   1
 -12   5   2 14.7400 16.1300   1
  12   5  -2 22.0800 23.4300   1
  12  -5   2 18.1700 18.8000   1
  12  -5  -2 -11.360 21.3500   1
 -12   5  -2 40.5200 24.8300   1
 -12  -5  -2 27.0400 20.7000   1
  -6 -10  -4 85.5200 27.3900   1
   6 -10   4 44.2600 17.0300   1
   6 -10  -4 54.0900 12.9400   1
  -6 -10  -4 70.7500 24.1800   1
   6 -10  -4 52.7600 19.3800   1
  -6  10   4 64.2600 16.1100   1
   6 -10   4 50.2300 16.8600   1
   6  10  -4 75.4800 22.5400   1
  -6  10   4 87.0300 19.5300   1
  -6 -10   4 83.3800 17.2700   1
  -5   0  -6 -0.4400 19.6300   1
  -5   0  -6 37.6900 40.2100   1
  -5   0   6 12.0200 16.0100   1
   5   0   6 -5.2700 16.8500   1
  -5   0   6 -3.1000 15.3200   1
   5   0   6 -9.6800 19.3900   1
   5   0  -6 7.97000 18.7100   1
  -6 -13  -2 327.820 30.4400   1
  -6 -13   2 382.820 39.4900   1
  -6 -13  -2 460.130 37.9300   1
   6 -13  -2 503.310 33.4200   1
   6 -13   2 365.520 28.2700   1
  -6  13   2 371.490 26.6300   1
  -6  13  -2 291.260 24.9800   1
   6 -13   2 319.520 21.6100   1
   6 -13  -2 391.160 24.3000   1
  -6 -13   2 337.030 24.8000   1
  -6 -13   2 346.860 22.1900   1
   7 -13  -1 157.040 22.7800   1
  -7 -13   1 184.660 20.5700   1
   7 -13  -1 203.800 20.4700   1
   7 -13   1 154.610 19.4400   1
  -7 -13   1 128.210 26.2400   1
  -7  13  -1 170.290 23.6900   1
  -7 -13  -1 200.020 27.8600   1
   7 -13  -1 130.410 28.3300   1
   7 -13   1 151.260 23.8000   1
  -7 -13  -1 178.740 20.3600   1
  -7  13   1 178.800 23.2800   1
  12  -7   0 13714.2 419.900   1
 -12   7   0 13069.4 408.480   1
  12   7   0 13029.6 418.520   1
  12  -7   0 15485.7 452.020   1
 -12  -7   0 12785.7 379.920   1
  13  -4   0 535.520 30.7500   1
  13   4   0 441.290 35.9300   1
 -13   4   0 456.100 32.1800   1
  13  -4   0 452.740 32.3700   1
 -13  -4   0 445.040 28.9200   1
  -9  -9  -3 26.9200 26.5700   1
   9  -9   3 44.4500 15.7200   1
  -9   9   3 43.6900 19.0600   1
  -9   9   3 41.8000 13.5800   1
   9  -9  -3 45.8000 14.1300   1
   9   9  -3 16.8800 22.4600   1
   9  -9   3 27.5300 16.6700   1
   9  -9   3 33.3400 15.4000   1
   9  -9  -3 32.5000 22.2600   1
  -9  -9  -3 42.2600 23.7900   1
  -9  -9   3 15.1000 16.2200   1
  -6  -7  -5 818.220 47.7500   1
  -6  -7   5 777.060 31.9800   1
  -6   7   5 735.700 36.5700   1
   6  -7   5 797.800 36.6300   1
   6  -7  -5 862.630 34.4900   1
   6  -7   5 692.450 35.4500   1
  -6   7   5 748.700 40.4500   1
   6  -7  -5 943.340 47.6300   1
   6   7  -5 857.860 43.6400   1
  -6  -7  -5 1084.78 57.4300   1
  -4 -14   2 1326.03 47.9800   1
  -4 -14   2 1532.90 47.3500   1
   4 -14   2 1681.74 49.8100   1
   4 -14  -2 1698.63 52.9800   1
   4 -14   2 1579.11 46.9700   1
  -4  14  -2 1179.07 51.4500   1
   4 -14   2 1174.14 56.8800   1
   4 -14  -2 1430.77 57.0500   1
  -4 -14  -2 1231.94 59.2200   1
  -4 -14   2 1403.83 64.5200   1
   4 -14  -2 1492.82 66.1100   1
  -4  14   2 1390.13 52.0200   1
   4 -14  -2 1521.41 86.9800   1
  -4 -14  -2 1715.90 61.2700   1
 -10   4  -4 541.780 44.1800   1
 -10  -4   4 495.600 25.5500   1
 -10   4   4 535.880 29.5400   1
 -10  -4  -4 486.530 36.1400   1
 -10   4  -4 474.200 39.3000   1
  10  -4  -4 498.370 29.8600   1
  10  -4   4 527.670 29.4900   1
 -10   4   4 447.100 27.8100   1
  10   4  -4 564.320 35.5500   1
  10  -4  -4 538.870 34.1400   1
 -10  -4  -4 619.860 46.1500   1
   5   8  -5 824.560 40.2000   1
   5  -8  -5 1066.13 49.5400   1
  -5  -8  -5 791.330 44.8200   1
  -5  -8  -5 1090.27 55.0100   1
  -5  -8   5 786.510 32.7000   1
  -5   8   5 928.970 37.0900   1
   5  -8   5 934.010 36.4600   1
   5  -8  -5 859.980 35.1300   1
   5  -8   5 1084.71 36.4300   1
  -5   8   5 937.970 39.4000   1
  -5   1   6 520.300 34.2300   1
  -5  -1   6 507.250 31.0200   1
  -5   1   6 555.780 28.6600   1
  -5  -1   6 619.930 32.7600   1
   5  -1   6 476.220 30.8600   1
  -5  -1  -6 601.090 51.9100   1
  -5   1  -6 675.960 56.2900   1
   5  -1   6 457.260 40.4400   1
   5   1   6 550.900 43.5200   1
   5   1  -6 638.140 40.1300   1
   5   1   6 506.400 37.9100   1
   5  -1  -6 620.920 39.8200   1
  -5   1  -6 477.060 40.9100   1
  -5  -1  -6 474.030 40.9700   1
  -8  -8   4 4897.58 93.2600   1
  -8  -8  -4 5637.83 135.130   1
  -8   8   4 5119.43 97.2100   1
   8  -8   4 5307.58 108.750   1
   8  -8  -4 5737.51 102.200   1
   8  -8   4 5246.11 87.4800   1
  -8   8   4 5811.67 104.520   1
   8   8  -4 4986.90 116.550   1
   8  -8  -4 5776.01 110.660   1
  -8  -8  -4 4790.88 120.170   1
  -2 -12   4 985.000 57.8000   1
  -2 -12  -4 978.760 48.8900   1
   2 -12  -4 1175.42 50.1200   1
   2  12   4 796.010 88.8000   1
  -2  12  -4 1006.45 64.6600   1
  -2  12   4 1162.78 50.8700   1
  -2 -12  -4 1111.99 55.6800   1
  -2 -12   4 1139.61 40.2800   1
   2 -12   4 1076.03 36.4900   1
  -2  12   4 968.180 46.4700   1
   2 -12  -4 1084.77 61.8600   1
   2 -12  -4 868.410 38.4300   1
   2 -12   4 1265.29 42.7600   1
 -11  -9   0 10892.4 329.840   1
  11  -9   0 11152.4 328.610   1
 -11   9   0 10671.3 162.450   1
  11  -9   0 10134.5 190.540   1
 -11  -9   0 10986.3 364.870   1
  -4 -13  -3 596.670 53.6600   1
   4 -13  -3 661.830 54.7800   1
  -4 -13  -3 687.490 42.4800   1
  -4 -13   3 608.090 27.1100   1
   4 -13   3 662.470 32.2800   1
  -4  13   3 558.840 33.4300   1
  -4 -13  -3 639.050 38.1600   1
   4 -13  -3 674.810 33.2500   1
  -4  13   3 616.140 37.0600   1
   4 -13   3 767.760 33.2100   1
   4 -13  -3 670.920 41.3900   1
  -4 -13   3 796.160 57.9000   1
  12   0  -3 337.380 27.3300   1
 -12   0  -3 362.460 38.1500   1
 -12   0   3 304.740 21.9400   1
  12   0  -3 341.500 29.9800   1
  12   0   3 340.520 29.2200   1
 -12   0  -3 359.160 32.9100   1
   0  -6   6 725.850 36.8900   1
   0   6   6 822.640 37.9700   1
   0  -6  -6 906.350 61.3200   1
   0  -6  -6 779.970 44.4900   1
   0   6  -6 727.850 46.2600   1
   0   6  -6 486.620 59.5500   1
   0   6   6 690.100 42.6000   1
   0  -6   6 832.000 32.2100   1
  -3 -15  -1 5365.20 141.440   1
  -3 -15   1 4541.50 141.330   1
   3 -15  -1 5303.59 131.940   1
   3 -15   1 4986.52 124.540   1
  -3 -15   1 4781.96 91.3500   1
   3 -15  -1 4541.98 114.930   1
  -3 -15  -1 5378.84 112.100   1
   3 -15   1 4388.02 88.9200   1
  -3  15  -1 4651.73 118.530   1
  -3  15  -1 5654.84 157.010   1
  -3  15   1 4762.86 114.730   1
   3 -15  -1 5101.05 122.680   1
  -3   5   6 142.780 21.4400   1
   3  -5   6 145.190 15.5800   1
  -3   5   6 178.380 21.0200   1
   3   5   6 137.520 23.1200   1
   3  -5  -6 178.920 25.8500   1
  -3  -5  -6 134.090 22.6500   1
   3  -5   6 126.960 20.5100   1
   3   5  -6 137.320 20.5000   1
  -3  -5  -6 143.470 37.2800   1
  -3  -5   6 150.310 18.9600   1
   6 -12   3 346.120 23.6700   1
  -6 -12   3 343.450 22.6300   1
  -6 -12  -3 215.050 35.0200   1
   6 -12  -3 419.280 24.3100   1
  -6 -12  -3 370.540 29.1600   1
  -6 -12   3 277.570 37.0900   1
  -6 -12  -3 278.830 31.1000   1
   6 -12  -3 344.300 28.7300   1
  -6  12   3 335.170 25.8100   1
   6 -12   3 380.670 24.9400   1
   0 -10  -5 72.6200 24.0000   1
   0 -10  -5 128.240 40.4000   1
   0 -10   5 179.480 24.6600   1
   0  10   5 137.410 28.6600   1
   0  10  -5 195.070 48.3200   1
 -12  -1   3 461.150 25.3900   1
  12  -1   3 445.800 30.3400   1
 -12  -1  -3 334.760 30.2800   1
 -12   1  -3 410.510 35.4900   1
 -12   1   3 455.710 25.3100   1
  12  -1  -3 451.140 31.1400   1
 -12  -1  -3 474.280 42.3100   1
  12  -1  -3 500.150 31.3800   1
  12   1  -3 433.520 32.4000   1
  12  -1   3 493.110 46.0200   1
  12   1   3 397.400 33.0000   1
  -5   2  -6 169.810 23.0700   1
   5  -2  -6 224.760 26.0800   1
   5   2  -6 151.590 25.9700   1
   5  -2   6 155.750 23.2400   1
  -5   2   6 192.630 22.8000   1
  -5  -2   6 252.900 21.0800   1
  -5  -2   6 242.450 36.2900   1
  -5  -2  -6 278.440 44.4000   1
   5  -2   6 206.850 19.1500   1
   5  -2   6 227.990 24.5500   1
  -5   2   6 194.480 20.3100   1
  -5   2  -6 214.440 44.6900   1
  -5  -2  -6 189.410 29.2700   1
  -4  -4  -6 2904.17 112.890   1
   4   4  -6 2549.67 75.2200   1
  -4  -4   6 2302.32 60.9700   1
   4  -4   6 2572.15 65.2600   1
   4  -4   6 2253.64 58.4600   1
   4  -4  -6 2771.84 79.4800   1
  -4   4   6 2196.86 58.0800   1
  -4   4   6 2361.28 66.1400   1
  -4  -4  -6 1954.23 83.4500   1
   1   6   6 535.700 34.7500   1
   1   6   6 439.430 37.1000   1
  -1  -6  -6 603.580 56.0500   1
  -1  -6  -6 563.680 41.9300   1
  -1  -6   6 473.420 30.2000   1
   1  -6  -6 521.220 53.6200   1
   1  -6  -6 477.930 34.1300   1
  -1  -6   6 524.540 28.2500   1
   1  -6   6 523.470 29.5600   1
   1   6  -6 502.930 34.4700   1
  -1   6   6 524.820 32.6100   1
   1  -6   6 491.620 28.0400   1
   1   6  -6 362.120 61.7800   1
  -1   6   6 560.120 35.1600   1
  -6  14   0 792.210 37.1500   1
  -6 -14   0 1092.35 44.9100   1
   6 -14   0 996.530 33.8900   1
   6 -14   0 925.390 60.8000   1
  -6 -14   0 959.700 55.1600   1
   6 -14   0 813.400 41.6000   1
  -8   4  -5 854.060 60.3400   1
  -8   4   5 909.340 38.7400   1
   8  -4  -5 999.280 42.0000   1
   8   4  -5 867.090 42.7900   1
  -8  -4  -5 612.320 43.6300   1
   8  -4   5 743.150 38.9100   1
   8  -4  -5 766.790 41.5700   1
  -8   4   5 877.760 35.3800   1
  -8  -4   5 915.880 35.9900   1
  -8  -4  -5 915.100 53.0500   1
  -7   6   5 2592.48 69.3000   1
  -7   6   5 2789.29 68.1800   1
   7  -6   5 2476.68 66.7100   1
   7  -6  -5 2549.75 67.3000   1
   7  -6   5 2633.12 59.1400   1
   7  -6  -5 2568.40 72.9300   1
  -7  -6  -5 2238.48 88.8200   1
  -7  -6  -5 2903.43 108.880   1
   7   6  -5 2330.10 74.3500   1
  -7  -6   5 2395.55 62.0400   1
  -1 -10  -5 4113.88 113.410   1
   1 -10  -5 4611.59 147.390   1
  -1 -10   5 4311.23 85.4500   1
  -1  10  -5 4484.36 172.360   1
   1 -10  -5 4309.76 106.100   1
  -1 -10  -5 4330.90 125.250   1
   1 -10   5 4019.17 82.6600   1
  -1  10   5 4220.00 105.290   1
   1 -10   5 4063.63 83.3500   1
   1 -10  -5 3522.76 81.8000   1
  -1  10   5 3915.98 91.3700   1
 -12   7  -1 31.0600 25.1700   1
 -12  -7  -1 24.5800 18.2600   1
 -12  -7   1 41.3400 17.2500   1
  12  -7  -1 59.1600 16.7200   1
  12   7  -1 28.7300 24.2100   1
  12  -7   1 29.5100 15.6000   1
 -12   7   1 36.2300 14.4500   1
 -12   7   1 64.8000 15.3700   1
 -12  -7  -1 83.7700 25.8800   1
  12  -7  -1 18.2300 23.0000   1
  12  -7   1 68.7000 20.7600   1
   4  -9  -5 589.510 30.7500   1
   4  -9   5 727.250 36.4800   1
   4   9   5 326.010 69.5100   1
   4   9  -5 599.950 40.7100   1
  -4   9   5 734.810 42.9100   1
  -4  -9  -5 696.940 44.5700   1
  -4  -9   5 706.060 32.3100   1
   4  -9   5 716.030 35.9500   1
   4  -9  -5 691.330 40.1900   1
  -4  -9  -5 593.800 40.0200   1
  -4   9   5 783.800 40.2200   1
  13  -4   1 1214.72 40.4600   1
  13  -4  -1 1177.76 44.1000   1
  13   4   1 1161.05 59.1000   1
 -13  -4   1 1157.84 45.7700   1
  13   4   1 870.470 50.7400   1
 -13   4  -1 1061.21 50.0600   1
  13  -4   1 1039.41 54.0600   1
  13   4  -1 938.030 49.7300   1
 -13  -4  -1 1208.72 52.7400   1
 -13   4   1 1121.40 46.6000   1
  13  -4  -1 1040.22 45.9000   1
  -5 -11   4 606.100 55.1700   1
  -5 -11  -4 675.670 42.7900   1
   5 -11  -4 628.140 36.4300   1
   5 -11   4 732.880 36.6200   1
   5 -11  -4 530.680 27.6800   1
   5 -11   4 715.930 38.3900   1
  -5 -11  -4 724.140 50.3300   1
  -5  11   4 614.010 35.1500   1
  -5  11   4 617.990 36.2900   1
  -5 -11   4 613.450 28.9600   1
   4 -15   0 583.710 30.4900   1
  -4  15   0 496.680 35.6000   1
   4 -15   0 463.790 32.5300   1
  -4 -15   0 525.310 40.3300   1
  -4 -15   0 605.150 34.1200   1
  12  -2   3 2455.62 87.4600   1
  12   2  -3 2927.82 80.0700   1
  12  -2  -3 2847.35 75.7000   1
  12   2   3 2912.54 82.7400   1
 -12  -2   3 3064.66 71.8200   1
 -12   2   3 2799.29 65.6100   1
 -12  -2  -3 2689.66 77.0600   1
 -12   2  -3 2831.80 96.6100   1
  12  -2  -3 2404.13 69.4000   1
  12  -2   3 2591.72 72.9100   1
 -12  -2  -3 2676.43 102.730   1
  13   0   2 20.6900 21.9500   1
  13   0  -2 44.6500 21.8400   1
 -13   0  -2 -10.190 18.9600   1
 -13   0   2 17.2500 20.8100   1
  13   0  -2 14.5200 23.9000   1
  13   0   2 36.7500 22.8500   1
  11  -9   1 690.640 42.9100   1
 -11  -9  -1 642.630 52.8800   1
  11  -9  -1 823.030 31.7900   1
  11  -9  -1 711.200 37.1500   1
  11  -9   1 715.240 32.4400   1
 -11   9   1 719.640 36.4100   1
  11   9  -1 734.180 54.6300   1
 -11  -9  -1 779.250 36.1600   1
 -11  -9   1 746.300 37.6300   1
 -11  -8   2 2737.17 68.3800   1
 -11   8  -2 2647.83 119.430   1
 -11  -8   2 2623.80 67.7200   1
  11  -8  -2 2636.58 59.7000   1
  11  -8   2 2838.81 63.4600   1
 -11   8   2 2985.78 71.7500   1
  11   8  -2 2740.44 89.1900   1
  11  -8   2 2727.83 90.9200   1
  11  -8   2 1829.79 122.160   1
  11  -8  -2 2953.40 78.9100   1
 -11  -8  -2 2804.86 94.0300   1
 -11  -8  -2 2795.28 80.3600   1
   0 -14  -3 -3.0200 33.3400   1
   0 -14   3 1.63000 10.8300   1
   0  14   3 64.6500 34.2300   1
   0 -14   3 5.73000 17.5600   1
   0 -14  -3 -27.810 20.9900   1
   0  14  -3 32.5200 49.3700   1
   0 -14  -3 -6.4700 21.8500   1
  -2  -6  -6 1208.43 60.6800   1
   2  -6   6 1094.76 38.8500   1
  -2   6   6 1299.25 54.3900   1
   2   6   6 1405.04 69.4100   1
   2   6  -6 1279.35 55.7900   1
   2  -6  -6 1392.81 54.4100   1
  -2  -6  -6 1336.98 70.3100   1
  -2   6   6 1283.50 48.3900   1
   2  -6   6 1393.09 47.5200   1
  -2  -6   6 1209.25 43.3500   1
   3 -12  -4 10198.3 212.050   1
  -3 -12  -4 10194.9 193.020   1
  -3 -12  -4 10124.0 198.180   1
   3 -12  -4 9988.76 167.300   1
  -3 -12   4 9937.06 222.680   1
  -3 -12   4 9586.98 151.920   1
  -3  12   4 10613.2 153.150   1
   3 -12  -4 10074.3 174.100   1
 -13  -1   2 2412.44 66.1300   1
  13  -1  -2 2576.91 74.5200   1
  13   1  -2 2248.11 69.2900   1
  13  -1  -2 2185.13 66.1100   1
  13   1   2 2154.70 72.2500   1
  13  -1   2 2516.74 67.3800   1
  13   1   2 2266.27 82.8600   1
  13  -1   2 2341.07 86.0800   1
 -13   1   2 2477.64 71.0700   1
  13   1  -2 2218.02 69.4100   1
 -13  -1  -2 2317.85 77.5900   1
 -13   1  -2 2250.80 75.0100   1
 -11   6   3 39.9700 13.2400   1
 -11  -6   3 46.5200 16.9000   1
  11  -6  -3 55.6800 17.1600   1
  11  -6   3 52.8000 14.2900   1
  11  -6   3 36.5800 18.8300   1
 -11   6   3 21.8000 15.5500   1
  11  -6   3 33.3300 22.0100   1
 -11  -6  -3 51.5900 24.7400   1
  11  -6  -3 31.2900 20.0400   1
 -11   6  -3 35.0600 33.2800   1
 -11  -6  -3 14.4000 21.8000   1
  11   6  -3 12.6000 22.9300   1
   0 -15   2 9.03000 13.5400   1
   0 -15  -2 16.1100 17.8600   1
   0 -15  -2 72.8600 27.7000   1
   0 -15  -2 62.5500 22.5800   1
   0  15  -2 32.2500 52.5200   1
   0  15   2 -8.8800 36.0900   1
   0 -15   2 51.3400 24.3900   1
  -9   7   4 3847.96 88.4200   1
   9   7  -4 3592.44 94.8700   1
   9  -7  -4 3992.95 98.5000   1
  -9  -7   4 3472.25 73.5200   1
  -9  -7  -4 3314.17 115.410   1
   9  -7   4 3567.73 75.9300   1
   9  -7  -4 3706.21 83.6300   1
  -9   7  -4 3843.72 134.140   1
  -9  -7  -4 4036.89 99.3500   1
  -9   7   4 3473.95 76.7600   1
  10  -8   3 2037.29 53.1300   1
 -10   8   3 1969.45 56.3900   1
 -10  -8   3 1927.26 56.6600   1
 -10   8   3 1924.47 58.4600   1
 -10  -8  -3 1893.94 79.0500   1
  10  -8  -3 2003.94 52.9500   1
  10   8  -3 1890.75 70.7500   1
  10  -8  -3 1882.04 61.0700   1
  10  -8   3 1720.73 67.9500   1
 -10   8  -3 1994.25 92.2600   1
 -10  -8  -3 1937.45 70.0600   1
   5  -3  -6 761.330 40.5500   1
   5   3  -6 581.890 37.1100   1
  -5   3   6 757.280 33.3600   1
   5  -3   6 643.880 34.4500   1
   5  -3   6 746.090 32.9600   1
  -5  -3  -6 646.210 71.0900   1
  -5   3  -6 842.810 61.9600   1
  -5   3   6 769.670 34.9500   1
  -5  -3   6 815.920 33.5700   1
  -5  -3  -6 654.720 54.0400   1
   2  10   5 319.650 48.6100   1
   2 -10  -5 570.550 36.6300   1
  -2 -10  -5 481.670 41.1600   1
  -2 -10   5 436.950 46.4700   1
   2 -10  -5 537.000 49.3500   1
  -2 -10  -5 540.780 45.8400   1
  -2 -10   5 585.870 32.1100   1
   2 -10   5 635.180 34.6200   1
  -2  10   5 613.130 42.6100   1
   2 -10  -5 491.780 32.4400   1
  -2  10   5 561.760 41.2700   1
   2 -10   5 578.000 35.9000   1
  13   5   0 460.050 39.7600   1
  13  -5   0 521.760 31.4900   1
 -13   5   0 481.310 33.7100   1
 -13  -5   0 432.930 29.3700   1
  13  -5   0 486.530 36.0000   1
   1 -14   3 318.310 38.6500   1
   1 -14  -3 488.620 38.4900   1
  -1 -14  -3 577.140 39.6600   1
  -1 -14   3 540.550 28.9300   1
   1 -14   3 590.290 30.4700   1
  -1  14   3 509.970 45.4700   1
  -1  14  -3 576.740 66.3000   1
   1  14   3 422.410 60.6500   1
   1 -14  -3 456.930 36.3100   1
  -1 -14  -3 397.960 31.5900   1
  -1 -14   3 447.920 40.0000   1
   1 -14  -3 421.240 45.0400   1
  -1 -14  -3 424.060 42.8200   1
 -10  -5  -4 2678.78 90.8700   1
 -10   5  -4 2558.73 92.8500   1
  10   5  -4 3244.01 93.2300   1
 -10  -5  -4 3387.96 102.670   1
  10  -5   4 3312.77 76.8400   1
 -10   5   4 3143.81 78.6800   1
 -10   5   4 3275.99 76.0700   1
 -10  -5   4 3143.68 70.3900   1
 -10   5  -4 3332.82 108.680   1
  10  -5  -4 3347.10 87.8800   1
  10  -5  -4 2989.97 73.8400   1
  -1 -15   2 3815.97 120.080   1
   1 -15  -2 3910.67 118.080   1
  -1 -15  -2 4325.20 134.400   1
  -1 -15   2 4070.92 92.1900   1
  -1 -15  -2 4165.68 115.060   1
   1 -15  -2 4181.71 116.980   1
  -1 -15   2 3863.88 80.3300   1
   1 -15   2 3825.29 80.3300   1
  -1  15   2 3994.48 145.830   1
  -1  15  -2 4950.65 177.530   1
   1  15   2 3699.40 159.330   1
   1 -15  -2 3624.99 106.550   1
   1 -15   2 3655.22 107.870   1
  -1 -15  -2 4821.33 128.200   1
  -6 -14   1 2260.44 81.1000   1
  -6 -14  -1 2199.17 87.0700   1
   6 -14  -1 2128.10 68.5800   1
   6 -14  -1 2124.27 91.3100   1
  -6 -14  -1 2455.89 69.4500   1
  -6 -14   1 2267.21 59.6300   1
   6 -14  -1 2261.30 56.0000   1
   6 -14   1 2291.80 58.1400   1
  -6  14  -1 2232.28 74.2800   1
  -6  14   1 2321.36 73.2100   1
   6 -14   1 1970.84 75.1100   1
  12   6  -2 344.760 32.8100   1
  12  -6  -2 360.760 31.3400   1
 -12  -6  -2 441.070 41.6200   1
 -12   6  -2 423.250 42.3200   1
 -12  -6  -2 397.760 30.1900   1
 -12   6   2 319.980 27.4100   1
 -12  -6   2 356.690 25.0300   1
 -12  -6   2 321.960 23.4600   1
  12  -6  -2 390.720 26.9500   1
  12  -6   2 354.280 24.9500   1
 -12   6   2 348.060 25.8200   1
  12  -6   2 435.050 39.1300   1
  -9   0  -5 11.6600 18.7900   1
   9   0   5 35.1500 19.1900   1
  -9   0  -5 15.5700 31.1600   1
   9   0  -5 19.3100 21.4900   1
  -9   0   5 -10.290 16.1400   1
  -9   0   5 8.72000 16.5900   1
 -13   2  -2 406.210 34.7300   1
  13   2   2 439.160 37.2600   1
 -13  -2   2 440.020 29.1300   1
 -13  -2  -2 427.470 35.7900   1
 -13   2   2 399.580 25.9300   1
  13  -2  -2 410.370 29.6900   1
  13  -2   2 445.870 31.7100   1
  13   2  -2 465.700 40.2100   1
  13   2   2 363.800 35.6900   1
  13  -2   2 372.390 33.5300   1
  13   2  -2 396.590 32.7500   1
  13  -2  -2 473.170 34.6800   1
  -9 -11  -2 948.050 48.2900   1
  -9 -11   2 913.010 39.2400   1
   9 -11  -2 863.660 43.2700   1
  -9 -11  -2 919.910 55.9800   1
   9 -11  -2 917.520 34.7200   1
   9 -11   2 1079.90 41.4700   1
  -9 -11   2 991.060 34.7900   1
  -9  11   2 979.370 47.1400   1
   9 -11   2 800.540 47.5700   1
  -9 -12   0 2194.00 85.2700   1
  -9 -12   0 2104.68 58.0800   1
   9 -12   0 1743.59 84.6000   1
   9 -12   0 2310.84 69.1800   1
   9 -12   0 2316.52 55.4500   1
  -9  12   0 2418.71 68.6100   1
  12  -3  -3 267.870 27.0500   1
  12  -3   3 247.410 24.4300   1
  12   3   3 219.180 28.8300   1
  12   3  -3 217.150 27.8300   1
  12  -3   3 208.410 26.8400   1
 -12  -3  -3 266.440 29.7700   1
 -12   3  -3 265.470 33.4400   1
 -12   3   3 286.890 22.1600   1
  12  -3  -3 226.020 23.9000   1
 -12  -3  -3 290.890 32.0300   1
 -12  -3   3 255.370 21.4200   1
  -9  -1  -5 989.930 57.7600   1
  -9   1  -5 889.940 52.3200   1
   9   1   5 848.570 40.4400   1
   9  -1   5 777.090 34.5000   1
  -9   1  -5 667.820 50.3900   1
  -9  -1  -5 633.550 50.4300   1
  -9  -1   5 1013.07 38.9500   1
   9   1  -5 875.100 43.3100   1
   9  -1  -5 799.030 42.2200   1
  -9   1   5 980.110 39.2800   1
  -9   1   5 988.880 38.6800   1
  -8 -12   2 6131.06 118.110   1
  -8 -12   2 5058.28 101.550   1
   8 -12  -2 5757.72 101.460   1
   8 -12   2 5592.28 100.670   1
  -8  12  -2 4915.86 102.940   1
  -8  12   2 6174.60 116.990   1
   8 -12   2 5519.13 137.880   1
   8 -12  -2 6109.77 136.460   1
  -8 -12  -2 5910.55 131.050   1
  -8 -12   2 5664.23 161.420   1
  -8 -12  -2 5663.08 129.850   1
   4 -15  -1 1508.24 46.1600   1
   4 -15  -1 1294.33 69.1800   1
  -4 -15   1 1329.41 65.5800   1
  -4 -15   1 1532.90 45.2000   1
   4 -15   1 1677.66 51.0600   1
  -4  15  -1 1358.16 58.0100   1
  -4  15   1 1565.21 58.1700   1
   4 -15  -1 1351.21 57.4800   1
  -4 -15  -1 1310.87 55.3700   1
  -4 -15  -1 1889.73 64.8400   1
   4 -15   1 1220.07 57.6900   1
 -11   0   4 6.96000 13.8800   1
  11   0  -4 -6.8700 21.6900   1
 -11   0  -4 -11.980 28.3500   1
  11   0   4 33.6900 20.7100   1
 -11   0  -4 5.15000 24.0800   1
   5 -14   2 2961.03 67.6000   1
  -5  14  -2 2063.18 70.2800   1
  -5  14   2 2601.30 78.7900   1
   5 -14  -2 2482.20 63.2500   1
   5 -14  -2 2052.74 93.1400   1
  -5 -14   2 2483.36 91.2400   1
  -5 -14  -2 2261.37 89.2400   1
   5 -14  -2 2356.45 76.0700   1
   5 -14   2 2136.91 86.7000   1
  -5 -14  -2 2710.75 79.2600   1
  -5 -14   2 2869.83 71.6300   1
  -5 -14   2 2594.72 62.0100   1
  -4  -5   6 5981.87 108.310   1
  -4  -5  -6 6791.91 165.950   1
   4   5  -6 5502.30 118.560   1
  -4  -5  -6 5355.68 149.520   1
  -4   5   6 6043.73 113.960   1
   4  -5  -6 5550.31 130.100   1
   4  -5   6 5336.59 103.530   1
   4  -5   6 5237.87 104.480   1
  -4   5   6 6429.92 125.290   1
  -2  14   3 1135.70 48.8700   1
  -2  14  -3 1111.23 58.4000   1
  -2  14   3 1593.20 68.8400   1
  -2  14  -3 1852.20 97.2600   1
  -2 -14   3 1234.47 42.6000   1
  -2 -14  -3 1486.46 63.0700   1
  -2 -14  -3 1459.56 80.0200   1
   2 -14  -3 1531.10 79.5100   1
   2 -14   3 1203.48 38.9000   1
  -2 -14   3 1317.71 79.2700   1
   2 -14   3 1212.44 64.7900   1
   2 -14  -3 1455.39 57.8300   1
   2  14   3 1247.89 88.8300   1
  -2 -14  -3 1482.01 61.9800   1
 -11  -1  -4 447.350 41.5300   1
 -11   1  -4 449.930 40.3200   1
 -11   1  -4 331.650 34.0600   1
 -11  -1  -4 353.110 32.4200   1
  11   1  -4 391.780 31.4000   1
  11  -1   4 320.410 26.8100   1
  11  -1  -4 430.150 34.7500   1
  11   1   4 328.000 29.6300   1
  11  -1  -4 383.910 31.9000   1
 -11   1   4 424.150 26.6700   1
 -11  -1   4 348.480 23.6000   1
  -8   5   5 853.830 35.5900   1
   8   5  -5 912.050 42.5200   1
   8  -5   5 679.770 35.1000   1
   8  -5  -5 915.130 44.3500   1
  -8  -5   5 937.260 38.0600   1
  -8  -5  -5 1110.22 56.6800   1
  -8   5  -5 1201.06 65.2800   1
  -8  -5  -5 722.150 45.4800   1
   8  -5  -5 992.100 44.0500   1
  -8   5   5 812.580 36.6200   1
  -2 -15  -2 1655.72 71.0000   1
  -2 -15   2 1546.52 72.7600   1
   2 -15  -2 1522.06 80.0600   1
  -2  15  -2 1978.61 102.230   1
  -2 -15   2 1651.78 49.0500   1
  -2 -15   2 1636.60 53.1900   1
   2 -15  -2 1536.79 64.7500   1
  -2 -15  -2 1409.06 75.8300   1
  -2 -15  -2 1563.51 56.3600   1
   2 -15   2 1519.71 49.0000   1
  -2  15   2 1854.36 72.5900   1
  -2  15  -2 1346.31 67.2100   1
  -2  15   2 1593.12 82.5200   1
   2 -15  -2 1390.78 57.4900   1
   2 -15   2 1287.18 65.1600   1
 -10 -11   0 3546.05 112.240   1
 -10 -11   0 3398.53 85.5600   1
 -10  11   0 3316.08 81.5000   1
  10 -11   0 3158.85 82.6100   1
  10 -11   0 3277.57 70.7900   1
  -5 -13   3 300.710 22.1700   1
   5 -13  -3 360.870 30.1200   1
  -5 -13  -3 308.310 27.3200   1
  -5 -13   3 261.710 30.7300   1
  -5 -13  -3 306.370 29.4300   1
   5 -13   3 255.160 20.7500   1
  -5  13   3 307.240 28.6800   1
  -5 -13  -3 206.420 32.5800   1
   5 -13  -3 315.770 22.6200   1
   5 -13   3 257.050 19.9100   1
  -8  13   0 267.280 26.7700   1
  -8 -13   0 300.680 27.5300   1
   8 -13   0 282.010 23.1800   1
   8 -13   0 195.520 32.4800   1
  -8 -13   0 179.240 27.6200   1
   8 -13   0 189.150 24.6800   1
  -6   0   6 714.540 42.4500   1
   6   0  -6 838.880 41.4800   1
  -6   0  -6 718.230 51.3300   1
  -6   0  -6 901.570 58.6800   1
  -6   0   6 973.440 40.4400   1
   6   0   6 825.550 40.6100   1
   3  -6   6 7036.40 120.220   1
   3  -6   6 6986.66 119.630   1
   3   6  -6 6726.96 132.430   1
   3  -6  -6 7042.39 158.170   1
  -3  -6  -6 7020.64 171.550   1
  -3   6   6 7353.52 138.860   1
  -3  -6  -6 8346.04 197.510   1
  -3  -6   6 7639.41 130.250   1
  -3   6   6 7121.63 127.830   1
   9  -2   5 342.390 26.0800   1
   9   2   5 328.150 32.4200   1
  -9  -2  -5 421.610 38.7600   1
  -9   2  -5 395.990 43.8700   1
  -9   2  -5 286.380 36.5400   1
  -9  -2  -5 308.730 34.7500   1
  -9   2   5 309.690 22.0900   1
   9  -2  -5 335.780 28.6000   1
  -9   2   5 367.290 24.7400   1
  -9  -2   5 411.560 27.2300   1
   9   2  -5 349.690 28.7600   1
  13   5   1 1016.34 52.9600   1
  13  -5  -1 1012.75 38.8400   1
  13  -5  -1 968.840 48.0100   1
  13  -5   1 1252.03 42.4800   1
 -13  -5  -1 1147.46 45.4900   1
 -13   5  -1 1178.38 60.5400   1
 -13  -5   1 1096.16 43.2100   1
 -13   5   1 1189.49 49.8900   1
  13   5  -1 1091.38 51.4100   1
  13  -5   1 1028.76 48.5800   1
  12  -8   0 1421.45 56.7100   1
 -12  -8   0 1682.62 54.3300   1
  12  -8   0 1474.43 41.6200   1
  12   8   0 1541.13 76.0200   1
  -6  -8  -5 581.250 41.4000   1
  -6  -8  -5 557.760 39.5400   1
   6  -8  -5 661.230 44.6100   1
   6   8  -5 570.950 40.1800   1
  -6   8   5 682.640 39.5500   1
   6  -8  -5 498.200 30.5900   1
   6  -8   5 695.510 39.0300   1
   6  -8   5 597.340 30.7300   1
  -6  -8   5 638.330 33.0800   1
  -6   8   5 629.830 34.3100   1
  -6  -1   6 218.640 22.3200   1
  -6  -1  -6 221.180 43.6200   1
  -6   1  -6 250.990 51.2500   1
  -6   1   6 159.950 20.1500   1
  -6   1   6 234.650 23.6400   1
   6  -1   6 152.970 27.3600   1
   6   1   6 160.250 24.2100   1
  -6  -1  -6 112.030 22.6400   1
  -6  -1   6 192.190 20.0900   1
   6  -1   6 157.740 25.1700   1
  -6   1  -6 115.690 23.3900   1
   6  -1  -6 210.650 23.0900   1
   6   1  -6 186.280 24.9100   1
   3 -10  -5 553.440 36.2200   1
  -3  10   5 562.430 34.7500   1
   3 -10   5 611.370 34.0300   1
  -3 -10   5 567.700 31.9400   1
   3 -10  -5 636.040 52.6500   1
  -3 -10  -5 659.890 47.2100   1
   3  10   5 337.420 69.3900   1
  -3  10   5 566.980 38.2400   1
   3 -10   5 518.830 28.2800   1
  -3 -10  -5 557.620 36.6000   1
   3 -10  -5 763.240 42.0700   1
   0   7   6 1.81000 20.2500   1
   0  -7   6 10.0900 16.6000   1
   0   7   6 18.2000 18.6400   1
   0  -7   6 4.92000 16.0300   1
   0   7  -6 -1.0800 26.7200   1
   0  -7  -6 10.7300 33.4000   1
   0  -7  -6 -5.0300 19.0900   1
 -10 -10  -2 7.93000 20.6700   1
  10 -10  -2 131.020 24.3400   1
 -10 -10  -2 72.1100 26.9600   1
  10 -10   2 61.9600 19.0700   1
 -10 -10   2 56.1100 16.4900   1
  10 -10   2 55.7500 14.6100   1
 -10 -10   2 43.2700 18.2600   1
  10 -10  -2 79.4700 15.2000   1
  10 -10   2 107.510 16.6300   1
 -10  10   2 68.1600 20.2300   1
  10  10  -2 71.2500 23.6000   1
  10 -10   2 52.0200 20.4200   1
   5  -4  -6 12015.2 154.850   1
  -5   4   6 11413.0 130.500   1
  -5   4   6 12589.5 132.360   1
  -5  -4  -6 13411.7 203.500   1
  -5  -4  -6 11150.0 196.160   1
  -5  -4   6 11597.8 111.830   1
  13   3   2 567.780 42.2000   1
  13  -3   2 663.460 37.0300   1
  13  -3  -2 689.940 38.0300   1
  13   3   2 632.480 42.3400   1
  13   3  -2 658.010 40.6100   1
 -13   3  -2 810.550 49.2900   1
  13  -3   2 595.390 44.1500   1
 -13  -3  -2 882.360 41.4300   1
  13  -3  -2 740.360 41.1200   1
 -13   3   2 665.200 36.5500   1
 -13  -3   2 728.080 36.5800   1
 -11   2  -4 681.460 48.6500   1
 -11  -2   4 659.790 34.2200   1
 -11   2   4 656.020 34.2100   1
  11  -2  -4 633.960 42.1000   1
  11   2   4 686.550 43.1100   1
  11  -2   4 551.870 35.5500   1
 -11   2   4 765.200 34.2600   1
  11   2  -4 718.270 37.7800   1
  11  -2  -4 624.550 43.4700   1
 -11  -2  -4 589.710 46.1800   1
 -11   2  -4 528.140 42.3800   1
 -11  -2  -4 679.770 52.4300   1
   0  16   0 228.190 58.1900   1
   0 -16   0 217.640 27.4300   1
   0 -16   0 230.840 19.8500   1
  -7 -10  -4 2127.96 75.5900   1
  -7 -10   4 1427.81 45.0400   1
  -7  10   4 1888.75 54.4700   1
   7 -10  -4 1878.73 56.2200   1
   7 -10   4 1584.50 43.3000   1
  -7  10   4 1908.12 56.9100   1
   7  10  -4 1533.13 62.3100   1
   7 -10  -4 2004.28 68.9200   1
   7 -10   4 1825.27 58.4500   1
  -7 -10  -4 1498.55 65.3500   1
  -1  -7   6 239.250 22.4000   1
  -1  -7  -6 309.460 43.1500   1
   1   7   6 314.250 29.4700   1
   1  -7  -6 323.910 41.9800   1
  -1  -7  -6 329.030 34.9200   1
   1  -7  -6 293.960 30.2100   1
   1   7  -6 215.670 48.2400   1
  -1   7   6 301.370 28.0900   1
  -1  -7   6 252.010 24.1400   1
   1  -7   6 286.310 23.6100   1
   1   7   6 285.090 28.8700   1
  -1   7   6 282.230 24.4200   1
   1  -7   6 316.020 25.4600   1
  -7 -13  -2 2974.52 77.2300   1
  -7  13   2 2754.15 71.1000   1
  -7 -13   2 2727.99 68.5100   1
  -7 -13   2 2546.59 68.3100   1
   7 -13  -2 3045.00 68.0400   1
  -7 -13   2 2911.63 110.690   1
   7 -13   2 2973.33 65.0400   1
  -7  13  -2 2452.48 69.2100   1
   7 -13   2 2771.73 78.8100   1
   7 -13  -2 2634.34 80.1400   1
  -7 -13  -2 2676.25 88.8400   1
   4 -12  -4 2327.25 61.6000   1
   4 -12  -4 2583.53 77.0400   1
   4 -12   4 2922.82 68.5300   1
  -4  12   4 2597.48 76.1500   1
  -4 -12   4 2331.49 57.0800   1
  -4 -12  -4 2511.08 85.7200   1
  -4 -12   4 2185.44 92.1800   1
   4 -12   4 2962.05 72.8400   1
  -4  12   4 2560.46 73.0700   1
   4 -12  -4 2321.89 100.610   1
  -4 -12  -4 2686.35 95.2900   1
  -9 -12   1 1420.08 46.8900   1
  -9 -12   1 1518.06 78.2100   1
  -9 -12  -1 1466.63 67.3100   1
  -9 -12  -1 1359.35 45.5300   1
   9 -12   1 1505.70 51.9700   1
   9 -12   1 1531.70 43.7800   1
  -9  12   1 1493.59 49.9500   1
   9 -12  -1 1375.78 54.4000   1
   9 -12   1 1323.44 75.3400   1
  -9  12  -1 1245.22 45.8800   1
   9 -12  -1 1622.90 45.7800   1
  -7  -7  -5 239.610 34.4200   1
  -7  -7   5 264.330 21.7300   1
  -7   7   5 243.310 21.8900   1
   7  -7   5 221.820 22.9600   1
   7  -7  -5 242.190 21.0500   1
   7  -7   5 256.300 20.3000   1
  -7   7   5 272.270 26.8300   1
   7   7  -5 268.550 29.2800   1
   7  -7  -5 276.790 29.4600   1
  -7  -7  -5 186.510 25.5600   1
   1 -16   0 191.040 26.7400   1
   1 -16   0 197.700 20.2800   1
  -1 -16   0 183.430 27.4200   1
  -1 -16   0 218.200 20.1700   1
  -1  16   0 306.050 50.3700   1
   8 -11   3 217.030 22.5400   1
  -8 -11  -3 187.590 24.2200   1
   8 -11  -3 106.990 21.1300   1
  -8 -11   3 185.210 19.0100   1
   8 -11   3 173.130 20.6100   1
   8 -11  -3 137.870 15.6700   1
   8  11  -3 158.550 26.3300   1
  -8  11   3 142.880 19.8500   1
  -8 -11  -3 85.5100 28.5600   1
  -8 -11  -3 118.330 28.1400   1
   5  -9   5 225.420 17.9400   1
  -5   9   5 289.150 27.7700   1
  -5  -9  -5 161.890 35.8900   1
  -5  -9   5 241.110 21.5200   1
  -5   9   5 242.430 22.2600   1
   5  -9  -5 283.140 30.9900   1
   5  -9   5 245.750 22.4900   1
   5  -9  -5 205.780 18.5400   1
  -5  -9  -5 197.290 24.9900   1
   5   9  -5 189.020 24.7700   1
   8  -9   4 871.570 38.8400   1
   8  -9  -4 808.180 31.4600   1
   8  -9   4 973.090 43.1600   1
  -8   9   4 919.270 39.9900   1
  -8   9   4 865.320 37.1700   1
  -8  -9   4 786.330 33.6700   1
   8   9  -4 792.380 48.9300   1
  -8  -9  -4 735.050 46.1000   1
   8  -9  -4 941.350 45.2300   1
  -8  -9  -4 927.530 50.2700   1
  -6  -2  -6 3108.74 107.530   1
   6  -2   6 2447.19 63.6200   1
  -6   2  -6 3072.41 109.570   1
  -6   2   6 2080.31 61.9000   1
  -6  -2  -6 2297.61 86.0600   1
  -6   2  -6 2073.51 93.7000   1
   6  -2  -6 2302.71 72.0500   1
   6   2  -6 2055.89 70.3100   1
  -6  -2   6 2737.16 69.0000   1
  -6   2   6 2834.96 70.1200   1
  -6  -2   6 2391.88 57.8600   1
  -5 -15   0 429.440 39.1400   1
   5 -15   0 450.370 35.8200   1
  -5  15   0 408.400 31.8800   1
  -5 -15   0 365.300 27.1300   1
   5 -15   0 454.530 29.0900   1
  12  -4  -3 2603.31 69.1500   1
 -12  -4   3 2540.88 61.1900   1
  12  -4  -3 2657.49 81.9400   1
 -12   4   3 2626.27 68.8100   1
 -12  -4  -3 2588.16 82.1200   1
  12   4  -3 2266.47 77.2700   1
 -12   4  -3 2404.84 81.8700   1
  12  -4   3 2212.58 78.6500   1
 -12  -4  -3 2614.79 92.8800   1
 -12   4   3 2710.25 66.5500   1
  12  -4   3 2363.55 62.3300   1
   9 -10   3 557.870 33.9900   1
   9 -10  -3 636.870 32.9500   1
   9 -10   3 608.400 31.2300   1
  -9  10   3 625.190 36.1500   1
   9  10  -3 439.280 36.1400   1
  -9 -10  -3 508.920 39.8400   1
   9 -10  -3 455.430 31.5400   1
  -9 -10  -3 582.720 40.8000   1
  -9 -10   3 642.100 32.1100   1
 -10 -11   1 344.910 39.4600   1
 -10 -11   1 435.970 28.8800   1
 -10 -11  -1 384.210 38.0700   1
 -10 -11  -1 441.770 28.5300   1
  10 -11   1 258.750 32.8500   1
  10 -11   1 356.930 30.1400   1
  10 -11  -1 358.930 29.6600   1
  10 -11   1 480.700 30.2400   1
 -10  11   1 343.220 26.7700   1
 -10  11  -1 423.970 28.5300   1
  10 -11  -1 430.120 25.1400   1
  -8 -13   1 1611.28 76.4300   1
   8 -13  -1 1759.33 102.790   1
  -8 -13  -1 1631.55 57.3100   1
  -8 -13  -1 1842.57 81.5400   1
  -8  13   1 1651.47 55.6000   1
   8 -13  -1 1634.19 62.1200   1
  -8 -13   1 1545.32 46.2900   1
   8 -13  -1 1688.77 46.2700   1
  -8  13  -1 1590.23 58.0400   1
   8 -13   1 1615.00 57.7400   1
  -3 -14  -3 575.280 37.5600   1
  -3 -14   3 499.800 29.8100   1
   3 -14   3 529.930 30.7300   1
  -3 -14   3 560.760 45.0100   1
   3 -14  -3 539.970 45.9800   1
  -3 -14  -3 479.750 46.4800   1
   3 -14   3 481.780 27.7900   1
  -3 -14  -3 524.330 37.1300   1
   3 -14  -3 692.970 44.6300   1
  -3  14  -3 624.060 51.8600   1
  -3  14   3 600.550 43.4100   1
   3 -14  -3 507.680 31.5200   1
  -9  -3  -5 1204.86 56.5900   1
  -9   3  -5 1262.19 63.6800   1
  -9   3  -5 872.270 51.9600   1
  -9  -3  -5 1094.22 61.8000   1
   9  -3   5 1017.91 39.4600   1
   9   3   5 1006.06 53.4700   1
   9   3  -5 1210.75 52.4600   1
  -9   3   5 1220.88 41.5400   1
  -9  -3   5 1177.02 42.0800   1
  -9   3   5 1091.48 41.4500   1
   9  -3  -5 1092.20 46.7200   1
  14   0   0 4737.73 118.140   1
  14   0   0 4834.41 108.740   1
 -14   0   0 4559.41 103.700   1
 -13  -6   0 4762.40 96.5400   1
  13   6   0 4590.07 124.980   1
  13  -6   0 5520.94 127.060   1
 -13   6   0 4672.79 127.290   1
  13  -6   0 5655.60 105.220   1
  -3 -15  -2 440.790 31.1000   1
  -3 -15   2 437.810 27.8500   1
   3 -15   2 415.370 39.8100   1
   3 -15  -2 485.850 39.8700   1
  -3 -15  -2 414.250 35.0900   1
  -3 -15   2 437.050 41.9900   1
   3 -15   2 444.850 27.4600   1
   3 -15  -2 447.440 37.4600   1
   3 -15  -2 374.520 35.0500   1
  -3 -15  -2 476.240 48.3600   1
  -3  15  -2 498.230 49.6600   1
   3 -15  -2 433.040 27.2000   1
   3 -15   2 502.940 31.6900   1
  -3  15  -2 383.130 31.0700   1
  -3  15   2 456.610 35.5400   1
  -3 -15   2 455.840 27.8100   1
  10  -6  -4 2256.87 58.6500   1
 -10   6   4 2295.04 60.5400   1
 -10  -6   4 2157.20 52.6600   1
 -10  -6  -4 2648.42 88.7900   1
 -10   6  -4 2637.17 103.080   1
 -10  -6  -4 2084.92 82.0700   1
  10  -6  -4 2635.40 69.4400   1
 -10   6   4 2594.39 69.6900   1
  10   6  -4 2511.44 79.9600   1
  10  -6   4 2272.87 54.7900   1
 -11 -10   0 134.180 20.6400   1
 -11 -10   0 83.0300 29.1500   1
 -11  10   0 111.070 23.6500   1
  11 -10   0 112.520 33.2600   1
  11 -10   0 132.770 21.0400   1
  -6  11   4 3513.77 91.5900   1
   6  11  -4 3018.36 103.200   1
   6 -11  -4 3253.33 74.4900   1
   6 -11  -4 3438.94 92.1900   1
  -6 -11  -4 3278.94 105.990   1
  -6  11   4 3366.97 87.1500   1
   6 -11   4 2939.50 73.4200   1
  -6 -11  -4 3575.74 97.4900   1
  -6 -11   4 3202.39 71.0000   1
   6 -11   4 3885.84 82.6000   1
 -12  -8   1 572.280 31.0500   1
  12  -8  -1 570.070 29.8800   1
  12  -8   1 593.070 31.4200   1
 -12   8   1 515.070 29.2900   1
  12   8  -1 411.650 35.8100   1
  12  -8   1 511.280 39.9000   1
  12  -8  -1 492.530 38.9900   1
 -12  -8  -1 562.930 50.6200   1
 -12  -8  -1 484.110 30.4600   1
  -7 -12  -3 419.820 41.5700   1
   7 -12  -3 333.310 28.2000   1
  -7  12   3 479.620 30.7000   1
   7 -12   3 538.000 30.5900   1
   7 -12  -3 458.700 26.3700   1
  -7 -12  -3 441.670 36.0000   1
  -7 -12   3 412.210 42.9300   1
  -7 -12  -3 290.740 37.0700   1
  -7 -12   3 479.440 29.4600   1
   7 -12   3 596.150 38.2400   1
  14  -1   0 1091.03 52.8000   1
  14   1   0 1134.74 53.0000   1
  14  -1   0 1278.76 50.6800   1
  14   1   0 1135.63 48.8700   1
 -14  -1   0 1186.65 46.1500   1
 -14   1   0 1036.43 45.4900   1
   2   7   6 3871.79 112.830   1
  -2   7   6 3847.38 99.8800   1
   2  -7   6 4155.84 90.1500   1
  -2   7   6 3710.24 88.8800   1
   2  -7   6 4097.98 88.6200   1
  -2  -7   6 3981.19 84.9100   1
  -2  -7  -6 4694.17 132.020   1
   2   7  -6 3406.98 90.7100   1
   2  -7  -6 4326.29 105.720   1
  -2  -7  -6 3336.54 101.820   1
   0 -13  -4 39.9900 30.8000   1
   0 -13  -4 -21.360 30.4900   1
   0  13   4 6.86000 27.1000   1
   0 -13   4 61.0300 20.0700   1
   0  13  -4 113.420 48.9500   1
  11  -7  -3 459.000 32.1500   1
  11   7  -3 494.730 35.2300   1
 -11   7   3 476.880 29.6900   1
  11  -7  -3 610.600 34.5500   1
 -11  -7   3 530.920 29.1800   1
  11  -7   3 380.230 30.6500   1
 -11   7  -3 526.640 47.9500   1
 -11   7   3 473.330 30.0500   1
 -11  -7  -3 441.650 34.5600   1
  11  -7   3 512.410 28.6800   1
  11  -7   3 286.580 41.0300   1
 -11  -7  -3 441.910 40.2500   1
  -7 -14   0 2706.29 73.3900   1
   7 -14   0 2784.95 64.3800   1
  -7  14   0 2261.27 68.1600   1
   7 -14   0 2472.05 76.1500   1
  -7 -14   0 2426.04 87.4900   1
   7 -14   0 2465.26 105.750   1
 -11   3   4 1034.67 36.6200   1
  11  -3   4 954.440 38.0400   1
  11   3   4 902.610 49.9000   1
 -11   3   4 996.920 36.8900   1
  11  -3  -4 1064.53 47.5100   1
  11   3  -4 984.050 43.6600   1
  11  -3  -4 1092.81 57.7700   1
 -11   3  -4 803.120 54.9500   1
 -11  -3  -4 797.150 45.4700   1
 -11   3  -4 1076.74 57.4800   1
 -11  -3  -4 999.030 52.3600   1
 -11  -3   4 941.490 35.3300   1
   2 -16   0 175.720 17.8300   1
  -2 -16   0 162.280 18.8200   1
  -2  16   0 149.740 23.9200   1
  -2  16   0 200.240 44.4400   1
   2 -16   0 147.680 24.6100   1
  -2 -16   0 154.380 25.8100   1
   0 -16   1 0.16000 13.3700   1
   0 -16  -1 -17.320 20.1300   1
   0 -16   1 -0.0100 20.4200   1
   0  16  -1 16.3600 50.5800   1
   0  16   1 25.0100 45.9200   1
   0 -16  -1 -5.6200 14.8200   1
   1 -13  -4 3188.09 118.490   1
  -1 -13  -4 3432.80 111.290   1
  -1  13   4 3153.96 90.4500   1
   1  13   4 2778.69 141.920   1
   1 -13  -4 3044.69 88.5800   1
  -1 -13  -4 2557.93 80.0000   1
  -1  13  -4 3351.07 139.150   1
  -1 -13   4 3114.55 69.8000   1
   1 -13   4 2750.82 62.2500   1
  12   7  -2 2069.66 79.5000   1
  12  -7   2 2413.98 80.7600   1
  12  -7  -2 2351.32 80.2300   1
  12  -7   2 2631.74 59.9800   1
 -12   7   2 2584.64 64.6600   1
 -12   7  -2 2132.90 93.5400   1
 -12  -7  -2 2521.55 80.1400   1
 -12  -7   2 2400.98 68.9800   1
 -12  -7   2 2368.11 62.5200   1
  12  -7  -2 2353.79 62.8100   1
 -12  -7  -2 2661.68 98.0000   1
 -13  -4  -2 1610.83 66.0200   1
 -13   4   2 1516.54 55.0900   1
 -13  -4   2 1568.14 53.5600   1
  13   4   2 1230.49 57.5300   1
  13  -4  -2 1451.67 48.5700   1
  13  -4   2 1499.41 48.0200   1
  13   4  -2 1291.48 56.6700   1
  13  -4  -2 1498.12 60.4800   1
 -13  -4  -2 1370.63 71.7200   1
 -13   4  -2 1631.16 68.7400   1
  13  -4   2 1297.27 57.3800   1
   9  -8  -4 119.330 18.1200   1
   9  -8  -4 127.780 23.9600   1
   9   8  -4 140.860 26.2800   1
   9  -8   4 100.480 19.8200   1
  -9   8   4 119.820 15.6000   1
  -9  -8  -4 79.9400 23.6100   1
   9  -8   4 107.120 17.9100   1
  -9  -8  -4 107.140 23.9400   1
  -9   8   4 79.7900 21.3100   1
  -9  -8   4 106.040 19.5500   1
  -6   3  -6 261.970 44.8300   1
  -6  -3  -6 249.680 43.0800   1
  -6   3   6 301.280 26.7600   1
   6   3  -6 209.790 28.0700   1
  -6   3   6 249.350 19.7900   1
   6  -3  -6 231.020 25.8000   1
  -6  -3   6 299.210 25.0200   1
  -6  -3  -6 193.320 25.6300   1
   6  -3   6 302.060 24.9400   1
   6  -3   6 354.910 28.6000   1
  -1 -16  -1 116.750 18.5200   1
  -1 -16   1 90.5100 19.1800   1
   1 -16  -1 80.5000 18.4200   1
  -1 -16   1 80.7500 22.5600   1
  -1 -16  -1 76.9700 23.7000   1
   1 -16   1 48.4700 22.1800   1
   1 -16  -1 62.0800 22.1200   1
   1  16   1 43.8600 48.6300   1
  -1  16  -1 163.600 50.6000   1
  -1  16   1 89.0700 36.5300   1
   1 -16   1 74.2400 15.0900   1
  -4   6   6 77.5300 20.9300   1
  -4  -6  -6 108.660 36.9700   1
  -4  -6  -6 48.5600 21.9100   1
   4  -6   6 57.9900 14.4300   1
   4  -6   6 92.6100 23.1300   1
  -4   6   6 44.8400 17.8100   1
  -4  -6   6 63.4600 17.3200   1
   4   6  -6 78.5600 18.3800   1
   4  -6  -6 91.2100 23.2500   1
 -14   2   0 673.940 43.2900   1
 -14  -2   0 698.890 43.3200   1
  14   2   0 815.570 45.2300   1
  14  -2   0 766.520 35.7200   1
  14  -2   0 807.060 49.5700   1
  14   2   0 803.880 50.9900   1
   5 -15   1 427.960 32.4300   1
   5 -15  -1 584.390 39.6600   1
  -5 -15  -1 567.170 44.9200   1
  -5 -15   1 531.170 42.3800   1
  -5 -15  -1 641.630 36.3300   1
  -5 -15   1 562.770 33.0600   1
   5 -15  -1 597.760 54.8200   1
   5 -15  -1 661.720 34.0100   1
   5 -15   1 642.710 36.0300   1
  -5  15  -1 509.280 36.8100   1
  -5  15   1 541.820 38.9200   1
   8  -6  -5 1378.85 51.2800   1
   8   6  -5 1047.89 47.8900   1
  -8   6   5 1377.59 50.0000   1
   8  -6   5 1211.71 36.8100   1
  -8  -6  -5 1006.14 58.6700   1
  -8   6   5 1265.29 43.4900   1
   8  -6  -5 1237.62 47.0100   1
   8  -6   5 1167.29 45.6900   1
  -8  -6   5 1220.65 39.7600   1
  -8  -6  -5 1083.35 52.2500   1
  -8   6  -5 1452.69 71.5000   1
  11  -9  -2 2231.56 70.7700   1
  11   9  -2 1882.00 74.2300   1
 -11   9   2 2141.90 58.1100   1
  11  -9   2 1930.41 54.6200   1
 -11  -9   2 2073.70 57.1700   1
 -11  -9  -2 2252.83 72.8900   1
  11  -9  -2 2048.99 53.0800   1
 -11  -9   2 2061.46 60.6200   1
  11  -9   2 2093.98 77.1700   1
  11  -9   2 1307.45 92.0900   1
 -11  -9  -2 1833.81 85.0300   1
   0 -11  -5 2586.77 100.190   1
   0 -11  -5 2144.55 77.3500   1
   0  11   5 2237.93 79.3600   1
   0  11  -5 2450.69 145.580   1
   0 -11   5 2671.81 67.4200   1
  -5   5   6 933.910 38.9600   1
  -5  -5  -6 858.980 52.8900   1
  -5  -5   6 899.190 37.4300   1
   5  -5  -6 1113.33 54.4500   1
   5  -5   6 885.970 40.2700   1
   5  -5   6 841.620 30.5300   1
  -5   5   6 1119.14 47.7400   1
   5   5  -6 803.950 42.7700   1
  -5  -5  -6 806.540 47.3800   1
   4 -10   5 1942.92 58.7600   1
  -4 -10   5 1754.98 51.1300   1
  -4 -10  -5 1910.21 72.8800   1
  -4  10   5 1731.49 58.5300   1
  -4 -10  -5 1755.81 76.2100   1
  -4  10   5 1965.77 66.5600   1
   4  10   5 1138.70 116.410   1
   4 -10  -5 2020.61 67.9400   1
   4 -10   5 1967.31 55.1500   1
   4  10  -5 1469.99 66.5400   1
   4 -10  -5 1594.78 51.1500   1
  10  -9  -3 506.740 28.3000   1
 -10   9   3 482.800 28.8500   1
 -10  -9  -3 443.340 36.5200   1
 -10  -9   3 380.330 27.2900   1
  10  -9   3 538.580 29.8900   1
 -10   9   3 498.560 33.0800   1
  10   9  -3 456.420 38.1300   1
  10  -9  -3 506.860 34.0600   1
 -10  -9  -3 430.500 38.7100   1
  14   0   1 86.0500 25.1800   1
  14   0  -1 83.4700 22.6000   1
  14   0   1 65.5200 22.2500   1
 -14   0   1 61.9800 15.0300   1
 -14   0  -1 117.830 20.5900   1
  14   0  -1 64.3800 23.4300   1
 -13   6   1 1365.93 54.5600   1
 -13  -6  -1 1495.33 52.7800   1
 -13   6  -1 1498.18 68.7300   1
 -13  -6   1 1512.09 51.0300   1
  13   6  -1 1365.07 59.0500   1
  13  -6  -1 1520.37 61.1800   1
  13  -6  -1 1532.19 48.9700   1
  13  -6   1 1397.98 62.9100   1
  13  -6   1 1552.34 48.4100   1
  13   6   1 1407.30 75.5200   1
  -1 -11  -5 681.150 48.3300   1
   1 -11  -5 509.150 33.5400   1
  -1  11   5 576.790 36.6200   1
   1 -11  -5 611.490 48.6200   1
  -1  11   5 756.210 43.3700   1
   1 -11  -5 759.110 48.7200   1
  -1 -11  -5 595.350 44.0000   1
  -1 -11   5 614.520 33.8100   1
   1 -11   5 596.270 33.5900   1
   1 -11   5 694.740 38.3500   1
  -1  11  -5 570.670 71.7200   1
 -11 -10  -1 291.780 24.3800   1
 -11 -10   1 233.540 23.0000   1
  11  10  -1 285.330 34.8600   1
 -11 -10  -1 269.350 33.2700   1
  11 -10   1 301.130 29.0200   1
 -11  10   1 307.950 24.8000   1
  11 -10   1 347.560 24.6500   1
  11 -10  -1 232.290 24.2100   1
  11 -10  -1 297.890 22.7900   1
   2 -13  -4 3329.22 78.9200   1
  -2  13   4 3294.53 95.2500   1
   2 -13  -4 4026.74 120.320   1
  -2 -13  -4 3965.43 109.740   1
  -2 -13  -4 3425.49 98.4400   1
   2 -13  -4 4289.85 109.760   1
   2  13   4 2989.33 160.960   1
  -2  13   4 4177.68 106.000   1
  -2 -13   4 3487.58 74.1300   1
  -2 -13   4 3886.14 124.800   1
   2 -13   4 4307.67 95.3500   1
  -2  13  -4 3977.57 143.540   1
   2 -13   4 3866.24 82.6200   1
  14   1   1 1485.99 67.9800   1
 -14   1  -1 1655.82 58.6700   1
  14   1  -1 1527.36 59.5300   1
  14  -1   1 1663.14 64.4600   1
  14  -1  -1 1648.69 57.1900   1
  14  -1  -1 1431.74 56.8900   1
  14  -1   1 1534.16 54.3400   1
  14   1   1 1635.31 60.4500   1
  14   1  -1 1689.29 62.0500   1
 -14  -1   1 1654.49 52.6800   1
 -14   1   1 1815.62 64.5500   1
 -14  -1  -1 1775.43 65.3000   1
   9  -4   5 467.420 27.9000   1
  -9  -4  -5 510.560 46.0100   1
  -9   4  -5 508.760 46.3500   1
  -9  -4  -5 399.890 39.0800   1
   9  -4  -5 490.600 34.4800   1
   9   4  -5 535.820 37.3900   1
  -9   4   5 512.420 30.5800   1
   9  -4  -5 459.870 32.5200   1
  -9   4   5 466.200 27.8800   1
  -9  -4   5 498.880 31.5600   1
  -6  14   2 1055.15 46.5200   1
  -6 -14  -2 1009.97 55.9900   1
   6 -14  -2 869.800 42.6000   1
   6 -14   2 798.700 42.9600   1
  -6 -14   2 1074.17 39.7300   1
  -6 -14   2 999.890 40.3800   1
   6 -14  -2 1070.18 37.4300   1
   6 -14   2 1207.43 40.8400   1
  -6  14  -2 902.420 44.1100   1
  -6 -14  -2 1181.77 52.0900   1
  -6 -14   2 915.270 54.8400   1
   7 -14   1 722.240 41.2300   1
  -7  14   1 776.600 38.9700   1
   7 -14   1 763.190 29.6300   1
   7 -14  -1 704.960 34.7700   1
  -7 -14   1 755.210 32.8800   1
  -7 -14  -1 664.720 40.4600   1
  -7 -14   1 776.030 56.8300   1
  -7 -14  -1 663.850 46.3200   1
   7 -14  -1 674.930 61.9600   1
  -7  14  -1 660.040 37.9800   1
   7 -14  -1 658.240 41.2600   1
  -2 -16  -1 3565.86 88.3700   1
   2 -16  -1 3567.64 104.960   1
   2 -16  -1 3569.15 105.450   1
  -2 -16   1 3366.67 113.670   1
   2 -16   1 3129.35 73.4500   1
   2 -16   1 3094.22 98.3300   1
  -2 -16  -1 3410.71 96.1100   1
  -2  16   1 3268.31 117.750   1
  -2  16  -1 3144.50 97.2300   1
  -2  16   1 3417.83 103.790   1
  -2 -16   1 3342.42 82.2500   1
   3  -7   6 5.03000 16.3300   1
  -3  -7  -6 34.8500 22.3500   1
  -3   7   6 28.9000 19.2900   1
   3   7  -6 14.6100 18.0300   1
   3  -7   6 4.43000 14.6400   1
   3  -7  -6 18.2600 24.6100   1
  -3   7   6 40.7300 16.3100   1
  -3  -7  -6 5.57000 37.3300   1
  -3  -7   6 23.5300 16.8700   1
  12  -5   3 1260.99 61.1500   1
  12   5  -3 1149.07 53.8700   1
  12  -5  -3 1333.23 55.4200   1
 -12  -5  -3 1257.14 60.9200   1
 -12   5   3 1424.82 45.6600   1
 -12  -5   3 1343.40 44.5900   1
  12  -5  -3 1303.83 48.0400   1
 -12   5  -3 1484.26 71.8800   1
  12  -5   3 1251.27 40.2300   1
 -12  -5  -3 1524.38 66.8800   1
 -12   5   3 1435.00 44.8700   1
  -3 -16   0 35.6500 20.0100   1
   3 -16   0 26.8700 20.0800   1
  -3  16   0 10.2300 20.7000   1
  -3 -16   0 -3.1900 15.2000   1
 -11   4   4 830.710 36.2200   1
  11  -4   4 827.370 36.7300   1
  11  -4  -4 717.260 37.4700   1
  11   4   4 665.220 46.4200   1
 -11   4   4 787.200 32.4000   1
 -11  -4   4 790.930 31.8500   1
 -11  -4  -4 768.720 47.4700   1
 -11   4  -4 905.390 54.6100   1
  11  -4  -4 879.870 48.9500   1
 -11  -4  -4 734.400 47.0900   1
  11   4  -4 800.750 42.9800   1
 -11   4  -4 710.740 52.0500   1
   6 -13   3 840.020 33.4800   1
   6 -13  -3 842.420 34.5400   1
   6 -13   3 747.280 33.8300   1
  -6 -13   3 628.830 33.9500   1
  -6 -13  -3 757.050 40.7900   1
  -6 -13  -3 687.300 48.6000   1
  -6 -13  -3 604.220 56.6600   1
  -6 -13   3 696.990 57.0600   1
   6 -13  -3 701.230 38.3800   1
  -6  13   3 699.480 38.6500   1
 -14  -3   0 5797.43 120.610   1
 -14   3   0 5398.66 115.280   1
  14  -3   0 5865.20 130.210   1
  14   3   0 5790.23 138.440   1
  14  -3   0 6305.93 118.160   1
  14   3   0 5953.01 137.530   1
  -4  14   3 340.170 29.6900   1
   4 -14  -3 345.090 30.2500   1
  -4 -14  -3 382.980 34.1900   1
  -4 -14   3 309.450 22.6200   1
   4 -14   3 286.260 22.5100   1
  -4 -14  -3 267.930 41.8000   1
  -4 -14   3 307.750 33.6400   1
  -4 -14  -3 353.070 31.5500   1
   4 -14  -3 355.480 25.1700   1
   4 -14   3 385.580 27.3600   1
   5 -12   4 892.660 33.2700   1
  -5 -12  -4 940.290 51.6300   1
  -5 -12   4 793.590 31.4800   1
   5 -12   4 782.000 38.1800   1
   5 -12  -4 768.780 31.3600   1
   5 -12  -4 787.760 38.2800   1
  -5  12   4 791.510 43.5600   1
  -5 -12  -4 819.300 43.3200   1
  -5 -12   4 858.280 57.0600   1
  -5  12   4 740.120 35.2800   1
   4 -15  -2 105.120 20.4600   1
  -4  15  -2 77.9600 17.8600   1
  -4 -15  -2 104.920 22.4300   1
   4 -15   2 71.6100 20.2000   1
  -4  15   2 99.7000 20.3200   1
  -4 -15   2 91.0200 16.4500   1
  -4 -15   2 76.1800 18.0200   1
   4 -15  -2 82.0200 19.1600   1
   4 -15   2 110.360 19.8200   1
   4 -15  -2 118.940 29.3100   1
  -4 -15   2 117.080 22.8600   1
  -4 -15  -2 112.530 22.0600   1
  14  -2  -1 239.670 23.8500   1
  14  -2   1 237.850 25.2900   1
  14   2  -1 204.210 30.1600   1
 -14  -2   1 264.430 20.4100   1
 -14  -2  -1 225.690 21.8600   1
 -14   2  -1 234.100 24.6600   1
  14  -2  -1 210.180 23.4200   1
 -14   2   1 197.230 18.5000   1
  14   2  -1 238.350 25.8800   1
  14   2   1 189.280 27.2700   1
  14  -2   1 188.900 24.2000   1
  14   2   1 194.150 27.6700   1
  -2 -11  -5 1379.71 57.7200   1
  -2 -11   5 1639.75 46.1500   1
   2 -11   5 1520.13 46.7900   1
  -2  11   5 1422.71 55.6000   1
   2 -11  -5 1174.34 43.2400   1
   2 -11   5 1431.04 44.8100   1
  -2  11   5 1395.29 57.8700   1
   2 -11  -5 1394.37 68.9600   1
   2  11   5 972.690 84.8100   1
   2 -11  -5 1434.13 51.7500   1
  -2 -11  -5 1542.02 68.9300   1
  -6   4  -6 494.660 46.3900   1
   6  -4  -6 517.300 32.6500   1
  -6  -4  -6 429.500 34.8000   1
  -6   4   6 337.400 21.4300   1
  -6  -4  -6 326.030 44.0900   1
  -6  -4   6 373.160 23.0200   1
  -6   4   6 422.400 25.0100   1
   6  -4   6 346.300 24.4600   1
   6  -4   6 400.670 23.3300   1
   6   4  -6 404.380 29.0200   1
   0  -8   6 553.210 27.6600   1
   0   8   6 458.460 31.2000   1
   0  -8   6 515.220 29.3200   1
   0   8   6 522.980 38.0800   1
   0   8  -6 412.720 58.0900   1
   0  -8  -6 540.500 42.0800   1
   0  -8  -6 569.010 60.1200   1
  -7   0  -6 103.770 35.1400   1
   7   0  -6 21.9600 19.6600   1
  -7   0   6 -0.2100 19.3200   1
  -7   0   6 7.58000 17.7100   1
   7   0   6 95.0000 27.7100   1
  -7   0  -6 39.9400 25.2600   1
  -1  -8   6 2537.51 52.9300   1
   1  -8   6 2735.14 59.4900   1
  -1   8   6 2823.99 74.6000   1
   1   8   6 2230.04 61.2700   1
   1   8   6 2586.94 77.6100   1
  -1   8   6 2451.75 73.6600   1
   1  -8   6 2647.55 60.6900   1
  -1  -8   6 2406.73 62.8300   1
   1  -8  -6 2792.79 100.910   1
  -1  -8  -6 2091.27 73.2300   1
   1   8  -6 2046.34 137.120   1
  -1  -8  -6 2973.75 104.930   1
   1  -8  -6 2631.90 79.5600   1
 -12  -9   0 725.700 51.3800   1
  12  -9   0 725.500 44.3500   1
 -12   9   0 778.540 33.2100   1
  12  -9   0 721.290 30.5400   1
 -12  -9   0 568.540 29.5900   1
  13  -5  -2 727.880 40.5700   1
  13  -5   2 823.700 47.0500   1
 -13   5  -2 673.090 44.2700   1
 -13  -5  -2 729.470 40.0200   1
 -13  -5  -2 707.020 51.1500   1
 -13   5   2 687.340 33.5300   1
 -13  -5   2 819.270 37.5000   1
  13  -5  -2 759.160 34.1300   1
  13  -5   2 936.700 36.2800   1
  13   5  -2 740.230 41.0100   1
   6  -9   5 5612.90 78.9700   1
  -6   9   5 5295.40 90.4300   1
   6   9  -5 5270.11 118.010   1
  -6  -9  -5 4985.39 110.810   1
  -6   9   5 5402.92 91.7600   1
  -6  -9   5 4820.52 74.4400   1
  -6  -9  -5 5444.24 119.370   1
  -7   8   5 3308.54 70.3100   1
  -7  -8  -5 2668.13 85.6800   1
  -7  -8  -5 3265.50 87.8400   1
  -7  -8   5 3025.64 61.0600   1
   7  -8   5 3365.78 71.2600   1
   7  -8  -5 2762.78 59.0000   1
   7  -8   5 3045.61 55.7300   1
   7   8  -5 2921.41 83.2900   1
   7   1   6 2328.10 73.6500   1
   7   1  -6 2920.82 77.9100   1
  -7  -1  -6 2342.35 80.2000   1
   7  -1  -6 3081.99 72.8500   1
  -7   1   6 3231.14 69.2600   1
  -7  -1   6 2639.23 59.7200   1
   7  -1   6 2813.26 68.4300   1
  -7   1   6 3066.64 60.3600   1
  -7  -1   6 2830.01 59.8600   1
  -7  -1  -6 2948.40 98.4000   1
  -7   1  -6 2999.20 97.7700   1
  -3 -13   4 150.540 15.5800   1
  -3 -13  -4 207.430 29.8500   1
   3 -13  -4 155.940 17.9400   1
  -3  13   4 148.760 17.9900   1
   3 -13   4 157.740 16.5800   1
   3 -13  -4 252.860 38.7900   1
  -3 -13   4 114.670 22.6100   1
  -3 -13  -4 119.330 24.1500   1
   3 -13  -4 154.440 35.3500   1
   3  13   4 137.180 42.2600   1
  -3  13   4 104.250 30.1800   1
   3 -13   4 106.860 21.6900   1
   6 -15   0 1559.51 39.5800   1
   6 -15   0 1354.10 71.1800   1
  -6  15   0 1444.87 49.4200   1
   6 -15   0 1291.18 48.5800   1
  -6 -15   0 1582.56 62.8400   1
  -6 -15   0 1508.69 44.7600   1
  13  -7   0 280.280 28.3700   1
  13   7   0 218.970 29.2600   1
  13  -7   0 300.670 23.0400   1
 -13  -7   0 206.430 20.3000   1
  10   7  -4 1376.73 56.6100   1
 -10  -7  -4 1574.23 68.5600   1
 -10   7   4 1662.91 47.7000   1
 -10   7   4 1545.59 44.3500   1
  10  -7   4 1645.64 42.8300   1
 -10  -7   4 1478.10 42.9400   1
  10  -7  -4 1596.72 46.8000   1
  10  -7  -4 1643.36 55.2200   1
 -10  -7  -4 1623.31 62.8800   1
 -10   7  -4 1432.62 68.0700   1
  -3  16   1 111.240 24.5700   1
  -3  16  -1 85.8500 23.9400   1
  -3 -16   1 113.820 18.0100   1
  -3 -16  -1 102.010 20.2700   1
  -3  16  -1 102.610 38.7500   1
   3 -16  -1 102.190 28.3200   1
   3 -16   1 96.1400 22.0800   1
   3 -16  -1 81.1000 22.6800   1
  -3 -16  -1 94.0100 24.8800   1
  -3 -16   1 89.9700 22.9200   1
  -9 -12   2 705.450 56.4500   1
  -9 -12  -2 502.740 37.3800   1
   9 -12   2 668.900 45.6700   1
  -9  12   2 619.710 32.4400   1
  -9 -12   2 465.130 26.8700   1
   9 -12   2 596.710 26.0000   1
   9 -12  -2 462.420 29.9100   1
  -9 -12  -2 590.560 34.6600   1
   9 -12  -2 668.810 27.6600   1
  -9 -12   2 581.930 29.4200   1
  -9  12  -2 556.480 30.7700   1
 -14  -3  -1 533.590 32.9500   1
 -14   3   1 445.470 31.5100   1
 -14  -3   1 470.810 25.4200   1
  14   3   1 406.980 34.0200   1
  14  -3  -1 522.060 29.6400   1
  14   3   1 409.020 33.3600   1
  14  -3   1 378.570 28.6600   1
  14  -3  -1 480.360 30.6600   1
  14   3  -1 435.140 34.4900   1
 -14   3  -1 521.900 36.4900   1
  -7  -2   6 196.390 21.2200   1
   7  -2  -6 220.950 27.1900   1
   7   2  -6 174.140 22.0800   1
  -7   2   6 155.210 20.9200   1
   7  -2   6 188.870 30.3600   1
  -7   2   6 127.690 24.9400   1
  -7  -2  -6 164.610 30.7800   1
  -7   2  -6 217.590 44.1800   1
  -7  -2  -6 192.470 41.6400   1
 -13   0   3 12.8100 14.7400   1
  13   0   3 37.6600 22.8500   1
 -13   0  -3 -4.1600 22.2200   1
  13   0  -3 43.3700 23.1500   1
 -13   0  -3 3.42000 23.9400   1
  13   0  -3 14.8800 22.1400   1
  -5  -6  -6 1442.67 64.2900   1
   5  -6  -6 1779.11 60.6300   1
   5   6  -6 1379.84 52.4600   1
  -5   6   6 1576.31 47.6900   1
  -5  -6  -6 1626.86 67.9000   1
   5  -6   6 1707.36 44.4800   1
  -5  -6   6 1432.45 41.7300   1
  -5   6   6 1793.64 51.5400   1
   5  -6   6 1803.96 55.4900   1
  -9  -5   5 238.390 19.2700   1
   9  -5  -5 230.710 24.9100   1
  -9  -5  -5 253.580 26.9600   1
  -9  -5  -5 258.600 34.7600   1
  -9   5  -5 257.210 42.0200   1
   9   5  -5 222.520 25.7500   1
  -9   5   5 262.450 21.9100   1
   9  -5   5 248.380 19.7800   1
   9  -5  -5 190.410 22.4700   1
  -9   5   5 273.290 21.0400   1
  14  -4   0 227.840 23.3200   1
 -14  -4   0 196.810 20.0600   1
  14   4   0 162.570 25.9200   1
  14  -4   0 257.450 27.0000   1
 -14   4   0 199.110 21.9700   1
  -2   8   6 84.5600 22.5600   1
   2  -8  -6 63.3900 24.9900   1
  -2  -8  -6 118.300 25.5100   1
   2   8   6 102.960 26.4700   1
   2  -8  -6 113.610 38.1000   1
  -2  -8  -6 112.650 43.2600   1
  -2  -8   6 102.610 19.6500   1
   2  -8   6 132.940 20.1200   1
  -2   8   6 89.7000 18.8000   1
   2  -8   6 130.290 19.4100   1
 -10   0  -5 2918.27 101.550   1
 -10   0  -5 3313.87 101.950   1
  10   0   5 3552.51 86.5900   1
 -10   0   5 3574.11 69.0500   1
  10   0  -5 3549.09 89.5800   1
  11  -8   3 226.800 36.4300   1
 -11  -8  -3 356.680 32.1900   1
  11  -8  -3 460.780 29.3200   1
  11  -8   3 395.890 47.9400   1
  11   8  -3 406.330 34.1000   1
 -11   8   3 444.380 25.3100   1
  11  -8   3 481.120 23.7000   1
  11  -8  -3 516.220 25.8800   1
 -11  -8   3 599.640 31.8800   1
 -11   8   3 460.490 26.0900   1
 -11  -8  -3 532.270 34.9400   1
 -11   8  -3 528.310 46.3200   1
   3 -11  -5 1555.14 55.9900   1
   3 -11  -5 1509.03 79.2600   1
  -3 -11  -5 1402.46 68.0000   1
   3 -11   5 1482.56 45.8200   1
  -3  11   5 1315.82 48.2400   1
   3 -11  -5 1165.27 41.8600   1
   3 -11   5 1374.21 41.3100   1
   3  11   5 1111.49 109.110   1
  -3 -11  -5 1377.49 55.9800   1
  -3 -11   5 1317.73 41.5900   1
  -3 -11   5 1077.65 70.9500   1
  -3  11   5 1614.83 58.1000   1
  -9 -13   0 44.7500 19.3000   1
   9 -13   0 -6.6700 14.0600   1
  -9  13   0 27.9900 16.7300   1
   9 -13   0 34.7800 18.8400   1
  -9 -13   0 14.4500 20.6700   1
   9 -13   0 6.49000 25.5400   1
  10  11  -2 1710.31 94.4900   1
 -10 -11  -2 1819.98 61.9100   1
 -10 -11   2 1627.85 48.4300   1
  10 -11   2 1687.29 61.4600   1
  10 -11  -2 1716.69 57.9400   1
 -10 -11  -2 1533.03 67.7700   1
  10 -11   2 1407.01 90.8900   1
  10 -11  -2 1913.33 45.7600   1
  10 -11   2 1788.92 46.4500   1
 -10  11   2 1798.87 53.8700   1
  -5  10   5 881.710 39.2200   1
   5 -10  -5 767.720 31.4000   1
   5  10  -5 808.910 45.1800   1
  -5 -10  -5 1014.63 53.7300   1
   5 -10  -5 919.520 41.2900   1
  -5 -10  -5 841.180 44.6900   1
  -5  10   5 817.870 34.0200   1
   5 -10   5 971.710 40.7000   1
  -5 -10   5 933.600 36.0700   1
   5 -10   5 1025.63 35.3500   1
 -13  -1  -3 1815.89 63.9700   1
 -13   1  -3 1919.61 77.6300   1
  13  -1  -3 1859.82 61.2300   1
 -13  -1  -3 1651.87 81.7100   1
 -13   1   3 1924.86 49.3400   1
 -13  -1   3 1866.63 45.0300   1
  13  -1   3 1809.85 56.4000   1
  13  -1  -3 2152.20 68.4700   1
  13   1  -3 1928.17 59.9500   1
  13   1   3 2057.86 69.2200   1
  13  -1   3 1834.94 84.4300   1
  10 -12   0 34.1600 15.7700   1
  10 -12   0 23.0100 18.5400   1
 -10 -12   0 5.35000 18.6400   1
 -10 -12   0 4.07000 25.7500   1
 -10  12   0 -2.3800 15.3900   1
  -8 -10  -4 75.9100 25.8100   1
  -8 -10  -4 69.0000 25.2000   1
   8  10  -4 52.4100 21.1300   1
  -8 -10   4 66.7500 16.2000   1
  -8  10   4 54.2300 15.9900   1
   8 -10   4 64.6300 16.6100   1
   8 -10  -4 38.6100 12.7500   1
   8 -10   4 61.4800 14.1600   1
   8 -10  -4 50.4900 22.1500   1
  -8  10   4 39.9000 20.0400   1
   4  -7   6 1231.36 42.0300   1
   4  -7   6 899.540 30.8700   1
  -4  -7  -6 926.820 61.2100   1
  -4   7   6 1107.84 42.4300   1
   4   7  -6 935.870 49.4900   1
   4  -7  -6 1122.67 57.0400   1
  -4   7   6 1055.09 38.8100   1
  -4  -7  -6 1147.78 68.3000   1
  -4  -7   6 1070.80 40.0800   1
   0  15  -3 284.430 51.8800   1
   0  15   3 221.520 41.6500   1
   0 -15   3 236.530 18.3000   1
   0 -15  -3 337.360 33.8600   1
   0 -15  -3 233.510 27.0100   1
   0 -15   3 233.320 27.0900   1
   0 -15  -3 258.480 39.4700   1
   8 -13  -2 229.290 19.6800   1
  -8  13   2 176.400 22.2900   1
  -8  13  -2 189.350 20.7400   1
   8 -13   2 173.110 16.8900   1
  -8 -13   2 210.710 18.1100   1
  -8 -13   2 205.210 21.2300   1
  -8 -13  -2 223.140 22.8300   1
  -8 -13   2 192.420 27.3900   1
  -8 -13  -2 199.710 24.3000   1
   8 -13  -2 188.670 23.1400   1
   8 -13   2 185.500 20.6500   1
 -10  -1   5 487.410 28.9800   1
 -10   1   5 487.810 25.6500   1
 -10  -1  -5 512.850 40.8900   1
  10   1   5 573.240 40.9200   1
 -10   1  -5 332.350 32.8400   1
  10  -1  -5 441.630 29.7800   1
  10   1  -5 471.540 35.1400   1
 -10   1   5 504.180 26.9600   1
  10  -1   5 428.350 27.9900   1
 -10   1  -5 642.730 47.2800   1
 -10  -1  -5 647.970 45.3000   1
 -11  -5  -4 407.120 35.2300   1
 -11  -5   4 356.900 22.0900   1
 -11   5   4 374.030 22.5300   1
  11  -5  -4 443.660 28.4900   1
  11   5  -4 318.760 28.1200   1
 -11  -5  -4 352.750 32.0600   1
  11  -5   4 348.930 22.2000   1
  11  -5  -4 243.490 25.4700   1
 -11   5  -4 302.890 31.4100   1
 -11   5  -4 403.920 42.9200   1
 -11   5   4 332.190 23.6200   1
   8  -7  -5 4179.50 83.5600   1
  -8   7   5 4126.91 74.3400   1
   8  -7   5 4299.80 70.2200   1
   8  -7  -5 3618.48 71.1300   1
   8  -7   5 4166.11 84.6800   1
  -8   7   5 4486.76 74.9600   1
  -8  -7   5 3831.95 67.5600   1
  -8  -7  -5 4129.18 107.270   1
  -8  -7  -5 3600.93 108.450   1
   8   7  -5 3958.30 95.1200   1
  -4 -16   0 7.87000 16.0600   1
   4 -16   0 -26.410 17.9900   1
  -4  16   0 41.4300 22.4900   1
   4 -16   0 39.3400 19.5800   1
  -4 -16   0 27.0900 23.7500   1
  12  -9   1 3576.02 102.750   1
 -12  -9  -1 3016.47 71.3000   1
 -12  -9   1 2814.37 68.2300   1
  12  -9  -1 2730.84 55.3500   1
  12   9  -1 2804.87 99.4400   1
  12  -9  -1 2880.42 99.0000   1
 -12   9   1 3451.98 68.0500   1
  12  -9   1 3126.66 60.4900   1
 -12  -9  -1 3064.27 106.550   1
  -7  11   4 505.970 30.5700   1
  -7 -11  -4 563.580 35.1800   1
  -7 -11   4 449.130 25.5300   1
   7 -11   4 518.190 30.8200   1
   7 -11  -4 542.350 26.6500   1
   7 -11   4 448.040 23.4100   1
   7 -11  -4 535.950 34.0600   1
   7  11  -4 484.340 40.3200   1
  -7 -11  -4 461.900 34.1900   1
 -12  -8  -2 128.610 22.5800   1
  12  -8   2 126.410 18.2300   1
  12  -8  -2 135.600 19.1300   1
 -12   8   2 149.600 18.7000   1
  12   8  -2 83.5000 23.5200   1
  12  -8   2 107.820 22.9000   1
 -12  -8  -2 135.990 29.2200   1
  12  -8  -2 57.4400 21.5000   1
 -12  -8   2 112.520 19.8900   1
  -1  15   3 1334.80 56.7800   1
  -1  15   3 1129.84 75.7200   1
  -1  15  -3 1636.53 111.660   1
  -1 -15  -3 1128.38 49.1900   1
   1 -15  -3 912.590 63.7200   1
   1  15   3 1045.37 79.7100   1
   1 -15  -3 1226.87 56.0200   1
  -1 -15  -3 1032.30 75.4700   1
   1 -15   3 1104.77 35.5700   1
  -1 -15   3 1201.39 39.0700   1
  -1 -15  -3 1318.50 56.4000   1
   1 -15  -3 1349.09 61.0400   1
  -1 -15   3 1128.58 62.7400   1
 -12   6   3 1671.59 49.1100   1
  12  -6   3 1770.03 48.4700   1
  12  -6  -3 1564.56 48.0200   1
 -12  -6   3 1816.42 47.3700   1
 -12  -6  -3 1635.11 68.5100   1
  12  -6   3 1477.58 61.7100   1
 -12   6  -3 1852.66 77.7700   1
 -12  -6  -3 1666.34 58.6300   1
 -12   6   3 1708.95 46.1900   1
  12   6  -3 1397.72 57.6300   1
  12  -6  -3 1627.20 57.2600   1
  -6  15   1 329.620 28.0400   1
  -6 -15  -1 289.820 21.3200   1
  -6 -15   1 314.550 22.6900   1
   6 -15  -1 278.800 32.3200   1
  -6 -15  -1 256.000 30.3100   1
   6 -15  -1 235.960 25.3700   1
   6 -15   1 214.410 26.4900   1
   6 -15  -1 307.680 20.8700   1
   6 -15   1 328.840 21.9900   1
  -6  15  -1 222.900 22.8900   1
  -6 -15   1 262.040 29.6800   1
  13  -7   1 850.290 31.1400   1
  13   7  -1 923.490 58.4100   1
  13  -7   1 962.790 50.5000   1
 -13  -7  -1 802.070 61.9700   1
 -13  -7  -1 830.610 38.8600   1
  13  -7  -1 744.830 41.1300   1
 -13  -7   1 766.720 34.4000   1
  13  -7  -1 976.730 34.9600   1
   0 -16   2 7252.24 105.560   1
   0  16  -2 7579.82 251.650   1
   0 -16   2 6449.27 127.940   1
   0 -16  -2 6735.11 121.520   1
   0 -16  -2 6586.69 158.630   1
   0 -16   2 7091.67 100.250   1
   0  16   2 5828.74 191.480   1
   6  -5  -6 8770.23 116.040   1
   6   5  -6 8625.19 133.840   1
  -6  -5   6 9227.11 107.840   1
   6  -5   6 9493.49 127.770   1
  -6  -5  -6 8381.42 153.690   1
  -6   5   6 9521.50 114.050   1
  -6  -5  -6 9266.59 159.350   1
  -6   5   6 8772.04 114.450   1
  13   2   3 619.420 38.7300   1
 -13  -2   3 621.400 27.4900   1
 -13   2   3 651.590 27.5700   1
 -13  -2  -3 538.150 42.9000   1
  13  -2  -3 573.350 33.2100   1
  13  -2  -3 613.950 32.9600   1
  13  -2   3 433.750 38.0500   1
  13   2  -3 569.000 32.6200   1
 -13  -2  -3 551.380 36.9900   1
  13  -2   3 570.600 31.2100   1
 -13   2  -3 641.850 43.9300   1
 -10  -2  -5 1197.93 60.4300   1
  10  -2  -5 1691.56 63.7800   1
  10   2  -5 1486.15 58.2200   1
 -10   2  -5 1558.37 71.3200   1
 -10  -2  -5 1653.60 63.1100   1
 -10   2   5 1651.72 49.0200   1
 -10  -2   5 1334.75 41.1500   1
 -10   2   5 1399.85 43.1300   1
  10   2   5 1437.96 61.1800   1
  10  -2   5 1396.27 50.3600   1
 -10   2  -5 1169.99 64.5600   1
  -9 -11  -3 209.280 41.9000   1
  -9 -11  -3 386.300 28.1400   1
  -9 -11   3 342.880 21.0300   1
   9 -11   3 330.090 25.3000   1
   9 -11  -3 461.990 24.1700   1
   9 -11   3 408.350 23.7100   1
  -9  11   3 353.060 25.1400   1
   9  11  -3 344.620 38.2500   1
   9 -11  -3 340.940 27.0500   1
  -9 -11  -3 353.780 30.1400   1
   9  -9   4 882.070 39.7500   1
   9  -9   4 879.190 30.9500   1
   9  -9  -4 918.950 34.9700   1
  -9   9   4 886.550 34.2200   1
  -9  -9   4 824.170 33.7000   1
  -9  -9  -4 942.480 47.0200   1
  -9   9   4 830.470 36.1700   1
  -9  -9  -4 786.910 52.7700   1
   9  -9  -4 868.210 40.7900   1
   9   9  -4 697.860 44.1700   1
  -7   3   6 3289.83 67.1300   1
  -7   3  -6 4118.00 114.440   1
  -7   3   6 3671.96 71.2900   1
  -7  -3  -6 4052.13 112.110   1
   7  -3  -6 3511.35 74.7300   1
   7   3  -6 3187.91 84.8600   1
  -7  -3   6 3237.36 63.9500   1
   7  -3   6 3558.17 75.2400   1
   1 -16   2 231.240 24.2000   1
  -1 -16  -2 292.100 26.0600   1
  -1 -16   2 258.990 20.3100   1
   1 -16  -2 330.660 33.0200   1
   1 -16   2 218.920 35.1000   1
   1 -16   2 220.730 22.3000   1
  -1 -16  -2 246.660 28.1100   1
  -1 -16   2 204.200 25.3000   1
  -1 -16  -2 215.400 30.3700   1
   1 -16  -2 193.030 33.4000   1
   1  16   2 171.930 43.4500   1
  -1  16  -2 309.420 57.6200   1
  -1 -16   2 228.910 19.1000   1
  -1  16   2 247.590 42.0400   1
   1 -16  -2 250.850 30.4300   1
  -8 -12  -3 121.240 25.9500   1
   8 -12  -3 150.420 17.6300   1
  -8 -12   3 124.030 26.9200   1
  -8  12   3 159.650 20.6700   1
  -8 -12  -3 96.2600 21.9000   1
   8 -12   3 147.670 17.3200   1
  -8 -12   3 116.710 16.4100   1
   8 -12  -3 155.420 22.8500   1
  -8 -12  -3 43.3000 27.0900   1
  -5 -14   3 93.5700 24.1400   1
  -5 -14  -3 104.060 35.2500   1
  -5 -14  -3 110.500 27.9300   1
  -5 -14  -3 120.650 23.4500   1
   5 -14  -3 86.5900 24.4100   1
  -5  14   3 114.790 23.2100   1
   5 -14   3 155.920 21.0300   1
  -5 -14   3 133.760 17.9900   1
   8 -14   0 -1.9400 17.4800   1
  -8 -14   0 19.7400 17.5200   1
   8 -14   0 23.0200 26.0300   1
  -8  14   0 -1.6800 17.2800   1
  -8 -14   0 21.3700 23.8000   1
   8 -14   0 -0.3100 21.4800   1
   0   0   7 8.81000 16.1300   1
   0   0   7 -27.560 16.3200   1
  -5 -15  -2 528.120 39.6800   1
  -5 -15   2 450.510 39.3100   1
   5 -15  -2 543.270 52.1100   1
  -5 -15  -2 567.570 34.8400   1
   5 -15  -2 589.150 28.5100   1
  -5 -15   2 592.230 31.2600   1
  -5 -15   2 426.630 25.2200   1
   5 -15  -2 504.480 32.2500   1
   5 -15   2 653.570 30.4000   1
  -5  15  -2 449.270 32.5800   1
   5 -15   2 370.730 35.8100   1
  -5  15   2 543.970 36.3800   1
 -11 -11   0 249.120 22.5800   1
 -11 -11   0 224.270 31.4700   1
  11 -11   0 185.070 25.3800   1
 -11  11   0 255.460 21.9300   1
  11 -11   0 250.390 20.9000   1
 -14   4  -1 3035.09 90.6300   1
 -14  -4  -1 3149.77 82.7200   1
 -14   4   1 3145.58 80.5500   1
 -14  -4   1 2691.24 62.2800   1
  14  -4  -1 2900.83 75.3300   1
  14  -4  -1 3059.87 65.9700   1
  14   4   1 3083.52 102.700   1
  14  -4   1 2464.63 61.7300   1
  14  -4   1 2986.30 89.7900   1
  14   4   1 2582.27 87.3100   1
  14   4  -1 2906.05 85.4200   1
   0  -1   7 2053.09 68.6500   1
   0  -1  -7 1880.55 68.8900   1
   0  -1   7 2439.39 60.9800   1
   0   1  -7 2104.03 75.2000   1
   0   1   7 2523.57 62.3200   1
   0   1   7 2220.76 65.0200   1
   2 -15   3 2555.49 54.9800   1
   2 -15  -3 3047.33 98.6100   1
   2  15   3 2168.96 140.880   1
  -2 -15   3 2177.99 95.0400   1
  -2 -15  -3 2375.89 110.980   1
   2 -15  -3 2816.45 98.5900   1
  -2  15  -3 3273.00 129.820   1
  -2  15   3 2399.54 70.7600   1
  -2 -15   3 2556.59 57.8200   1
  -2 -15  -3 2902.14 84.0900   1
  -2 -15  -3 2973.25 89.5500   1
  -4 -13  -4 826.600 46.2000   1
  -4  13   4 791.440 38.0500   1
   4 -13  -4 842.790 57.6000   1
  -4 -13  -4 996.420 49.4200   1
  -4 -13   4 810.930 31.3300   1
   4 -13   4 785.240 31.8200   1
  -4  13   4 734.500 38.0200   1
  -4 -13   4 822.160 60.3600   1
   4 -13  -4 827.100 32.9500   1
   4 -13   4 964.900 34.3800   1
   4 -13  -4 843.920 42.7700   1
   9 -13   1 1233.71 47.6900   1
  -9  13   1 1192.82 45.0100   1
   9 -13  -1 1086.74 45.1100   1
   9 -13  -1 1216.25 35.4700   1
  -9  13  -1 1171.31 44.1100   1
  -9 -13  -1 1218.40 46.8200   1
  -9 -13   1 1295.32 43.4400   1
  -9 -13   1 1196.31 58.4600   1
  -9 -13  -1 1127.30 61.2300   1
   9 -13   1 945.290 62.0300   1
   1   0  -7 8.19000 19.7900   1
  -1   0  -7 20.3500 18.3400   1
   1   0   7 5.21000 20.0200   1
  -1   0   7 -3.4600 17.5600   1
  -1   0   7 -2.6000 13.7300   1
 -10 -12  -1 1030.90 51.7100   1
 -10 -12   1 1013.13 58.3700   1
  10 -12   1 785.020 61.2200   1
 -10 -12  -1 1176.77 43.6700   1
  10 -12  -1 1119.63 36.9800   1
  10 -12   1 1185.77 34.5500   1
 -10  12  -1 1045.61 38.4400   1
 -10  12   1 1267.85 45.9200   1
  10 -12   1 955.080 48.9600   1
  10 -12  -1 982.020 46.5200   1
 -10 -12   1 1150.46 38.4100   1
   3  -8  -6 2630.56 71.6400   1
  -3  -8  -6 2345.14 84.0200   1
  -3  -8   6 2143.94 49.4800   1
  -3  -8  -6 2771.89 93.8000   1
  -3   8   6 2371.71 60.4700   1
   3  -8   6 2669.18 59.5300   1
   3   8  -6 2067.03 67.0400   1
  -3   8   6 2458.35 72.1200   1
   3  -8   6 2212.32 50.7300   1
 -12   0  -4 3795.44 108.170   1
  12   0   4 3192.02 71.4500   1
 -12   0  -4 3224.39 103.920   1
 -12   0   4 3232.32 66.4600   1
  12   0  -4 3731.82 92.9800   1
  14   0   2 5366.48 95.3800   1
  14   0   2 5080.86 119.160   1
 -14   0  -2 6081.25 115.090   1
 -14   0   2 5756.94 89.7000   1
  14   0  -2 5796.81 105.060   1
  14   0  -2 5792.23 116.030   1
  13  -6   2 1605.39 70.3100   1
  13  -6  -2 1450.83 60.3000   1
 -13  -6  -2 1382.76 65.2100   1
 -13  -6  -2 1408.55 52.8300   1
 -13   6  -2 1363.45 72.5500   1
 -13  -6   2 1575.15 52.5900   1
  13  -6  -2 1611.18 50.3400   1
  13  -6   2 1559.68 42.9300   1
  13   6  -2 1491.31 67.7300   1
  -4 -16  -1 2898.74 94.5200   1
   4 -16   1 3253.71 65.3400   1
   4 -16   1 2444.27 79.1400   1
   4 -16  -1 2702.92 77.4400   1
  -4  16   1 2659.25 77.2400   1
  -4 -16  -1 2945.84 73.1100   1
  -4 -16   1 2924.80 70.3100   1
   4 -16  -1 2621.70 97.4400   1
  -4 -16   1 2862.66 97.0200   1
   4 -16  -1 2982.55 62.5600   1
   1   1   7 405.540 31.0400   1
   1   1  -7 439.410 29.2600   1
   1  -1  -7 526.990 36.9300   1
  -1  -1  -7 383.950 35.5400   1
  -1   1  -7 421.410 31.5300   1
  -1  -1   7 493.140 26.2400   1
  -1   1   7 557.520 26.4500   1
   1  -1   7 515.530 28.8500   1
   1   1   7 509.700 27.2800   1
  -1  -1   7 422.830 32.3100   1
   1  -1   7 322.010 28.9600   1
  -1   1   7 475.420 33.4500   1
 -11  10   2 1254.88 44.7500   1
  11 -10  -2 1329.49 38.3100   1
  11 -10   2 712.510 60.5000   1
 -11 -10  -2 1298.19 63.3300   1
  11 -10  -2 1193.01 44.7900   1
  11 -10   2 1128.86 53.8100   1
  11 -10   2 1143.88 37.5500   1
 -11 -10  -2 1174.08 49.4800   1
 -11 -10   2 1093.41 39.8000   1
  11  10  -2 1160.68 55.9600   1
  -6 -12  -4 1109.13 51.6800   1
  -6 -12   4 989.230 68.6300   1
  -6 -12  -4 900.030 46.6800   1
   6 -12  -4 1043.93 47.7900   1
  -6  12   4 1155.14 42.6100   1
   6 -12  -4 1035.03 36.0200   1
  -6 -12   4 936.910 33.6400   1
  12  -1  -4 1177.75 48.0300   1
  12   1  -4 1167.71 49.9400   1
  12  -1   4 1038.27 41.7200   1
 -12   1  -4 1081.02 59.5900   1
 -12  -1  -4 1185.42 70.1100   1
  12   1   4 1134.78 48.3000   1
  12  -1  -4 1044.35 47.1400   1
 -12  -1   4 1220.58 40.8900   1
 -12   1   4 1118.13 39.5500   1
 -12  -1  -4 1113.66 53.9800   1
 -12   1  -4 1159.61 66.6600   1
  14   1  -2 877.170 44.2500   1
  14  -1  -2 774.330 38.3800   1
 -14   1  -2 785.990 44.3400   1
 -14  -1  -2 846.710 45.6000   1
 -14   1   2 801.180 41.2000   1
  14  -1  -2 921.100 41.7700   1
 -14  -1   2 824.200 37.8000   1
  14   1  -2 801.390 44.0700   1
  14   1   2 822.380 42.2100   1
  14   1   2 797.670 49.2500   1
  14  -1   2 742.880 48.2700   1
  14  -1   2 740.140 37.1300   1
  -7  14   2 387.950 28.1800   1
  -7 -14  -2 329.810 33.1300   1
  -7 -14   2 391.240 41.5000   1
   7 -14  -2 325.340 27.4700   1
  -7 -14  -2 436.950 29.1100   1
  -7 -14   2 347.750 22.2200   1
  -7 -14   2 409.070 25.5500   1
   7 -14  -2 368.700 24.0800   1
   7 -14   2 391.710 23.9600   1
  -7  14  -2 259.960 23.9000   1
 -10 -10  -3 302.150 28.9700   1
  10 -10   3 248.630 21.4200   1
  10 -10  -3 350.540 23.0000   1
  10 -10   3 226.590 20.9600   1
 -10 -10   3 240.630 21.2200   1
 -10  10   3 266.480 24.0100   1
  10  10  -3 203.700 27.5800   1
  10 -10  -3 256.790 25.8800   1
 -10 -10  -3 233.930 26.7800   1
   2  16   2 1385.17 100.810   1
  -2  16  -2 1880.81 85.6800   1
  -2  16   2 1682.29 60.0000   1
  -2 -16  -2 1694.17 86.2100   1
  -2 -16   2 1592.10 47.2400   1
  -2 -16   2 1720.23 50.6800   1
   2 -16   2 1577.15 47.5300   1
  -2  16  -2 1289.88 62.1600   1
  -2 -16  -2 1943.19 76.6600   1
  -2 -16  -2 1893.37 60.7300   1
  -2 -16   2 1860.24 78.2700   1
   2 -16  -2 1651.40 68.3800   1
   2 -16  -2 1624.02 77.5900   1
  13  -3   3 2118.01 55.8800   1
 -13  -3  -3 2188.37 90.1600   1
 -13  -3   3 2187.11 53.6700   1
 -13   3   3 2154.00 56.0900   1
 -13  -3  -3 2234.39 73.2400   1
 -13   3  -3 2083.82 76.4700   1
  13  -3  -3 2486.68 71.1100   1
  13   3  -3 2442.50 71.6100   1
  13   3   3 1938.34 68.1100   1
  13  -3  -3 2227.26 65.2700   1
  13  -3   3 1947.24 79.5900   1
  14  -5   0 1283.18 42.5600   1
  14   5   0 1276.88 65.4100   1
 -14  -5   0 1318.86 47.0300   1
 -14   5   0 1195.80 55.3100   1
  14  -5   0 1316.24 56.8500   1
 -10  -3  -5 56.1500 33.7100   1
  10   3  -5 145.270 25.0600   1
 -10  -3   5 130.150 17.8800   1
  10   3   5 116.550 39.1500   1
  10  -3   5 111.900 17.5600   1
 -10   3   5 134.040 18.2000   1
 -10   3   5 150.880 17.9700   1
  10  -3  -5 120.770 23.6500   1
 -10  -3  -5 127.870 26.0100   1
 -10   3  -5 172.770 39.4900   1
   0   2   7 21.3700 19.3500   1
   0  -2  -7 -3.6000 20.6400   1
   0   2   7 -2.4100 16.5900   1
   0   2  -7 0.79000 15.2900   1
   0  -2   7 -3.8400 17.7800   1
   0  -2   7 0.35000 13.1300   1
  -4 -11   5 2231.50 57.6400   1
   4 -11   5 2355.79 57.4000   1
  -4 -11   5 1805.62 111.520   1
  -4  11   5 2152.30 59.5200   1
  -4  11   5 2170.22 64.5700   1
   4 -11   5 2346.56 59.4500   1
  -4 -11  -5 2566.23 85.4900   1
   4 -11  -5 2397.77 68.0700   1
  -4 -11  -5 2084.34 73.2400   1
   7 -13   3 495.220 24.3300   1
  -7  13   3 492.550 29.8200   1
   7 -13  -3 438.670 29.4600   1
  -7 -13  -3 431.790 39.8900   1
  -7 -13   3 490.040 47.6600   1
  -7 -13  -3 282.130 36.5500   1
  -7 -13   3 496.340 26.4800   1
  -7 -13  -3 522.170 34.1600   1
   7 -13  -3 492.430 24.8000   1
   2   0   7 1033.34 47.3300   1
  -2   0   7 1338.24 42.7700   1
   2   0   7 1289.10 43.2800   1
  -2   0   7 902.140 44.1800   1
   2   0  -7 1107.03 52.7200   1
  -2   0  -7 1120.50 69.3200   1
  -1   2   7 483.170 29.9500   1
   1   2  -7 437.220 30.8000   1
  -1   2  -7 348.610 28.1700   1
   1  -2  -7 408.010 33.6400   1
  -1  -2  -7 323.910 39.3100   1
   1  -2   7 529.680 28.3000   1
  -1  -2   7 438.440 26.3100   1
  -1   2   7 546.360 31.3700   1
   1   2   7 491.680 27.4800   1
  -1  -2   7 307.800 30.0300   1
   1   2   7 392.230 28.8400   1
 -12  -2   4 886.140 32.9900   1
 -12   2  -4 758.130 45.6800   1
 -12  -2  -4 852.990 48.2600   1
 -12   2   4 892.620 36.9300   1
  12  -2  -4 795.630 42.5300   1
  12   2   4 787.740 44.2800   1
  12  -2   4 784.660 38.6500   1
  12   2  -4 942.670 44.8600   1
  12  -2  -4 672.590 36.1400   1
 -12  -2  -4 652.930 42.3400   1
 -12   2  -4 651.990 48.8600   1
   8 -14   1 398.460 39.5800   1
  -8  14   1 353.460 24.2600   1
   8 -14   1 361.690 26.8000   1
  -8 -14   1 354.140 34.8800   1
   8 -14   1 508.150 34.0000   1
  -8  14  -1 327.000 25.5100   1
   8 -14  -1 380.620 28.8000   1
  -8 -14  -1 383.320 31.5100   1
   8 -14  -1 295.760 35.5400   1
  -8 -14  -1 422.760 28.3300   1
  -8 -14   1 423.340 25.2100   1
   8 -14  -1 441.040 22.2900   1
 -14  -2   2 690.200 31.3900   1
 -14   2   2 708.560 35.9500   1
 -14  -2  -2 591.440 36.6300   1
  14   2   2 826.830 54.6100   1
  14  -2  -2 779.830 40.1700   1
  14  -2   2 784.000 36.5600   1
  14  -2   2 637.780 42.2600   1
  14   2   2 566.100 46.3900   1
  14   2  -2 682.340 42.3600   1
  14  -2  -2 704.580 36.1300   1
 -14   2  -2 731.310 44.7500   1
   9   6  -5 137.650 25.2800   1
   9  -6   5 145.160 16.7200   1
   9  -6  -5 103.120 18.3300   1
  -9   6   5 128.860 16.9300   1
  -9  -6   5 147.860 18.2600   1
  -9  -6  -5 92.8200 31.5000   1
  -9   6   5 162.190 18.6100   1
  -9   6  -5 139.550 43.1900   1
  -9  -6  -5 151.780 25.4700   1
   9  -6  -5 142.660 21.4200   1
  11 -11   1 129.090 29.7100   1
 -11  11  -1 156.570 18.2600   1
 -11  11   1 160.120 19.4900   1
  11 -11   1 120.050 49.9000   1
  11 -11  -1 167.790 18.7300   1
  11 -11   1 131.630 18.5900   1
  11 -11  -1 125.860 22.2200   1
 -11 -11   1 175.960 30.4900   1
 -11 -11  -1 149.190 26.8800   1
 -11 -11  -1 128.890 20.6400   1
 -11 -11   1 168.030 21.2300   1
   2   1   7 202.470 22.3600   1
   2  -1   7 162.600 22.6600   1
   2   1  -7 151.420 21.2100   1
  -2   1   7 134.940 18.9600   1
  -2  -1   7 160.110 19.3700   1
   2   1   7 170.410 22.5700   1
  -2  -1   7 150.630 19.1900   1
  -2   1   7 149.750 20.6200   1
   2  -1  -7 178.300 23.5100   1
  -2   1  -7 145.550 23.3300   1
  -2  -1  -7 126.380 23.1100   1
   2  -1   7 190.100 21.8700   1
  -7  -4  -6 768.200 56.4900   1
  -7   4   6 595.530 31.2300   1
   7  -4   6 569.110 31.3700   1
   7  -4   6 553.130 27.0200   1
  -7   4   6 570.690 32.0200   1
   7   4  -6 560.430 35.5700   1
   7  -4  -6 658.310 37.2300   1
  -7  -4  -6 513.420 39.4300   1
  -7  -4   6 595.050 27.7500   1
  -7   4  -6 586.460 54.9500   1
   0 -12  -5 17.7100 21.9500   1
   0 -12  -5 -2.8000 31.4800   1
   0  12  -5 -6.6300 40.3500   1
   0 -12   5 45.5100 15.3200   1
   0  -9  -6 20.4400 40.4400   1
   0  -9   6 6.81000 17.6700   1
   0   9   6 3.33000 18.6700   1
   0  -9   6 2.14000 13.7200   1
   0   9  -6 3.91000 32.5200   1
   0  -9  -6 12.7500 24.0400   1
   0   9   6 37.6000 23.3300   1
   0 -14  -4 2579.00 89.9800   1
   0  14  -4 2520.81 132.390   1
   0 -14   4 2306.47 59.0600   1
   0 -14  -4 2904.37 94.8400   1
 -13  -8   0 565.420 29.0600   1
  13  -8   0 619.860 29.3500   1
  13   8   0 454.260 40.6800   1
  13  -8   0 552.590 39.7300   1
 -11  -6  -4 2595.49 93.5600   1
  11  -6  -4 2882.50 74.8000   1
  11   6  -4 2682.63 82.5700   1
 -11   6   4 2688.53 65.4500   1
  11  -6   4 2645.66 62.5400   1
 -11   6  -4 2955.45 105.990   1
 -11  -6  -4 2910.44 92.5800   1
  11  -6  -4 2481.18 63.7200   1
 -11   6   4 2569.99 64.6300   1
 -11  -6   4 2769.90 66.9500   1
  10  -8  -4 286.630 26.5000   1
 -10  -8  -4 329.310 31.1400   1
 -10   8   4 364.530 24.4000   1
  10   8  -4 345.080 34.8600   1
 -10  -8  -4 322.050 31.9400   1
 -10  -8   4 294.130 22.4500   1
 -10   8   4 312.630 20.5300   1
  10  -8  -4 367.810 22.3400   1
  10  -8   4 300.580 21.4700   1
   5  -7  -6 1116.29 53.7700   1
  -5   7   6 1056.91 44.8300   1
   5   7  -6 935.120 45.6300   1
  -5  -7  -6 853.150 47.4400   1
  -5  -7  -6 1215.78 65.1500   1
  -5  -7   6 987.540 37.8700   1
  -5   7   6 1159.41 43.4100   1
   5  -7   6 1032.84 43.2000   1
   5  -7   6 924.760 35.9100   1
  -3  15  -3 1563.39 76.3900   1
   3 -15   3 1699.10 48.5500   1
  -3  15   3 1565.92 62.7600   1
   3 -15  -3 1273.15 50.4900   1
  -3 -15  -3 1415.38 63.6500   1
   3 -15  -3 1333.75 46.7800   1
   3 -15   3 1335.18 44.2600   1
  -3 -15   3 1573.52 49.8400   1
  -3 -15  -3 1442.39 57.4700   1
  -3 -15   3 1361.90 76.6200   1
  -3 -15  -3 1313.32 79.0400   1
   1 -12  -5 916.850 48.7100   1
  -1 -12   5 837.910 35.0300   1
  -1 -12  -5 963.360 59.1500   1
   1 -12  -5 818.740 57.8200   1
   1 -12   5 929.450 37.8400   1
  -1  12   5 770.260 41.3900   1
   1 -12  -5 628.280 33.1300   1
   1 -12   5 1005.19 39.2100   1
  -1  12   5 885.830 45.7200   1
  -1  12  -5 864.460 74.2400   1
  -1 -12  -5 818.600 48.7200   1
   1  12  -5 828.320 84.8100   1
  -1   9   6 1236.51 52.4400   1
  -1  -9  -6 1237.97 61.5900   1
   1  -9   6 1329.90 47.8300   1
  -1  -9   6 1225.06 46.6300   1
   1  -9  -6 1457.80 79.7300   1
   1   9   6 1176.24 58.6000   1
   1   9  -6 958.360 106.380   1
   1  -9  -6 1112.68 49.9000   1
  -1  -9   6 1476.24 48.5600   1
  -1  -9  -6 1439.10 70.9700   1
   1  -9   6 1291.70 43.8800   1
  -1   9   6 994.010 47.9800   1
   0  17   0 -88.690 47.7400   1
   0 -17   0 31.2800 20.2100   1
   0 -17   0 7.50000 14.7900   1
  -1 -14  -4 183.300 31.8900   1
   1 -14   4 161.020 18.3000   1
  -1 -14  -4 198.560 26.6800   1
   1 -14  -4 227.360 26.8600   1
   1  14   4 174.630 37.4400   1
  -1  14   4 152.050 27.8900   1
  -1  14  -4 196.470 45.6100   1
   1 -14  -4 168.920 30.4400   1
  -1 -14   4 154.620 16.2900   1
  -5  16   0 640.750 40.2600   1
  -5 -16   0 630.970 29.7100   1
   5 -16   0 672.730 30.1700   1
   5 -16   0 692.950 43.4000   1
  -5 -16   0 642.800 50.2500   1
   7  -9   5 742.300 31.1600   1
   7  -9  -5 600.940 29.1000   1
   7  -9   5 704.730 34.8500   1
  -7  -9   5 601.470 27.9000   1
  -7  -9  -5 627.670 41.3700   1
  -7   9   5 692.180 33.2500   1
   7   9  -5 680.000 45.1100   1
   7  -9  -5 784.050 42.1000   1
  -7  -9  -5 700.070 40.9500   1
  -7   9   5 629.090 30.6600   1
   0   3   7 1188.94 42.8000   1
   0   3   7 1141.72 48.8900   1
   0  -3   7 1303.65 45.6800   1
   0  -3  -7 1236.66 65.7200   1
  -7  15   0 39.7600 18.1400   1
  -7 -15   0 20.3400 16.7000   1
   7 -15   0 33.6700 16.5100   1
  -7 -15   0 -9.8400 25.6100   1
   7 -15   0 19.3200 22.4000   1
   7 -15   0 6.74000 19.9700   1
   6  -6   6 1021.69 35.0000   1
  -6  -6  -6 1140.43 55.6100   1
  -6   6   6 1371.71 50.5600   1
   6   6  -6 982.400 48.9800   1
   6  -6   6 1238.77 47.3900   1
   6  -6  -6 1230.74 53.5200   1
  -6  -6  -6 1258.99 68.1200   1
  -6  -6   6 1210.80 42.5800   1
  -6   6   6 1266.34 45.0200   1
  -2  -2  -7 654.810 54.9500   1
  -2  -2  -7 515.950 46.5500   1
  -2   2   7 758.790 36.0100   1
   2  -2  -7 563.590 36.4700   1
   2  -2   7 673.900 35.8300   1
   2   2   7 580.700 37.6200   1
   2   2   7 803.760 35.6700   1
  -2  -2   7 695.350 30.6900   1
  -2  -2   7 482.650 30.2600   1
  -2   2   7 570.120 35.7000   1
   2   2  -7 532.230 32.1200   1
  14  -5  -1 574.850 35.8700   1
  14   5  -1 541.860 40.2200   1
 -14  -5  -1 554.180 33.8600   1
 -14  -5   1 520.100 41.3900   1
  14  -5  -1 654.350 32.3900   1
  14  -5   1 512.590 37.1700   1
 -14   5  -1 531.700 40.1200   1
  14   5   1 561.690 46.3100   1
  14  -5   1 546.360 41.7900   1
 -14   5   1 433.210 32.8200   1
  -1 -17   0 1111.37 43.7600   1
  -1  17   0 1142.40 80.3300   1
   1  17   0 1017.28 90.5200   1
   1 -17   0 916.790 57.0900   1
  -1 -17   0 1077.89 52.8300   1
   1 -17   0 1080.25 46.2900   1
  12 -10   0 476.820 22.9700   1
 -12 -10   0 405.000 23.6700   1
  12 -10   0 403.510 32.5800   1
 -12 -10   0 409.240 43.3900   1
 -12  10   0 478.440 27.6800   1
   3 -16  -2 201.180 29.0300   1
  -3 -16  -2 149.620 29.8900   1
   3 -16   2 176.040 26.6500   1
   3 -16   2 245.920 22.6400   1
  -3  16  -2 284.200 43.4700   1
  -3 -16   2 235.140 18.4700   1
  -3 -16   2 200.300 31.0100   1
   3 -16  -2 214.560 28.5400   1
  -3 -16  -2 239.110 26.4400   1
  -3 -16  -2 287.470 24.0000   1
   3 -16  -2 227.360 23.0600   1
  -3  16  -2 189.150 23.4300   1
  -3  16   2 228.060 27.6800   1
  -3 -16   2 206.310 20.2700   1
  -6  10   5 87.0300 21.3000   1
  -6 -10  -5 46.3600 20.5900   1
  -6 -10   5 69.6300 16.2300   1
  -6 -10  -5 82.7400 30.1100   1
   6 -10   5 90.5400 17.3100   1
   6 -10  -5 88.8900 21.9400   1
   6  10  -5 42.9300 21.6200   1
  -6  10   5 53.6200 15.3500   1
   6 -10   5 67.9300 17.3300   1
  -8   0   6 4672.27 249.510   1
   8   0  -6 5144.64 283.730   1
  -8   0  -6 3772.58 113.240   1
  -8   0   6 4886.77 260.640   1
   8   0   6 4487.91 105.340   1
  -8   0  -6 5241.24 303.270   1
   1   3  -7 88.7400 20.4000   1
   1  -3  -7 100.230 23.1200   1
   1  -3   7 147.580 20.3000   1
  -1  -3  -7 99.6000 22.4400   1
  -1  -3   7 136.520 18.6900   1
  -1   3   7 124.810 20.5300   1
   1   3   7 97.5600 18.7400   1
  -1  -3   7 79.2500 15.1800   1
  -1   3   7 101.840 19.8000   1
   1   3   7 80.5500 19.2700   1
 -12  -7  -3 1192.17 63.1200   1
 -12  -7   3 1061.83 40.4400   1
  12  -7  -3 1104.97 43.9000   1
  12  -7   3 902.960 34.8300   1
 -12   7   3 1013.16 36.2800   1
 -12   7   3 1087.13 43.4300   1
  12  -7   3 995.770 53.6700   1
  12   7  -3 930.140 49.4300   1
  12  -7  -3 888.830 49.1100   1
 -12   7  -3 931.600 56.3000   1
 -12  -7  -3 1048.62 51.0100   1
  13  -4   3 508.130 46.0500   1
  13  -4   3 605.180 29.7300   1
  13  -4  -3 559.420 32.7400   1
  13   4   3 541.330 40.6100   1
 -13   4  -3 542.990 42.6400   1
 -13  -4  -3 570.050 36.0000   1
 -13   4   3 512.380 40.0200   1
 -13   4   3 544.570 27.3600   1
 -13  -4   3 542.220 28.2300   1
 -13  -4  -3 561.100 50.9300   1
  13  -4  -3 604.840 39.3500   1
  13   4  -3 469.860 33.1800   1
  12  -3  -4 211.350 27.3100   1
  12   3   4 136.400 26.4400   1
 -12   3  -4 165.590 25.5000   1
 -12  -3  -4 235.980 28.6600   1
 -12   3   4 201.710 18.0800   1
 -12  -3   4 220.670 20.4300   1
 -12  -3  -4 269.750 34.8000   1
  12  -3  -4 228.990 28.7800   1
 -12   3  -4 234.990 34.9500   1
  12   3  -4 203.220 27.8400   1
  12  -3   4 197.880 21.9800   1
 -12   3   4 273.270 22.6500   1
  -4   8   6 218.980 20.9600   1
  -4  -8   6 171.300 17.8600   1
  -4  -8  -6 209.270 37.1000   1
  -4  -8  -6 184.830 27.0500   1
   4  -8  -6 192.670 25.9900   1
   4   8  -6 121.660 20.0300   1
  -4   8   6 181.110 23.6600   1
   4  -8   6 165.940 17.3600   1
   4  -8   6 197.660 22.1400   1
  14  -3   2 970.380 41.8200   1
  14   3   2 892.080 52.2800   1
  14   3  -2 877.500 49.6300   1
  14  -3   2 964.810 52.0000   1
 -14   3   2 983.110 42.0500   1
  14  -3  -2 826.770 46.7900   1
 -14  -3   2 864.330 36.9200   1
  14   3   2 864.080 44.5100   1
  14  -3  -2 1045.29 44.6400   1
 -14  -3  -2 868.310 47.5400   1
 -14   3  -2 979.560 56.0900   1
 -10  -4   5 2085.13 54.4300   1
 -10   4  -5 2164.29 83.8400   1
 -10  -4  -5 2150.40 76.6300   1
 -10   4   5 2154.83 57.0500   1
  10  -4  -5 1862.50 65.0100   1
 -10   4   5 2031.18 55.4400   1
  10   4  -5 1915.47 71.2300   1
  10  -4  -5 2052.37 60.8500   1
 -10  -4  -5 1641.32 76.4400   1
  -8  -8  -5 1488.17 69.0200   1
   8  -8   5 1840.62 62.7900   1
  -8   8   5 1747.47 55.2900   1
  -8  -8   5 1584.19 49.4400   1
  -8  -8  -5 1858.35 79.2500   1
   8  -8  -5 1624.77 53.8200   1
   8  -8   5 1774.87 47.8100   1
  -8   8   5 1766.33 55.2500   1
   8   8  -5 1371.41 57.9100   1
   8  -8  -5 1658.62 58.2900   1
   8   1  -6 274.730 38.9600   1
   8  -1  -6 166.490 32.3000   1
  -8   1  -6 395.720 48.1800   1
  -8  -1  -6 350.430 43.2800   1
  -8  -1   6 290.710 26.6100   1
  -8  -1  -6 274.820 43.7300   1
  -8   1   6 144.380 26.0000   1
   8   1   6 245.380 37.0000   1
  -8  -1   6 271.760 27.1300   1
  -8   1   6 137.260 30.6200   1
   8  -1   6 349.350 31.7400   1
  -2 -12  -5 94.4100 25.0100   1
   2  12   5 22.3200 26.5600   1
  -2  12   5 53.3600 20.5300   1
  -2 -12  -5 79.8900 30.6900   1
   2 -12   5 49.5900 15.1700   1
   2 -12  -5 44.4300 13.5000   1
  -2  12   5 64.0600 18.0500   1
   2 -12   5 67.1800 15.5900   1
  -2 -12   5 36.0800 13.7100   1
   2 -12  -5 45.7500 20.7400   1
   2 -12  -5 35.2200 32.1000   1
  -2  -9  -6 956.610 52.4600   1
   2  -9  -6 1177.84 66.9400   1
   2   9   6 1107.79 58.5000   1
  -2   9   6 1201.38 48.3000   1
  -2  -9  -6 1059.05 53.5600   1
   2  -9  -6 1151.54 50.6400   1
   2  -9   6 1172.32 45.9000   1
  -2   9   6 1116.61 47.2100   1
   2  -9   6 1249.62 43.7600   1
  -2  -9   6 1003.86 38.0200   1
   3   0   7 -1.5800 13.8700   1
  -3   0   7 -7.7200 14.3800   1
   3   0   7 3.84000 20.2500   1
  -3   0   7 9.38000 14.4100   1
  -3   0  -7 10.8600 16.4500   1
   3   0  -7 -5.0000 18.2100   1
  11   9  -3 1081.42 59.5900   1
  11  -9  -3 1326.82 56.1400   1
 -11  -9  -3 919.710 50.2900   1
 -11   9   3 1073.11 40.0700   1
  11  -9   3 1050.28 38.7900   1
  11  -9  -3 1196.85 42.1800   1
 -11  -9   3 1108.40 40.2300   1
 -11  -9  -3 1062.06 49.9600   1
   2 -14  -4 893.900 37.7200   1
   2  14   4 820.410 87.9900   1
   2 -14  -4 966.390 55.9400   1
   2 -14   4 1250.86 43.6200   1
  -2 -14   4 1010.87 37.3400   1
  -2 -14  -4 960.000 45.8400   1
  -2 -14  -4 1080.70 57.6200   1
  -2  14  -4 843.780 59.0700   1
  -2  14   4 984.530 47.1700   1
   2 -14   4 1079.06 41.1500   1
  -2  14   4 954.080 44.5400   1
   2 -14  -4 1030.85 58.5000   1
 -13  -8   1 1612.02 56.1400   1
 -13  -8  -1 1365.85 52.5100   1
 -13  -8  -1 1443.41 71.8400   1
  13  -8  -1 1580.36 65.2400   1
  13  -8   1 1425.94 61.9000   1
  13   8  -1 1245.56 66.0000   1
  13  -8   1 1495.77 44.3800   1
  13  -8  -1 1671.16 47.3900   1
  -3   1   7 680.300 39.3600   1
  -3  -1   7 611.340 35.9600   1
   3   1   7 875.670 43.0800   1
   3   1   7 640.170 44.5800   1
   3   1  -7 744.110 38.1700   1
   3  -1  -7 790.310 40.8800   1
  -3  -1  -7 563.940 42.3900   1
  -3  -1  -7 781.260 62.8800   1
  -3  -1   7 888.220 37.6900   1
  -3   1   7 764.460 32.0200   1
   3  -1   7 754.610 34.8800   1
  -5 -13  -4 385.750 34.2400   1
  -5 -13   4 379.130 39.8700   1
  -5 -13  -4 323.830 27.8300   1
   5 -13  -4 331.100 29.2800   1
  -5  13   4 385.320 29.5600   1
   5 -13   4 358.130 21.6900   1
   5 -13  -4 368.510 23.7200   1
   5 -13   4 436.730 29.5900   1
  -5 -13   4 333.660 21.5000   1
  -2  17   0 11.0300 24.3500   1
   2 -17   0 1.40000 21.2000   1
  -2 -17   0 8.26000 21.1000   1
  -2  17   0 -22.790 36.2600   1
  -2 -17   0 26.8000 17.1700   1
  12  -9  -2 2449.95 59.8900   1
  12  -9  -2 2258.66 68.2300   1
  12   9  -2 2080.63 82.4500   1
 -12   9   2 2566.57 62.9000   1
 -12  -9  -2 2412.19 74.9500   1
 -12  -9   2 2730.57 69.3100   1
  12  -9   2 2193.98 77.4500   1
  12  -9   2 2312.79 56.7600   1
 -12  -9  -2 2156.79 94.0000   1
   0 -17   1 1241.99 60.2500   1
   0 -17  -1 1034.10 51.3200   1
   0 -17  -1 1157.69 53.2300   1
   0 -17   1 1139.63 44.2100   1
   0  17   1 1031.94 85.8200   1
   0  17  -1 1601.13 107.170   1
  -5 -16   1 53.9900 22.7200   1
  -5 -16  -1 77.6800 26.1300   1
   5 -16   1 67.4600 19.1900   1
   5 -16  -1 26.8400 27.9600   1
  -5  16   1 54.0000 18.8700   1
  -5  16  -1 61.4500 19.4400   1
   5 -16   1 44.2700 17.4500   1
   5 -16  -1 61.9000 21.2600   1
  -5 -16   1 59.3500 17.8500   1
  -5 -16  -1 97.9700 19.3600   1
   5 -16  -1 76.0900 21.7000   1
   8  -2  -6 6128.45 324.960   1
   8   2  -6 5404.03 294.680   1
  -8  -2  -6 7142.04 396.670   1
  -8   2  -6 7568.89 416.130   1
  -8   2   6 6572.40 347.010   1
   8   2   6 4767.30 269.320   1
   8  -2   6 5306.39 283.600   1
  -8   2   6 6082.28 321.000   1
  -8  -2   6 5452.81 288.720   1
   2   3  -7 1028.69 67.6500   1
   2  -3  -7 1182.42 58.7100   1
  -2  -3  -7 1477.19 62.8600   1
  -2  -3  -7 1650.35 83.4700   1
  -2  -3   7 1480.14 49.6900   1
  -2   3   7 1475.80 49.4200   1
   2  -3   7 1316.54 48.8400   1
   2   3   7 1470.15 52.5300   1
  -2  -3   7 1178.72 47.9800   1
  -2   3   7 1320.38 53.8600   1
   2   3   7 1220.54 51.4800   1
  -6 -14  -3 111.370 26.8200   1
  -6 -14   3 140.330 26.5900   1
  -6 -14  -3 126.110 22.7200   1
   6 -14  -3 197.860 46.5000   1
  -6  14   3 110.450 19.7500   1
   6 -14  -3 154.330 17.6400   1
  -6 -14   3 130.610 18.1500   1
  -6 -14  -3 163.590 25.7400   1
   6 -14   3 160.340 19.6600   1
  14  -6   0 1872.51 71.6100   1
  14   6   0 1423.69 68.4700   1
  14  -6   0 1954.30 56.5500   1
 -14  -6   0 1527.35 52.2400   1
   6 -15   2 641.130 28.9300   1
   6 -15  -2 718.720 29.8000   1
  -6 -15   2 662.420 33.8200   1
  -6 -15  -2 771.660 42.9400   1
  -6 -15   2 559.370 42.6900   1
  -6 -15  -2 624.600 43.2400   1
   6 -15  -2 687.370 39.9500   1
  -6  15   2 589.180 32.5000   1
  -7 -15  -1 1921.47 89.0100   1
  -7 -15   1 1908.46 74.4100   1
  -7  15  -1 1824.61 64.1200   1
   7 -15  -1 1764.37 64.3900   1
  -7  15   1 1620.64 56.2300   1
   7 -15   1 1852.65 74.3800   1
   7 -15   1 2252.54 57.8300   1
   7 -15  -1 1949.86 51.7800   1
   7 -15  -1 1798.22 94.1900   1
  -7 -15  -1 1994.55 69.5400   1
  -7 -15   1 1958.86 65.2000   1
  13  -7   2 244.900 27.1500   1
  13   7  -2 256.650 29.8000   1
 -13   7   2 329.630 22.6400   1
  13  -7   2 284.630 21.7600   1
  13  -7  -2 268.640 24.6900   1
 -13  -7   2 210.640 19.8100   1
 -13  -7  -2 272.400 26.3400   1
 -13  -7  -2 315.870 33.4700   1
  13  -7  -2 284.410 30.3400   1
   1 -17   1 2489.43 97.3400   1
   1 -17   1 2727.74 71.5400   1
  -1 -17  -1 2926.56 88.7500   1
  -1 -17   1 2721.47 70.6900   1
  -1 -17   1 2604.38 94.9500   1
  -1 -17  -1 2658.81 98.9100   1
   1 -17  -1 2630.13 79.6300   1
   1 -17  -1 2902.90 104.640   1
   1  17  -1 2868.34 155.290   1
   1  17   1 2776.51 140.930   1
  -1  17  -1 3083.25 138.210   1
  -1  17   1 3020.35 131.000   1
  -7  -5   6 637.740 29.1100   1
   7  -5   6 655.080 30.1700   1
  -7  -5  -6 706.530 48.0700   1
  -7   5   6 708.810 34.0500   1
   7   5  -6 737.860 39.8900   1
   7  -5  -6 845.510 38.3900   1
  -7  -5  -6 685.480 46.1800   1
   7  -5   6 706.070 34.6600   1
  -7   5   6 748.700 34.9700   1
 -12 -10  -1 1730.67 82.8300   1
  12  10  -1 2064.30 86.5700   1
  12 -10   1 1900.61 71.6800   1
  12 -10  -1 1636.60 68.1300   1
 -12 -10  -1 2026.45 63.7300   1
 -12 -10   1 2109.49 61.1900   1
  12 -10  -1 2160.64 55.2700   1
  12 -10   1 1997.33 54.9600   1
 -12  10   1 1842.80 53.5800   1
  -3   2   7 179.680 20.7500   1
   3   2  -7 214.330 26.2300   1
   3  -2   7 177.370 20.8900   1
   3   2   7 149.910 20.1400   1
   3   2   7 152.270 20.8800   1
  -3   2   7 161.890 22.6200   1
  -3  -2   7 133.370 19.0600   1
  -3  -2  -7 194.860 23.9900   1
   3  -2  -7 192.670 23.6000   1
  -3  -2  -7 209.260 42.4000   1
  -3  -2   7 185.100 21.4000   1
   0  -4   7 0.52000 16.1200   1
   0   4   7 2.78000 16.5200   1
   0   4   7 -1.4100 15.9400   1
   0  -4  -7 25.4400 20.5400   1
   5 -11   5 380.370 22.9000   1
  -5  11   5 314.890 23.5200   1
   5  11  -5 342.780 35.0800   1
  -5 -11  -5 393.840 36.2300   1
   5 -11   5 393.720 22.2700   1
  -5  11   5 361.680 27.1200   1
   5 -11  -5 363.950 27.8000   1
  -5 -11   5 272.920 20.1700   1
  -5 -11  -5 411.430 34.0600   1
   8 -11  -4 809.190 39.5700   1
  -8 -11  -4 706.360 52.0200   1
  -8 -11  -4 911.990 53.8700   1
  -8 -11   4 764.710 28.8600   1
   8 -11   4 739.300 36.1800   1
   8 -11  -4 902.950 38.0300   1
   8 -11   4 773.670 29.3700   1
  -8  11   4 847.800 37.7100   1
   8  11  -4 729.490 46.6300   1
   4 -15  -3 172.130 19.2400   1
  -4 -15  -3 151.500 33.0300   1
   4 -15   3 206.160 21.9900   1
   4 -15  -3 232.760 26.2000   1
  -4  15   3 203.140 23.8100   1
  -4 -15   3 209.830 29.4200   1
  -4 -15  -3 176.940 25.8900   1
  -4 -15  -3 213.110 23.6500   1
  -4 -15   3 155.090 17.7400   1
  15   0   0 11.9700 25.4200   1
 -15   0   0 43.6100 19.3800   1
  15   0   0 41.1100 23.1600   1
  -1  -4  -7 191.580 48.3200   1
  -1  -4  -7 100.520 23.1800   1
   1  -4  -7 114.400 22.1100   1
  -1  -4   7 85.2200 17.8500   1
   1  -4   7 95.7400 21.0700   1
  -1   4   7 85.3600 19.9200   1
   1   4   7 97.2400 23.1300   1
  -1   4   7 66.1700 18.2100   1
   1   4   7 75.6200 23.1800   1
  12  -4  -4 461.190 33.3100   1
  12  -4   4 468.280 25.5100   1
 -12   4   4 472.040 26.2000   1
  12   4  -4 472.700 32.9700   1
  12  -4  -4 385.080 29.4600   1
 -12  -4  -4 431.350 36.3100   1
 -12   4  -4 313.140 31.9700   1
 -12   4   4 562.500 30.1900   1
 -12   4  -4 535.660 41.3900   1
 -12  -4  -4 564.910 40.2900   1
 -12  -4   4 516.110 37.2100   1
  14  -4   2 469.950 27.9100   1
 -14  -4   2 445.200 26.6000   1
  14  -4  -2 434.680 33.2000   1
  14   4   2 421.430 39.8700   1
  14  -4  -2 344.750 25.0400   1
  14   4  -2 430.040 31.4200   1
 -14   4   2 396.920 25.9000   1
 -14  -4  -2 395.140 45.0600   1
 -14   4  -2 382.160 35.4200   1
  14  -4   2 480.050 32.3900   1
 -14  -4  -2 355.600 29.5100   1
  -9 -10  -4 432.420 34.7000   1
   9 -10  -4 425.320 29.5300   1
  -9 -10  -4 519.810 48.8500   1
   9  10  -4 416.940 33.1600   1
   9 -10  -4 415.810 21.7800   1
   9 -10   4 451.390 29.2200   1
  -9 -10   4 394.900 22.9100   1
  -9  10   4 546.000 29.2600   1
   9 -10   4 482.220 23.2400   1
  15   1   0 2219.30 76.4900   1
  15  -1   0 2532.89 73.6400   1
  15   1   0 2670.76 77.5800   1
 -15  -1   0 2368.82 70.2600   1
 -15   1   0 2550.73 80.4800   1
  15  -1   0 2325.48 83.0800   1
  -3 -12  -5 738.330 45.4400   1
   3 -12  -5 775.010 41.2700   1
   3  12   5 472.900 65.8500   1
  -3  12   5 755.550 42.0200   1
   3 -12   5 784.090 34.9000   1
  -3  12   5 624.830 35.0900   1
   3 -12   5 822.630 37.9400   1
  -3 -12   5 718.860 33.4200   1
  -3 -12  -5 705.320 46.8800   1
   3 -12  -5 600.450 47.0900   1
  -9 -13   2 1291.83 82.3000   1
  -9 -13  -2 1442.66 64.5200   1
   9 -13  -2 1150.34 51.9400   1
  -9  13   2 1559.32 56.4300   1
   9 -13  -2 1267.53 39.4200   1
  -9 -13   2 1332.35 45.3600   1
  -9 -13  -2 1323.20 50.8100   1
   9 -13   2 1202.08 38.5000   1
   3  -9   6 42.7000 16.3400   1
  -3  -9  -6 0.75000 23.8800   1
   3  -9  -6 31.0300 20.9100   1
  -3   9   6 14.5100 22.4200   1
  -3  -9  -6 54.5500 36.2100   1
  -3  -9   6 20.4100 14.5900   1
   3  -9   6 31.7100 15.0700   1
  -3   9   6 39.7000 16.8800   1
 -10  12   2 1472.62 48.9600   1
  10 -12  -2 1568.72 45.3100   1
 -10 -12   2 1553.50 53.6200   1
 -10 -12  -2 1574.01 61.9700   1
  10 -12   2 1565.59 46.5200   1
  10 -12   2 1068.13 79.8300   1
 -10 -12   2 1216.93 68.1500   1
 -10 -12  -2 1510.38 70.7500   1
  10 -12  -2 1598.48 57.3400   1
   9  -7  -5 233.060 24.9000   1
  -9  -7   5 193.900 19.5900   1
  -9  -7  -5 269.380 28.4600   1
   9   7  -5 293.220 28.7200   1
  -9   7   5 221.310 21.9500   1
   9  -7   5 232.000 20.9100   1
  -9   7   5 220.350 19.4200   1
   9  -7  -5 228.010 20.7700   1
   9  -7   5 226.420 22.5100   1
  -9  -7  -5 261.080 36.2300   1
  -3 -14  -4 1418.21 68.5100   1
   3 -14  -4 1338.70 46.1600   1
   3 -14   4 1592.40 49.3000   1
  -3 -14  -4 1677.05 64.3700   1
   3 -14  -4 1599.06 82.6100   1
   3 -14  -4 1378.16 54.1700   1
  -3 -14   4 1361.41 69.4600   1
  -3  14   4 1585.68 62.0800   1
   3  14   4 1001.09 101.660   1
   2 -17  -1 186.580 24.6900   1
  -2 -17  -1 160.790 23.0900   1
  -2 -17   1 159.590 18.0000   1
   2 -17  -1 116.570 26.7100   1
   2 -17   1 186.880 32.6800   1
  -2 -17   1 214.570 26.4900   1
  -2  17  -1 162.110 27.6500   1
  -2  17   1 152.130 28.4600   1
  -2  17   1 230.430 40.8500   1
  -2  17  -1 183.780 46.9000   1
  -2 -17  -1 152.200 19.8600   1
  -8   3   6 646.940 31.9300   1
   8  -3   6 607.880 34.2400   1
  -8   3   6 705.480 33.3600   1
  -8  -3   6 643.550 30.4800   1
  -8  -3  -6 602.300 52.8700   1
  -8   3  -6 706.460 53.8100   1
   8  -3  -6 657.220 35.7000   1
   8   3  -6 548.560 42.1500   1
  -8  -3  -6 484.460 39.4000   1
  -4 -16   2 18.8400 16.8300   1
  -4 -16  -2 4.91000 16.4300   1
  -4 -16   2 8.93000 23.4000   1
  -4 -16  -2 13.8300 22.0400   1
  -4  16   2 6.48000 19.8200   1
   4 -16  -2 35.8100 21.3300   1
  -4  16  -2 18.7400 15.6200   1
   4 -16   2 29.8300 19.1000   1
   4 -16  -2 -2.5200 17.0300   1
 -13   5  -3 484.940 53.8800   1
 -13  -5   3 535.100 27.3800   1
 -13  -5  -3 420.880 42.9000   1
  13  -5  -3 480.420 42.2700   1
 -13   5   3 452.940 31.0300   1
  13   5  -3 484.920 33.8500   1
  13  -5   3 473.210 36.8200   1
 -13   5   3 523.520 39.3300   1
  13  -5   3 539.940 27.8800   1
 -13  -5   3 399.070 27.7500   1
 -13   5   3 515.670 37.8900   1
  13  -5  -3 508.520 40.1700   1
 -13  -5  -3 539.070 36.3800   1
  -7 -12  -4 289.500 28.6100   1
  -7 -12   4 221.000 35.6600   1
   7 -12   4 227.120 18.1400   1
  -7 -12   4 241.430 19.2200   1
  -7 -12  -4 251.670 28.8400   1
  -7  12   4 313.400 26.8000   1
   7 -12   4 197.360 17.8800   1
   7 -12  -4 347.810 29.2500   1
   7 -12  -4 241.140 19.2900   1
  10   5  -5 482.860 32.9100   1
 -10   5  -5 575.900 55.8500   1
 -10  -5  -5 402.610 38.1500   1
 -10  -5   5 415.570 22.3300   1
 -10   5   5 443.030 25.5600   1
  10  -5  -5 389.590 27.8900   1
  10  -5   5 337.380 21.5700   1
 -10   5   5 444.320 29.0700   1
  10  -5  -5 427.370 28.8600   1
 -10  -5  -5 380.420 32.2900   1
  -3  17   0 592.830 39.1900   1
   3 -17   0 600.570 39.0900   1
  -3 -17   0 586.580 41.2900   1
  -3 -17   0 694.060 33.7400   1
  11   7  -4 454.570 35.2800   1
  11  -7  -4 566.770 31.8600   1
 -11  -7  -4 499.620 45.5000   1
 -11   7  -4 681.400 57.3600   1
 -11  -7  -4 546.010 36.5000   1
 -11  -7   4 539.210 27.2300   1
 -11   7   4 488.330 26.8300   1
  11  -7  -4 562.570 30.9500   1
  11  -7   4 485.770 23.5100   1
 -11   7   4 570.070 31.8100   1
  14   6  -1 94.4600 23.8900   1
 -14  -6  -1 85.7600 21.4000   1
 -14  -6   1 83.6000 18.4000   1
  14  -6  -1 121.460 18.3300   1
  14  -6   1 58.2600 23.2400   1
  14  -6  -1 90.6300 22.3500   1
  14  -6   1 54.4500 16.4100   1
  14   6   1 49.1700 22.8100   1
 -10 -13   0 232.640 19.5100   1
  10 -13   0 255.910 19.0700   1
 -10  13   0 254.350 22.4800   1
  10 -13   0 216.400 25.4800   1
 -10 -13   0 250.640 29.3500   1
  10 -13   0 209.980 40.5400   1
  -3  -3   7 1228.57 42.1400   1
  -3  -3  -7 1296.13 65.4800   1
   3  -3  -7 1255.07 57.3200   1
   3   3  -7 927.100 46.8100   1
   3   3   7 985.470 51.3100   1
  -3   3   7 989.930 54.2500   1
  -3  -3   7 1065.28 43.0400   1
   3   3   7 1316.07 49.8700   1
   3  -3   7 1260.32 45.5600   1
  -3  -3  -7 1483.81 73.6500   1
  -3   3   7 1248.57 43.3700   1
  -4   0  -7 337.640 48.3200   1
  -4   0   7 438.470 27.4800   1
  -4   0  -7 264.430 27.1000   1
   4   0   7 437.340 26.0300   1
   4   0  -7 303.020 25.5700   1
  -4   0   7 330.770 23.9500   1
  15   2   0 583.390 37.6000   1
  15  -2   0 673.100 34.7100   1
  15  -2   0 557.820 37.0100   1
 -15   2   0 522.390 44.7200   1
 -15  -2   0 602.580 34.8200   1
  15   2   0 481.920 34.1700   1
   2   4  -7 2223.44 71.9500   1
  -2  -4  -7 3160.68 115.750   1
   2   4   7 2402.93 68.7000   1
   2  -4  -7 2496.13 83.1900   1
  -2  -4  -7 2543.02 88.6000   1
  -2   4   7 2530.99 75.7900   1
   2  -4   7 2785.62 71.7800   1
  -2   4   7 2418.63 65.7900   1
   2   4   7 2415.76 85.0800   1
  -2  -4   7 2479.09 63.5200   1
   9 -12  -3 465.130 24.0500   1
  -9 -12   3 428.960 23.0600   1
  -9 -12  -3 432.430 29.6000   1
  -9 -12   3 421.310 42.8900   1
  -9 -12  -3 267.000 37.9500   1
   9 -12   3 418.930 22.4200   1
  -9  12   3 532.340 32.2500   1
   9 -12  -3 407.600 31.7600   1
  -9 -12  -3 401.460 35.3400   1
  -6  -7  -6 304.020 30.9600   1
   6  -7  -6 384.380 30.8200   1
  -6  -7  -6 462.000 43.8300   1
   6  -7   6 363.420 26.3200   1
  -6   7   6 366.180 23.2700   1
  -6   7   6 440.450 28.3900   1
   6   7  -6 268.530 25.4100   1
  -6  -7   6 411.180 27.1300   1
   6  -7   6 329.480 21.6200   1
   4  -1  -7 134.520 22.5800   1
  -4  -1   7 107.630 16.5000   1
   4   1   7 120.100 22.0700   1
   4  -1   7 102.740 21.6400   1
  -4   1   7 150.610 18.4000   1
   4   1  -7 83.6900 23.6000   1
  -4  -1  -7 194.620 45.5500   1
   4   1   7 95.2000 20.8000   1
  -4  -1  -7 99.8800 21.1700   1
  -4  -1   7 103.860 18.8300   1
  -4   1   7 111.730 18.3400   1
  -9 -14   0 427.100 25.8600   1
  -9  14   0 417.620 27.3900   1
   9 -14   0 468.420 30.8100   1
  -9 -14   0 476.570 43.1700   1
   9 -14   0 396.200 44.0400   1
   9 -14   0 543.170 26.6700   1
  -5  -8   6 494.050 36.3600   1
  -5  -8  -6 451.680 30.7800   1
   5  -8   6 566.320 30.2700   1
   5  -8   6 575.280 28.0600   1
  -5   8   6 466.850 27.5200   1
  -5   8   6 519.120 41.3900   1
   5   8  -6 348.390 30.3300   1
  -5  -8  -6 466.670 41.3500   1
   5  -8  -6 402.570 34.0200   1
 -11   0  -5 -44.450 33.9700   1
  11   0   5 11.9200 21.2800   1
 -11   0   5 16.0500 14.3800   1
  11   0  -5 -0.5300 20.7500   1
 -11   0  -5 15.7800 20.0400   1
   6 -16   0 1202.35 68.2100   1
  -6 -16   0 1105.01 73.3700   1
   6 -16   0 1044.04 48.5100   1
  -6  16   0 1026.35 49.2500   1
   6 -16   0 1180.91 57.9100   1
  -6 -16   0 1075.31 40.4400   1
  -8  14   2 3141.61 80.1800   1
   8 -14  -2 3141.85 88.1100   1
   8 -14  -2 2840.15 60.9100   1
  -8 -14   2 2666.87 97.1400   1
  -8 -14  -2 2647.16 97.4500   1
  -8 -14   2 3525.24 82.8300   1
  -8 -14  -2 3268.32 93.2500   1
  15   0   1 2.53000 22.9200   1
 -15   0  -1 5.65000 19.5800   1
  15   0  -1 -0.1300 25.3300   1
 -15   0   1 10.4700 14.1400   1
  15   0   1 16.3100 22.4800   1
  15   0  -1 10.2600 21.9900   1
 -11 -11  -2 238.150 31.3100   1
  11  11  -2 146.740 26.6700   1
  11 -11   2 78.1600 32.5800   1
 -11 -11  -2 167.010 23.9400   1
  11 -11   2 168.090 22.7700   1
 -11 -11   2 159.580 21.5500   1
  11 -11  -2 154.240 18.6700   1
  11 -11   2 162.150 17.5500   1
 -11  11   2 172.840 19.6300   1
 -11 -12   0 1057.88 64.9100   1
 -11 -12   0 1260.26 47.4300   1
  11 -12   0 1299.66 38.7200   1
 -11  12   0 1106.63 39.6400   1
  11 -12   0 1152.92 47.4300   1
 -11  -1  -5 1110.96 66.1100   1
  11  -1  -5 1260.42 54.8700   1
  11   1  -5 1330.77 58.7400   1
 -11   1  -5 1020.06 60.1100   1
 -11   1  -5 1443.68 77.3600   1
  11  -1   5 1090.15 42.5400   1
  11   1   5 1138.64 50.3200   1
 -11   1   5 1319.41 46.3200   1
 -11  -1   5 1236.28 41.4300   1
 -11  -1  -5 1350.17 70.3700   1
  15  -1  -1 64.8400 24.0500   1
  15   1  -1 23.7700 23.5300   1
  15  -1   1 74.1300 22.5100   1
  15   1   1 15.2600 23.6400   1
 -15   1  -1 50.7500 19.7200   1
 -15  -1  -1 70.8600 20.2200   1
 -15   1   1 67.4700 22.7700   1
 -15  -1   1 63.1800 17.9300   1
  15   1  -1 89.3000 24.4600   1
  15   1   1 60.2000 26.5600   1
  15  -1  -1 85.5600 22.0800   1
  15  -1   1 80.4200 21.0400   1
 -13  -9   0 99.5900 18.3300   1
 -13  -9   0 87.4800 29.1700   1
  13  -9   0 108.980 22.6400   1
  13  -9   0 126.570 18.3400   1
 -10 -11  -3 221.290 27.5100   1
  10 -11  -3 259.380 26.7800   1
 -10 -11  -3 297.280 32.4600   1
  10  11  -3 178.110 38.9000   1
 -10  11   3 283.600 25.0700   1
  10 -11   3 283.230 21.1800   1
  10 -11  -3 266.940 18.5700   1
 -10 -11   3 204.190 18.1100   1
 -10  -9  -4 1435.18 67.9600   1
  10   9  -4 1479.61 69.3100   1
 -10   9   4 1544.36 52.8700   1
  10  -9   4 1292.32 41.9700   1
  10  -9  -4 1534.19 47.7300   1
  10  -9   4 1336.03 52.5800   1
 -10  -9   4 1250.15 41.3100   1
  10  -9  -4 1359.87 51.8100   1
 -10  -9  -4 1410.97 78.7900   1
  -8 -13   3 307.170 20.6600   1
   8 -13  -3 402.690 22.4300   1
  -8 -13  -3 363.750 29.9800   1
  -8 -13   3 285.710 36.9900   1
  -8 -13  -3 214.300 32.7700   1
   8 -13   3 336.810 20.1600   1
  -8  13   3 383.310 25.9700   1
  -8 -13  -3 285.970 32.1600   1
   8 -13  -3 336.790 28.8700   1
   0  -5   7 486.920 26.3900   1
   0   5   7 511.380 39.9800   1
   0   5   7 372.010 30.4800   1
   0  -5  -7 394.400 30.7900   1
  -4  -2   7 1015.43 37.9600   1
  -4  -2  -7 931.140 61.0000   1
   4  -2   7 1157.80 44.9300   1
  -4  -2  -7 798.110 51.5600   1
   4   2   7 728.250 43.0900   1
   4  -2  -7 736.840 38.9500   1
  -4   2   7 1050.97 47.3700   1
  -4  -2   7 858.900 41.3100   1
   4   2   7 1176.39 50.0600   1
  -4   2   7 1086.18 43.3300   1
   4   2  -7 850.590 47.3500   1
  12  -8  -3 1956.59 64.6500   1
 -12   8   3 1494.59 45.0100   1
 -12  -8  -3 1401.67 62.5500   1
  12   8  -3 1289.44 64.9900   1
  12  -8  -3 1383.96 49.1800   1
 -12  -8  -3 1654.77 75.5000   1
 -12  -8   3 1582.83 49.5800   1
  12  -8   3 1445.31 44.8300   1
   0  10   6 746.040 45.0600   1
   0 -10   6 652.290 33.6300   1
   0 -10   6 827.890 37.2100   1
   0  10   6 664.700 36.6900   1
   0  10  -6 485.580 62.5000   1
   0 -10  -6 694.400 51.7300   1
   0 -10  -6 823.010 44.8700   1
   3 -17  -1 1569.78 71.1100   1
   3 -17   1 1591.11 78.6800   1
  -3  17  -1 1751.33 90.9000   1
  -3  17   1 1416.60 58.1600   1
  -3  17  -1 1446.75 65.1900   1
   3 -17   1 1827.50 52.2100   1
   3 -17  -1 1537.00 47.9200   1
  -3 -17  -1 1547.38 54.5300   1
   3 -17  -1 1630.26 74.7100   1
  -3 -17   1 1747.08 52.5700   1
  -3 -17   1 1521.96 76.2900   1
  -3 -17  -1 1615.29 73.7300   1
  15   3   0 789.820 46.4300   1
  15  -3   0 1028.53 45.0600   1
  15   3   0 933.160 49.6100   1
  15  -3   0 987.710 47.0800   1
 -15   3   0 847.370 42.4400   1
 -15  -3   0 964.900 43.6600   1
   8  -4  -6 345.960 27.4500   1
   8   4  -6 339.380 28.6500   1
  -8   4   6 378.650 24.9300   1
   8  -4   6 433.640 27.4600   1
  -8  -4   6 347.430 22.5500   1
  -8   4   6 430.700 24.5000   1
  -8  -4  -6 356.330 40.3300   1
  -8   4  -6 289.980 41.7200   1
  -8  -4  -6 321.230 30.0800   1
  -1  -5   7 291.210 24.1700   1
   1  -5  -7 293.660 25.7200   1
  -1  -5  -7 267.170 27.0800   1
  -1   5   7 299.460 27.0800   1
   1   5   7 313.230 27.0700   1
  -1  -5  -7 328.940 46.1800   1
  -1   5   7 322.520 26.4800   1
   1  -5   7 266.430 23.1100   1
   1   5   7 336.690 27.0100   1
 -10 -13   1 232.660 31.0400   1
 -10 -13  -1 178.110 21.8200   1
  10 -13   1 217.060 19.6300   1
 -10 -13  -1 189.390 27.3300   1
 -10  13  -1 169.060 19.1200   1
 -10 -13   1 209.680 22.7200   1
  10 -13   1 167.470 29.4400   1
  10 -13  -1 225.510 25.0300   1
  10 -13   1 155.890 24.5800   1
 -10  13   1 205.030 22.7600   1
  -7  -6  -6 883.170 51.3800   1
   7   6  -6 908.730 48.1300   1
  -7   6   6 934.650 37.4000   1
   7  -6   6 778.310 32.6700   1
   7  -6  -6 935.240 44.6600   1
  -7  -6   6 730.130 35.8700   1
  -7  -6  -6 945.120 59.2000   1
   7  -6   6 971.690 43.9300   1
  -7   6   6 959.740 42.8600   1
  12  -5  -4 649.650 35.4800   1
 -12   5  -4 721.250 63.8900   1
 -12  -5  -4 662.870 44.4300   1
 -12  -5   4 474.080 25.6000   1
  12  -5   4 599.750 32.0800   1
  12   5  -4 641.100 37.0800   1
  12  -5  -4 631.190 38.7400   1
 -12  -5  -4 635.780 44.4000   1
 -12   5   4 577.170 32.4100   1
 -12   5   4 551.160 28.9300   1
  14  -5   2 670.100 29.7800   1
  14  -5   2 619.400 41.8500   1
  14  -5  -2 722.980 45.8200   1
 -14  -5  -2 799.150 56.9800   1
 -14   5  -2 619.890 44.2900   1
  14   5  -2 605.760 37.8900   1
 -14  -5  -2 703.170 38.7500   1
 -14  -5   2 607.430 30.5000   1
  14  -5  -2 654.430 32.1700   1
 -11   2  -5 509.270 52.3500   1
 -11  -2  -5 487.230 42.1800   1
 -11  -2   5 439.730 23.7400   1
 -11   2   5 390.930 23.7600   1
 -11  -2  -5 381.390 40.6400   1
  11   2   5 421.240 36.7700   1
  11  -2   5 381.530 24.7000   1
 -11   2   5 455.610 25.8000   1
  11   2  -5 415.600 31.9200   1
  11  -2  -5 512.000 44.2600   1
   0 -16   3 -0.0300 12.7500   1
   0  16   3 -35.780 37.3000   1
   0  16  -3 36.0800 53.6300   1
   0 -16  -3 -45.780 23.2500   1
   0 -16  -3 -8.6200 34.0400   1
   0 -16  -3 -2.7400 21.9700   1
   1  10   6 323.770 30.0600   1
  -1  10   6 357.560 29.2000   1
  -1 -10   6 294.600 22.6800   1
   1 -10   6 342.970 24.8600   1
  -1  10   6 359.200 28.3200   1
   1 -10   6 299.070 21.0400   1
  -1 -10   6 292.930 19.8600   1
   1 -10  -6 458.280 45.4100   1
  -1 -10  -6 446.830 45.6200   1
  -1 -10  -6 354.670 30.5600   1
   1 -10  -6 404.100 29.4400   1
   1  10  -6 291.430 51.1100   1
  15  -2  -1 893.940 45.6100   1
  15  -2   1 778.810 45.3100   1
  15   2   1 744.810 47.7000   1
  15  -2   1 830.560 39.9800   1
  15  -2  -1 826.140 36.9700   1
  15   2   1 830.360 47.3500   1
  15   2  -1 827.450 43.5500   1
 -15  -2   1 792.100 38.8200   1
 -15   2   1 760.180 39.5700   1
  15   2  -1 886.240 52.7900   1
 -15   2  -1 905.080 48.7100   1
 -15  -2  -1 868.450 41.8000   1
  -7  10   5 2595.80 70.8800   1
   7 -10   5 2474.84 61.7000   1
   7 -10   5 2521.52 71.1000   1
  -7  10   5 2112.58 63.3000   1
  -7 -10   5 2113.93 54.9100   1
  -7 -10  -5 2557.08 94.4900   1
  -7 -10  -5 2356.53 80.7300   1
   7 -10  -5 2645.40 84.1000   1
   7  10  -5 2109.42 83.6800   1
  -6 -13  -4 268.030 31.9000   1
   6 -13   4 255.390 20.9600   1
  -6 -13   4 215.130 17.5500   1
  -6 -13   4 202.040 31.9600   1
  -6 -13  -4 209.920 28.8400   1
   6 -13   4 304.420 23.3700   1
   6 -13  -4 241.350 26.2700   1
  -6  13   4 251.260 26.0000   1
   6 -13  -4 211.940 17.2500   1
   4 -12   5 1129.58 43.5000   1
  -4  12   5 1023.09 46.6600   1
   4 -12   5 1146.64 39.0800   1
  -4  12   5 924.020 43.9700   1
   4  12   5 669.360 89.9500   1
   4 -12  -5 938.510 49.4700   1
  -4 -12  -5 937.280 53.9000   1
  -4 -12  -5 1088.11 69.3500   1
  -4 -12   5 970.320 36.2100   1
  -4   9   6 276.110 24.2300   1
  -4  -9  -6 177.680 24.7200   1
   4  -9  -6 142.210 24.9200   1
  -4  -9  -6 256.760 38.4000   1
  -4  -9   6 254.620 21.4700   1
   4  -9   6 204.620 19.2500   1
  -4   9   6 213.590 21.2700   1
   4  -9   6 217.680 18.7300   1
  14   7   0 87.9600 23.0400   1
  14  -7   0 107.860 19.0900   1
 -14  -7   0 89.8000 20.4500   1
  14  -7   0 70.8700 22.2200   1
  -3  -4  -7 164.120 40.8400   1
  -3  -4   7 157.210 20.5800   1
  -3   4   7 128.740 18.0300   1
   3  -4   7 198.670 22.6800   1
  -3  -4  -7 168.270 24.6800   1
   3  -4  -7 199.060 26.3600   1
   3   4  -7 110.020 20.5200   1
   3   4   7 166.740 25.9800   1
  -3   4   7 169.600 20.9300   1
   3   4   7 191.670 25.1000   1
  -4 -14   4 158.140 15.7500   1
   4 -14   4 169.240 16.4400   1
   4 -14  -4 164.090 17.3800   1
   4 -14   4 196.540 21.9900   1
  -4  14   4 171.960 24.0700   1
   4 -14  -4 200.420 24.4300   1
  -4 -14  -4 218.830 30.3100   1
  -4 -14   4 191.630 27.9500   1
  -4 -14  -4 204.540 27.8800   1
   1 -16  -3 577.410 45.0800   1
  -1 -16  -3 812.060 47.9700   1
   1 -16  -3 727.260 49.8500   1
  -1  16   3 621.880 41.2100   1
  -1  16  -3 718.910 73.3900   1
   1  16   3 729.090 72.5400   1
   1  16  -3 847.650 94.9600   1
   1 -16  -3 617.100 41.3600   1
  -1 -16  -3 761.470 47.4400   1
  -1 -16  -3 509.330 54.5800   1
  -1 -16   3 704.890 32.0600   1
   1 -16   3 625.220 28.7300   1
   9 -14   1 321.940 35.6600   1
  -9 -14  -1 428.080 32.3200   1
   9 -14   1 453.900 22.6500   1
   9 -14   1 464.220 32.7300   1
  -9  14  -1 439.600 27.2100   1
  -9  14   1 431.460 27.2800   1
  -9 -14  -1 500.550 39.5500   1
  -9 -14   1 420.490 27.0900   1
   9 -14  -1 408.540 20.9500   1
  -9 -14   1 468.120 44.8900   1
   9 -14  -1 397.210 27.6100   1
  -8  -9  -5 1196.62 58.9700   1
   8  -9  -5 1465.79 60.7600   1
  -8   9   5 1506.34 57.1600   1
   8   9  -5 1142.15 59.3800   1
  -8  -9  -5 1095.93 57.6900   1
   8  -9   5 1071.67 36.0500   1
   8  -9   5 1234.68 47.7000   1
  -8  -9   5 1089.32 36.1500   1
  -8   9   5 1227.16 45.9900   1
  -6 -16   1 569.680 44.2600   1
  -6  16  -1 596.470 38.2200   1
   6 -16   1 576.790 43.8500   1
  -6 -16  -1 627.590 48.5200   1
   6 -16  -1 442.780 40.7000   1
  -6  16   1 590.630 33.8600   1
   6 -16  -1 592.780 34.4000   1
   6 -16   1 682.330 28.5300   1
   6 -16  -1 604.690 27.2300   1
  -6 -16   1 588.730 34.3000   1
  -6 -16  -1 611.110 35.8700   1
  -5 -15  -3 137.540 24.7800   1
  -5 -15  -3 104.310 27.8900   1
  -5 -15   3 132.780 25.0100   1
  -5 -15  -3 164.370 23.9800   1
   5 -15  -3 193.490 24.7600   1
  -5  15   3 133.240 23.7400   1
   5 -15   3 143.220 20.8500   1
   5 -15  -3 170.050 17.4000   1
  -5 -15   3 119.390 16.9200   1
  -8 -15   0 1102.96 45.7200   1
   8 -15   0 1410.68 44.4600   1
  -8  15   0 1124.21 47.5600   1
   8 -15   0 1263.28 57.5500   1
   8 -15   0 917.720 65.2400   1
  -8 -15   0 1132.09 57.4700   1
 -11  12  -1 8.31000 13.1200   1
 -11  12   1 14.6900 17.3200   1
  11 -12   1 17.9000 19.1000   1
  11 -12   1 20.4900 28.7500   1
 -11 -12   1 28.3300 23.6700   1
 -11 -12  -1 11.2700 24.9100   1
  11 -12  -1 11.9200 17.0100   1
  11 -12   1 -31.840 14.2600   1
  11 -12  -1 -8.1000 13.2400   1
 -11 -12   1 -11.050 15.9500   1
 -11 -12  -1 36.1400 18.5500   1
   4 -17   0 117.390 22.0300   1
  -4 -17   0 60.4000 21.4100   1
   4 -17   0 102.390 18.3500   1
  -4 -17   0 87.5100 16.5700   1
  -4  17   0 75.1300 21.7300   1
  13   9  -1 270.980 30.5600   1
 -13  -9  -1 276.120 33.6700   1
  13  -9   1 273.280 20.7000   1
  13  -9  -1 281.200 27.5400   1
  13  -9   1 218.630 25.8200   1
 -13  -9  -1 254.040 23.0100   1
 -13  -9   1 196.920 19.4500   1
  13  -9  -1 262.870 21.5000   1
 -13   9   1 291.630 21.9700   1
 -13  -8  -2 1255.24 48.8800   1
 -13  -8  -2 986.300 63.6900   1
 -13   8   2 1409.33 44.4200   1
  13   8  -2 1160.81 53.2900   1
  13  -8   2 1357.73 69.0800   1
  13  -8  -2 1246.69 62.6500   1
  13  -8   2 1229.44 40.4300   1
  13  -8  -2 1436.20 47.7700   1
 -13  -8   2 1268.96 46.0700   1
  -4  -3   7 155.720 18.5800   1
  -4  -3  -7 88.6300 20.9300   1
   4  -3  -7 107.000 20.5500   1
   4   3   7 150.670 23.2700   1
  -4  -3  -7 199.770 45.9300   1
  -4   3   7 149.240 19.5800   1
   4  -3   7 130.080 20.7800   1
   4   3   7 152.200 21.3900   1
  -4   3   7 139.930 20.2400   1
   4   3  -7 135.390 22.4900   1
   2  -5  -7 344.210 30.8000   1
  -2  -5  -7 491.660 35.6500   1
   2   5   7 448.730 35.4300   1
  -2   5   7 469.850 29.4900   1
   2   5   7 522.830 40.8000   1
  -2   5   7 515.080 37.3300   1
  -2  -5  -7 606.810 56.6900   1
  -2  -5   7 478.620 25.8500   1
   2  -5   7 529.120 28.1000   1
 -14   0  -3 823.510 50.9800   1
 -14   0   3 897.340 42.2000   1
 -14   0   3 926.890 38.0000   1
  14   0   3 825.280 39.8900   1
 -14   0  -3 694.450 52.6400   1
  14   0  -3 831.160 38.2800   1
  14   0  -3 857.430 46.9100   1
 -13  -6  -3 889.950 47.9600   1
 -13   6  -3 1095.64 68.3200   1
  13   6  -3 725.070 48.0600   1
 -13  -6   3 845.120 39.8100   1
 -13   6   3 781.000 32.7500   1
  13  -6   3 703.900 45.1000   1
 -13   6   3 819.260 36.4200   1
  13  -6   3 790.220 33.7600   1
  13  -6  -3 835.540 35.0600   1
 -13  -6   3 836.070 34.5800   1
  13  -6  -3 769.710 49.0000   1
 -13  -6  -3 831.000 53.0600   1
   2 -10  -6 2054.10 87.9500   1
   2  10   6 1799.54 69.7300   1
  -2  10   6 1896.54 66.9600   1
  -2  10   6 1808.48 59.9000   1
  -2 -10   6 1676.81 48.3800   1
  -2 -10  -6 2097.43 86.9300   1
  -2 -10  -6 1943.83 82.8000   1
   2 -10   6 1944.46 54.2600   1
   2 -10  -6 2102.14 77.1400   1
   2 -10   6 1810.52 53.7600   1
 -10   6   5 931.220 36.1700   1
 -10  -6   5 831.780 33.9600   1
 -10  -6  -5 1131.64 61.2700   1
 -10   6  -5 1158.36 68.3700   1
 -10  -6  -5 780.970 54.0600   1
  10  -6  -5 1007.85 41.9400   1
  10   6  -5 932.160 49.4800   1
 -10   6   5 891.820 36.9300   1
  10  -6   5 879.390 33.1500   1
  10  -6  -5 862.830 49.5600   1
 -12  11   0 -1.4500 15.0100   1
  12 -11   0 -16.300 16.1800   1
 -12 -11   0 18.1400 16.9600   1
  12 -11   0 -6.5200 23.4900   1
 -12 -11   0 -19.360 23.5600   1
  11  10  -3 255.050 35.2800   1
 -11 -10  -3 187.720 27.8800   1
  11 -10  -3 290.970 28.0000   1
 -11 -10   3 258.330 19.8100   1
  11 -10   3 148.060 29.3300   1
 -11 -10  -3 314.110 30.6600   1
  11 -10  -3 291.920 21.0400   1
  11 -10   3 288.280 21.8600   1
 -11  10   3 278.280 22.9300   1
   0  17   2 -18.550 38.8300   1
   0 -17   2 11.5200 14.2900   1
   0 -17  -2 34.6300 19.8400   1
   0 -17   2 4.67000 17.5600   1
   0  17  -2 50.0300 46.6400   1
   0 -17  -2 53.5100 27.7900   1
   6 -11   5 1569.56 47.8900   1
   6  11  -5 1303.82 64.9800   1
   6 -11  -5 1496.77 60.4000   1
  -6 -11  -5 1457.26 67.1900   1
  -6  11   5 1665.06 60.3900   1
   6 -11   5 1525.70 55.3300   1
  -6  11   5 1250.95 45.3200   1
  -6 -11   5 1209.77 38.8200   1
  -6 -11  -5 1626.52 70.7800   1
   5 -16   2 512.870 37.9000   1
  -5 -16   2 485.350 38.1800   1
  -5 -16  -2 446.920 45.0200   1
   5 -16  -2 384.420 41.1600   1
   5 -16  -2 480.770 35.5200   1
  -5 -16  -2 465.150 40.3600   1
   5 -16  -2 353.430 47.9000   1
  -5 -16   2 371.900 40.0500   1
  -5  16   2 401.840 36.0500   1
  14   1   3 746.510 42.6600   1
 -14   1   3 730.500 42.7200   1
 -14  -1   3 744.610 36.6000   1
  14  -1   3 896.900 40.6500   1
 -14  -1  -3 822.800 49.7200   1
 -14   1   3 920.810 40.2400   1
 -14  -1  -3 954.400 66.3900   1
 -14  -1   3 768.670 30.4400   1
  14  -1  -3 800.100 45.1300   1
  14   1  -3 830.620 43.3000   1
  14  -1   3 706.060 51.6300   1
 -14   1  -3 881.780 52.2300   1
  14  -1  -3 809.760 41.1900   1
   0 -13  -5 776.600 44.7000   1
   0 -13  -5 841.840 53.1200   1
   0 -13   5 844.900 35.8700   1
   0  13   5 807.540 48.0800   1
   0  13  -5 800.000 75.8700   1
   7 -14   3 327.080 28.9200   1
   7 -14  -3 236.560 21.7700   1
  -7 -14   3 222.400 22.2200   1
  -7 -14  -3 219.670 28.3600   1
  -7 -14  -3 162.650 30.2100   1
  -7 -14   3 240.660 34.8800   1
  -7 -14  -3 168.430 25.2200   1
   7 -14  -3 185.100 26.2100   1
  -7  14   3 262.990 28.9600   1
 -11  -3  -5 1610.30 79.2200   1
  11  -3  -5 1952.66 73.2000   1
 -11   3  -5 1805.45 84.9400   1
 -11  -3  -5 1864.28 79.8200   1
 -11  -3   5 1697.71 47.6900   1
 -11   3   5 1606.92 48.7600   1
  11   3   5 1485.36 66.8300   1
  11  -3   5 1668.80 55.1000   1
 -11   3   5 1994.15 57.8900   1
  11   3  -5 1839.03 66.0800   1
 -15   3   1 298.430 28.7900   1
 -15  -3  -1 312.240 31.6000   1
 -15   3  -1 341.470 44.6800   1
  15   3   1 271.150 34.2500   1
  15  -3   1 320.100 34.1900   1
  15   3  -1 298.110 32.0900   1
  15   3   1 242.540 31.2200   1
  15  -3   1 259.270 28.1500   1
  15  -3  -1 308.260 29.8100   1
  15  -3  -1 378.470 32.5500   1
 -15  -3   1 322.110 29.2500   1
  -7 -15  -2 1180.96 51.3700   1
  -7 -15   2 1056.17 39.0400   1
   7 -15  -2 948.760 35.3100   1
   7 -15   2 1109.74 38.3500   1
  -7  15   2 1261.95 56.0400   1
   7 -15  -2 966.060 49.9300   1
  -7 -15  -2 898.910 54.6300   1
  -7 -15   2 973.530 64.9400   1
  -2 -16   3 18.0100 14.0300   1
  -2 -16  -3 41.9200 22.7900   1
   2 -16  -3 80.4900 40.8100   1
  -2 -16  -3 46.2700 23.9800   1
  -2 -16   3 17.4000 20.8000   1
   2  16   3 52.0300 38.3200   1
  -2  16  -3 38.9500 33.0200   1
   2 -16  -3 64.6600 24.6400   1
  -2  16   3 -8.4800 20.3500   1
  -2 -16  -3 24.4400 31.7700   1
   1 -17  -2 918.830 64.7400   1
  -1  17   2 884.100 73.4300   1
  -1  17  -2 1302.58 101.690   1
  -1 -17   2 1032.76 60.6600   1
  -1 -17  -2 994.280 46.2400   1
   1  17   2 917.900 89.8300   1
   1 -17   2 895.340 62.5400   1
   1 -17  -2 1010.98 53.9600   1
   1  17  -2 1044.58 97.6800   1
  -1 -17  -2 1098.68 55.2800   1
   1 -17   2 922.930 42.7700   1
  -1 -17   2 974.850 42.2600   1
  -1 -17  -2 800.080 52.3000   1
  -9   0   6 61.5700 25.3400   1
  -9   0  -6 242.750 67.7900   1
  -9   0   6 89.2300 30.7800   1
   9   0  -6 178.420 42.6200   1
   9   0   6 206.370 42.3800   1
  -1  13   5 203.010 23.5400   1
  -1 -13  -5 196.910 30.1200   1
   1 -13  -5 205.770 31.0000   1
   1  13  -5 254.160 52.9000   1
  -1  13  -5 247.410 49.5300   1
  -1 -13  -5 314.710 43.8600   1
  -1  13   5 238.990 31.3300   1
   1 -13   5 235.290 24.9000   1
   1 -13  -5 344.830 43.0700   1
   1 -13   5 260.360 24.1400   1
  -1 -13   5 277.570 24.7800   1
  12 -10  -2 76.7600 22.8300   1
  12 -10   2 48.5700 20.5900   1
  12 -10  -2 114.480 16.3400   1
  12  10  -2 94.8000 27.0900   1
 -12  10   2 70.6300 19.2300   1
  12 -10   2 100.510 18.4300   1
  12 -10   2 -10.380 37.6500   1
 -12 -10   2 120.580 21.6900   1
 -12 -10  -2 133.970 22.3900   1
 -12 -10  -2 75.1000 27.7800   1
  -5   0  -7 54.2600 43.4700   1
   5   0   7 -19.030 17.1700   1
  -5   0   7 5.94000 15.1500   1
   5   0  -7 16.4100 19.3500   1
  -5   0   7 -2.9000 13.3500   1
 -15  -4   0 580.930 31.2100   1
  15  -4   0 583.780 31.4300   1
  15   4   0 511.270 44.9800   1
  15  -4   0 476.280 41.2100   1
 -15   4   0 461.300 41.0400   1
 -14  -7   1 2488.18 68.1800   1
 -14  -7  -1 2046.34 97.2500   1
  14  -7  -1 2673.58 65.7200   1
  14  -7   1 2393.29 61.6500   1
  14   7  -1 2531.49 90.7000   1
  14  -7   1 2395.36 80.1200   1
 -14  -7  -1 2404.78 74.3700   1
  14  -7  -1 2530.15 81.0000   1
   9  -8   5 1641.10 56.4900   1
  -9  -8   5 1606.84 49.9400   1
  -9  -8  -5 1926.64 78.1700   1
  -9  -8  -5 1257.70 61.8900   1
  -9   8   5 1700.44 52.2800   1
   9  -8   5 1851.30 51.1100   1
   9   8  -5 1471.42 62.6300   1
  -9   8   5 1758.74 60.1400   1
   9  -8  -5 1921.24 66.1300   1
   9   1  -6 8702.76 139.350   1
  -9  -1  -6 9135.70 165.760   1
  -9  -1   6 8547.42 99.0500   1
  -9   1   6 8254.84 136.600   1
   9  -1   6 7647.97 145.730   1
   5   1   7 234.760 29.8300   1
   5  -1   7 389.110 33.5600   1
  -5  -1  -7 258.640 31.5900   1
   5   1   7 417.110 35.4800   1
   5   1  -7 305.380 32.4300   1
  -5  -1   7 291.040 30.1200   1
  -5   1   7 395.100 32.8100   1
  -5  -1   7 375.090 30.9000   1
  -5   1  -7 427.840 54.1300   1
  -5  -1  -7 333.980 50.5700   1
  -5   1   7 417.980 31.7800   1
   5  -1  -7 365.100 34.2200   1
  14   2   3 3167.43 92.1300   1
 -14  -2   3 3352.41 74.2600   1
 -14   2   3 3464.82 84.6000   1
 -14   2   3 3131.53 86.4700   1
 -14  -2  -3 3360.51 109.660   1
 -14   2  -3 3468.72 108.250   1
  14   2  -3 3296.47 91.5300   1
  14  -2   3 3413.62 83.2800   1
 -14  -2   3 3480.40 84.5400   1
  14  -2  -3 3710.58 98.3400   1
 -14  -2  -3 3311.91 106.840   1
  14  -2  -3 3501.83 98.1000   1
  14  -2   3 2901.15 98.1200   1
   8 -15   1 613.300 37.1500   1
  -8 -15  -1 607.600 37.1500   1
   8 -15  -1 475.960 43.0700   1
  -8  15  -1 412.080 34.1000   1
   8 -15   1 644.140 30.0400   1
  -8 -15  -1 462.540 44.3800   1
  -8 -15   1 567.950 46.1100   1
   8 -15   1 519.410 57.7400   1
   8 -15  -1 358.380 46.8100   1
  -8 -15   1 594.870 36.1300   1
  -8  15   1 615.780 32.4800   1
   8 -15  -1 585.780 28.3500   1
 -13   0   4 59.3400 17.0100   1
  13   0   4 40.5700 23.4600   1
  13   0  -4 35.9100 22.8900   1
 -13   0  -4 -9.5800 21.4900   1
 -13   0  -4 19.4400 24.3600   1
   4 -17   1 96.7700 21.5300   1
   4 -17  -1 140.810 21.0500   1
  -4 -17   1 123.990 19.7100   1
  -4 -17  -1 129.470 20.3500   1
  -4  17   1 122.110 21.7500   1
   4 -17  -1 58.0800 28.1800   1
   4 -17   1 79.6000 20.6700   1
   4 -17  -1 97.1500 23.1100   1
  -4 -17   1 102.930 26.5900   1
  -4 -17  -1 136.160 25.2600   1
 -11   8   4 1054.15 41.2200   1
  11   8  -4 978.230 54.4700   1
  11  -8  -4 1180.40 49.2100   1
 -11  -8  -4 1128.30 55.7100   1
 -11  -8  -4 1038.47 48.9900   1
 -11   8  -4 1118.60 70.4800   1
 -11   8   4 1057.16 40.6600   1
 -11  -8   4 1018.02 41.2100   1
  11  -8  -4 1111.35 43.1800   1
  11  -8   4 1077.61 38.9600   1
  -8  -5  -6 1000.79 52.7000   1
   8  -5  -6 1280.16 49.7300   1
  -8   5   6 1170.04 43.3400   1
  -8  -5  -6 1196.31 57.7300   1
  -8  -5   6 1022.57 37.3300   1
   8   5  -6 1051.45 50.7600   1
  -8   5   6 1123.95 44.9200   1
  -8   5  -6 1370.69 73.1000   1
   8  -5   6 1072.72 40.2400   1
   8  -5   6 1295.73 50.0500   1
  13  -1   4 1804.28 61.7500   1
  13  -1  -4 1973.05 65.0800   1
 -13  -1  -4 1621.57 72.6800   1
 -13   1  -4 1830.84 84.2300   1
 -13  -1  -4 1897.87 73.8400   1
 -13   1   4 2005.99 59.0500   1
 -13  -1   4 1972.50 57.9000   1
  13  -1  -4 1865.72 71.7100   1
  13   1   4 1628.68 58.0400   1
 -13   1  -4 1731.42 81.3400   1
  13   1  -4 1848.22 62.5000   1
   0  15   4 52.2600 24.6800   1
   0  15  -4 75.9900 44.8200   1
   0 -15  -4 32.7400 25.0800   1
   0 -15  -4 -1.8900 28.0900   1
   0 -15   4 73.7900 16.6500   1
   0   6   7 -14.600 19.2900   1
   0   6   7 -4.4900 20.2600   1
   0  -6  -7 4.18000 19.2300   1
   0  -6   7 14.6700 17.0100   1
   0  -6  -7 37.0200 40.2500   1
  -2 -17  -2 200.350 33.4300   1
   2 -17  -2 224.150 28.9200   1
   2  17   2 219.830 51.6100   1
  -2 -17  -2 241.770 34.5100   1
   2 -17  -2 121.960 34.4200   1
  -2  17  -2 119.770 22.6100   1
  -2  17   2 204.060 32.9300   1
  -2 -17   2 228.610 23.9000   1
  -2  17  -2 260.210 45.5100   1
  -2 -17   2 222.220 31.2800   1
  -2 -17  -2 171.810 27.5100   1
  12 -11  -1 373.700 28.4800   1
  12 -11   1 332.460 27.9500   1
 -12  11   1 275.570 26.8700   1
  12 -11   1 251.800 29.5500   1
  12 -11  -1 376.370 34.5200   1
 -12 -11   1 359.950 45.5200   1
 -12 -11  -1 223.790 33.1000   1
 -12 -11  -1 265.840 27.0200   1
 -12 -11   1 288.670 27.6600   1
   2 -13  -5 42.6100 22.7400   1
  -2 -13  -5 74.9100 25.5700   1
  -2  13   5 15.8900 24.2800   1
   2 -13   5 79.5500 18.9500   1
  -2  13   5 39.2400 16.4300   1
   2 -13   5 59.1100 16.0500   1
  -2 -13   5 32.4900 16.2000   1
  -2 -13  -5 32.5100 32.1800   1
   2 -13  -5 84.6700 35.1100   1
   2  13   5 13.3700 27.8900   1
  -9  -2  -6 471.830 48.0100   1
   9  -2  -6 528.330 32.4900   1
   9   2  -6 779.860 47.7600   1
  -9   2   6 581.780 28.1900   1
   9   2   6 588.680 49.3100   1
  -9   2   6 691.950 34.2700   1
   9  -2   6 491.030 38.3200   1
  -9  -2   6 705.090 34.3100   1
  -9  -2  -6 725.880 52.6900   1
  -9   2  -6 707.180 55.1600   1
  -3  -5  -7 352.920 48.3500   1
  -3   5   7 285.220 28.1200   1
   3  -5   7 375.100 32.7800   1
   3   5   7 312.680 29.0400   1
  -3   5   7 323.280 30.6600   1
   3   5   7 227.970 35.9100   1
   3  -5  -7 270.950 30.4800   1
  -3  -5  -7 284.190 34.4200   1
  -3  -5   7 236.480 22.4600   1
  -5  -2   7 230.790 23.3900   1
   5  -2   7 261.850 28.2800   1
  -5  -2   7 290.000 27.5800   1
  -5  -2  -7 333.530 51.3300   1
  -5   2   7 266.710 25.6500   1
  -5  -2  -7 243.380 33.9100   1
   5  -2  -7 258.170 28.3000   1
   5   2  -7 236.610 28.1400   1
   5   2   7 229.070 30.6900   1
  -5   2   7 199.630 24.0300   1
   6  -8   6 29.4900 13.3000   1
   6  -8   6 11.3000 15.9200   1
   6   8  -6 36.1600 19.7300   1
  -6   8   6 33.5100 18.6800   1
  -6  -8   6 12.9400 14.1900   1
  -6  -8  -6 28.0000 29.1700   1
  -6   8   6 0.87000 18.7900   1
   6  -8  -6 99.2000 24.1000   1
  -6  -8  -6 58.4900 22.3600   1
   4  -4  -7 3778.23 103.800   1
  -4   4   7 3425.23 78.5900   1
   4  -4   7 3256.46 78.7000   1
  -4   4   7 3632.16 96.7600   1
   4   4   7 2942.70 102.830   1
  -4  -4  -7 3137.79 107.210   1
  -4  -4   7 3106.65 72.0500   1
   1 -15  -4 3087.00 93.7300   1
  -1 -15  -4 3583.59 121.560   1
   1 -15  -4 3471.54 109.170   1
   1  15  -4 3335.57 166.830   1
  -1 -15  -4 3003.98 104.080   1
   1 -15   4 3081.14 68.9500   1
  -1  15   4 3629.65 109.160   1
   1  15   4 2417.29 127.270   1
  -1  15  -4 3662.67 150.080   1
  -1 -15   4 3144.16 71.1400   1
  -1  -6  -7 190.710 45.0600   1
   1   6   7 176.280 23.1400   1
  -1  -6  -7 163.660 24.8700   1
  -1   6   7 151.740 23.1400   1
   1  -6   7 117.710 17.7900   1
   1  -6  -7 182.090 25.8100   1
   1   6   7 181.620 26.2100   1
  -1   6   7 150.720 24.4300   1
  -1  -6   7 209.500 24.9400   1
  -3  10   6 458.960 38.8200   1
   3 -10   6 555.150 29.5800   1
  -3  10   6 470.460 38.2200   1
  -3 -10  -6 635.070 48.8800   1
  -3 -10   6 505.930 37.1800   1
   3 -10   6 524.650 30.3800   1
   3 -10  -6 580.180 35.2300   1
  -3 -10  -6 637.960 47.6700   1
  12  -6  -4 166.230 25.9000   1
  12   6  -4 194.470 27.4200   1
 -12   6   4 246.340 24.1900   1
  12  -6   4 239.490 24.9800   1
  12  -6  -4 198.780 23.2800   1
 -12  -6   4 236.530 22.5900   1
 -12  -6  -4 210.480 28.7700   1
 -12   6  -4 245.730 38.5200   1
 -12   6   4 234.460 22.5200   1
 -12  -6  -4 119.680 26.8500   1
  14  -6   2 1387.41 65.5700   1
  14   6  -2 1297.30 59.0700   1
 -14  -6  -2 1434.94 57.0700   1
  14  -6  -2 1506.06 48.1400   1
  14  -6   2 1648.19 53.4800   1
 -14  -6  -2 1374.73 77.8300   1
 -14  -6   2 1350.34 46.9200   1
  14  -6  -2 1330.13 55.3100   1
   3  16   3 828.790 82.0100   1
   3 -16  -3 1062.62 53.3400   1
  -3 -16   3 1043.19 41.9900   1
  -3 -16  -3 1133.95 51.2000   1
  -3 -16  -3 900.640 65.2900   1
   3 -16  -3 960.530 37.1800   1
   3 -16   3 1150.27 41.4300   1
  -3  16   3 883.220 50.0000   1
  -3 -16   3 782.040 55.5400   1
  -3 -16  -3 954.160 45.8800   1
 -13   2  -4 392.900 43.0900   1
 -13   2  -4 563.970 65.7400   1
 -13  -2  -4 511.250 44.1300   1
 -13   2   4 606.400 30.8300   1
 -13  -2   4 453.540 35.2900   1
  13  -2  -4 523.020 32.5800   1
  13   2   4 478.110 42.4100   1
  13  -2   4 458.000 37.4800   1
  13   2  -4 518.960 41.4900   1
  13  -2  -4 508.660 43.4200   1
 -13  -2  -4 564.590 43.3500   1
  11  -4  -5 207.750 27.7400   1
 -11   4   5 209.340 21.4100   1
 -11  -4   5 210.720 20.7200   1
 -11  -4  -5 199.120 36.2600   1
 -11   4  -5 230.120 41.4600   1
  11   4  -5 173.760 27.8100   1
 -11  -4  -5 136.720 27.4500   1
  11  -4  -5 230.740 29.2100   1
 -11   4   5 194.870 21.9400   1
  11  -4   5 147.440 18.8500   1
  15  -4  -1 862.870 43.9600   1
  15  -4   1 933.880 42.9700   1
  15  -4  -1 1110.52 43.0300   1
  15  -4   1 724.160 45.2000   1
  15   4  -1 843.470 45.4600   1
  15   4   1 770.340 48.7000   1
 -15   4  -1 847.370 48.7200   1
 -15  -4  -1 815.320 40.4700   1
 -15   4   1 785.940 40.3600   1
 -15  -4   1 697.180 34.0600   1
   9 -11  -4 632.030 30.5000   1
   9 -11   4 533.980 31.9700   1
   9 -11  -4 540.030 32.9400   1
  -9 -11   4 539.820 29.7600   1
   9  11  -4 450.600 42.8600   1
  -9  11   4 618.210 33.2700   1
   9 -11   4 641.590 30.3900   1
  -9 -11  -4 504.620 48.2000   1
  -9 -11  -4 578.720 41.2000   1
  14  -3  -3 614.540 34.6900   1
 -14   3   3 534.480 28.3100   1
 -14  -3  -3 567.230 40.7100   1
  14  -3   3 547.400 29.3800   1
 -14   3  -3 534.330 41.9600   1
 -14   3   3 535.810 30.0300   1
 -14  -3   3 517.110 37.8100   1
 -14  -3   3 555.190 25.1300   1
  14   3   3 463.880 43.5500   1
  14  -3  -3 591.680 32.6800   1
  14  -3   3 518.000 51.8800   1
  14   3  -3 574.250 36.2900   1
 -14  -3  -3 625.020 47.4800   1
   7  -7   6 188.440 23.3700   1
  -7  -7  -6 153.800 28.1600   1
  -7  -7   6 191.530 22.1500   1
  -7  -7  -6 227.700 38.9000   1
   7   7  -6 167.480 31.8400   1
  -7   7   6 206.800 24.1200   1
   7  -7  -6 184.830 27.1700   1
   7  -7   6 144.440 16.2400   1
  -7   7   6 218.690 24.7900   1
  -5 -12  -5 1084.36 53.8700   1
  -5 -12   5 886.860 68.9700   1
  -5 -12  -5 1138.63 56.6500   1
  -5 -12   5 1051.48 37.3400   1
   5 -12   5 1216.72 44.3300   1
   5 -12   5 1355.20 46.4600   1
  -5  12   5 1290.17 53.1300   1
   5 -12  -5 1143.30 50.0100   1
  -5  -9   6 633.230 30.2600   1
  -5  -9  -6 637.940 38.8900   1
   5  -9  -6 765.970 42.2100   1
   5  -9   6 792.370 39.9500   1
  -5   9   6 752.240 38.0900   1
   5  -9   6 675.660 28.7400   1
  -5   9   6 651.570 33.7900   1
  -5  -9  -6 907.140 52.9800   1
   5   9  -6 605.780 40.2900   1
  -8 -12   4 1763.94 50.4400   1
   8 -12  -4 1772.71 53.0100   1
   8 -12   4 1914.13 50.7700   1
  -8  12   4 1912.18 56.1700   1
   8  12  -4 1829.76 92.9400   1
   8 -12  -4 1797.24 62.0500   1
  -8 -12  -4 1807.00 74.1700   1
  -8 -12  -4 1531.06 67.2600   1
  -5  14   4 1654.57 62.5700   1
  -5 -14   4 1311.64 70.7800   1
  -5 -14  -4 1345.99 61.0200   1
  -5 -14  -4 1429.22 63.5100   1
  -5 -14   4 1352.90 44.2100   1
   5 -14  -4 1287.98 45.7000   1
   5 -14   4 1624.58 46.2600   1
   5 -14  -4 1631.68 62.2600   1
   7 -16   0 14.9100 19.2800   1
  -7  16   0 31.7800 18.0800   1
   7 -16   0 14.3900 16.7400   1
  -7 -16   0 18.5700 18.1800   1
   7 -16   0 29.3000 25.0900   1
  -7 -16   0 28.4800 22.9600   1
 -15   0   2 17.5300 15.6600   1
 -15   0  -2 83.4100 24.0000   1
  15   0  -2 68.9500 24.8300   1
  15   0   2 37.5300 23.5400   1
  15   0   2 71.3300 24.4200   1
  15   0  -2 57.7400 25.8500   1
  15   1  -2 2638.44 90.8500   1
  15  -1  -2 2719.55 78.9400   1
  15   1   2 2284.18 84.4600   1
  15  -1   2 2591.37 96.3300   1
 -15   1  -2 2614.79 87.7400   1
  15   1   2 2845.09 80.7000   1
  15   1  -2 2407.15 84.5000   1
 -15  -1  -2 2466.97 83.1600   1
  15  -1   2 2534.42 69.9000   1
 -15  -1   2 2377.72 67.2900   1
 -15   1   2 2676.39 74.7700   1
  15  -1  -2 2827.15 82.6100   1
   2 -15  -4 3051.82 104.250   1
   2 -15  -4 2531.15 99.9800   1
  -2 -15  -4 2723.39 80.6900   1
   2  15   4 2206.31 145.760   1
   2 -15   4 2683.46 68.2100   1
   2 -15  -4 2389.23 63.4700   1
   2 -15   4 3213.39 76.9000   1
  -2  15   4 3259.30 94.7900   1
  -2  15  -4 3022.35 117.640   1
  -2 -15  -4 2731.84 102.970   1
  -2 -15   4 2727.85 67.0500   1
  -2  -6   7 109.510 19.4300   1
   2   6   7 84.9400 21.8900   1
  -2  -6  -7 83.3800 23.4700   1
  -2   6   7 93.3500 22.1500   1
   2   6   7 110.440 20.3700   1
  -2   6   7 116.470 21.1000   1
   2  -6   7 98.2100 18.4900   1
   2  -6  -7 63.8900 23.0900   1
  -2  -6  -7 78.4400 41.5900   1
  -5  17   0 1607.77 64.6600   1
   5 -17   0 1433.55 58.1300   1
  -5 -17   0 1748.37 59.2500   1
   5 -17   0 1916.79 54.1000   1
  -5 -17   0 1606.63 82.9600   1
  -9  -3  -6 185.170 26.8200   1
   9   3  -6 269.020 30.3900   1
  -9   3  -6 345.860 53.4700   1
  -9  -3  -6 348.220 46.3300   1
   9  -3  -6 263.900 29.1100   1
  -9  -3   6 249.760 25.1100   1
  -9   3   6 302.640 27.2000   1
   9  -3   6 227.110 23.7400   1
  -9   3   6 282.740 26.1000   1
  -5  -3  -7 559.150 46.7400   1
  -5   3   7 622.690 31.2900   1
   5  -3  -7 764.460 41.3800   1
   5   3   7 542.230 41.8900   1
  -5   3   7 584.630 33.3500   1
   5  -3   7 743.090 38.8000   1
  -5  -3  -7 790.530 56.1700   1
  -5  -3   7 678.570 32.1300   1
  15  -5   0 83.7100 19.0600   1
  15   5   0 45.5900 22.1400   1
 -15  -5   0 63.5900 18.8100   1
  15  -5   0 77.7100 22.0600   1
  12  -9   3 625.940 28.8300   1
  12  -9  -3 589.380 34.2400   1
 -12  -9  -3 583.220 48.4700   1
 -12   9   3 540.000 28.0900   1
  12   9  -3 478.200 45.1600   1
  12  -9  -3 593.660 28.1500   1
 -12  -9  -3 544.080 35.3500   1
 -12  -9   3 606.350 32.7600   1
 -12  -9   3 509.060 38.8100   1
  14   8   0 19.6400 24.8100   1
 -14  -8   0 -15.730 15.0200   1
  14  -8   0 7.65000 17.3100   1
  14  -8   0 6.09000 21.4000   1
 -13 -10   0 107.990 19.1700   1
  13 -10   0 162.360 21.2400   1
  13 -10   0 114.120 22.9600   1
 -13 -10   0 153.600 32.0400   1
  -3 -17   2 858.430 39.1600   1
  -3 -17  -2 684.790 41.1700   1
  -3 -17  -2 563.960 44.3300   1
   3 -17  -2 709.630 48.3300   1
  -3 -17  -2 676.950 39.7600   1
   3 -17  -2 826.250 55.9200   1
  -3  17  -2 739.750 55.5600   1
  -3 -17   2 667.530 52.1500   1
  -3  17   2 805.910 45.0600   1
   3 -17   2 764.060 34.2800   1
   3 -17  -2 686.450 32.7400   1
   0  18   0 1348.10 98.3300   1
   0 -18   0 1267.24 56.3900   1
  10  10  -4 562.110 77.0100   1
  10 -10  -4 744.780 33.7600   1
  10 -10   4 605.020 37.5700   1
  10 -10  -4 711.620 41.2800   1
  10 -10   4 659.700 28.3300   1
 -10  10   4 799.380 36.3000   1
 -10 -10  -4 694.610 55.6300   1
 -10 -10  -4 755.270 45.1300   1
 -10 -10   4 700.000 33.4400   1
  -3  13   5 262.690 29.6700   1
   3 -13   5 315.160 28.1000   1
   3 -13   5 226.780 22.9400   1
  -3  13   5 227.540 25.7400   1
   3  13   5 151.060 42.8800   1
  -3 -13  -5 236.060 30.9100   1
   3 -13  -5 242.490 38.3600   1
   3 -13  -5 232.560 29.0300   1
  -3 -13  -5 246.930 34.7400   1
  -3 -13   5 233.190 21.7700   1
  -6 -15   3 766.950 49.6900   1
  -6 -15  -3 734.120 48.2700   1
  -6 -15  -3 913.400 51.3200   1
   6 -15  -3 876.320 34.9700   1
   6 -15   3 839.780 34.9100   1
  -6  15   3 872.580 41.2400   1
   6 -15  -3 783.930 38.8300   1
  -6 -15  -3 469.700 58.0700   1
  -6 -15   3 876.120 36.0700   1
  10 -13  -2 750.350 40.0200   1
 -10  13   2 544.420 28.5500   1
  10 -13   2 724.070 29.3700   1
  10 -13  -2 560.890 24.6600   1
 -10 -13   2 654.290 35.1100   1
  10 -13   2 552.100 52.2600   1
 -10 -13   2 655.180 50.4600   1
 -10 -13  -2 609.730 39.2400   1
 -10 -13  -2 599.790 36.7200   1
  13  -7   3 830.210 36.4600   1
  13  -7  -3 967.820 40.3700   1
  13   7  -3 938.420 54.4400   1
 -13  -7   3 755.730 33.0900   1
 -13  -7  -3 935.380 44.2300   1
 -13   7   3 1096.39 41.0300   1
 -13  -7  -3 952.660 63.7700   1
 -13  -7   3 844.260 40.6200   1
  13  -7  -3 851.910 48.1900   1
  13  -3  -4 1034.33 45.3500   1
 -13  -3  -4 1001.71 57.4400   1
 -13   3  -4 1007.64 66.2300   1
  13  -3  -4 1112.66 49.1000   1
 -13   3   4 1222.69 45.2800   1
 -13  -3   4 1275.95 45.6000   1
 -13  -3  -4 1360.24 68.4200   1
 -13   3  -4 1377.94 70.7700   1
  13   3   4 860.590 48.8200   1
  13   3  -4 1109.76 48.8900   1
  13  -3   4 1022.12 46.2300   1
 -10   7  -5 174.780 44.7100   1
  10   7  -5 120.080 23.7000   1
 -10  -7  -5 146.390 33.9600   1
  10  -7  -5 143.570 23.8900   1
 -10   7   5 158.510 19.1300   1
 -10   7   5 143.110 20.8000   1
  10  -7   5 131.290 17.1200   1
 -10  -7  -5 82.5000 23.2200   1
 -10  -7   5 123.690 17.4400   1
  15  -2  -2 1618.76 60.5200   1
 -15   2  -2 1735.20 79.5600   1
 -15  -2  -2 1880.20 76.5700   1
 -15   2   2 1643.91 57.0000   1
 -15  -2   2 1653.92 52.9700   1
  15   2   2 1774.06 66.9000   1
  15  -2  -2 1813.84 62.8100   1
  15  -2   2 1701.01 56.6200   1
  15   2   2 1680.46 82.2200   1
  15  -2   2 1777.47 75.9800   1
  15   2  -2 1750.47 68.6400   1
   1  18   0 834.180 87.8500   1
  -1 -18   0 969.190 45.6200   1
   1 -18   0 817.710 59.4500   1
  -1 -18   0 969.720 50.0500   1
  -1  18   0 943.370 90.6300   1
   7 -13  -4 1022.73 49.0100   1
  -7 -13   4 949.000 70.2200   1
  -7 -13  -4 961.790 56.6200   1
  -7 -13  -4 1040.76 59.0300   1
  -7 -13   4 907.220 37.3700   1
   7 -13   4 1364.16 45.1000   1
   7 -13  -4 1049.20 37.6200   1
  -7  13   4 1167.88 47.1300   1
   9 -14   2 40.8800 17.6200   1
  -9  14   2 35.5300 17.5100   1
  -9 -14  -2 19.9900 20.8200   1
  -9 -14   2 57.8700 25.9100   1
   9 -14  -2 22.6900 20.9300   1
  -9 -14   2 11.4200 16.6000   1
  -9 -14  -2 18.4800 21.0600   1
   9 -14  -2 3.77000 12.9200   1
  -6 -16  -2 879.690 41.4600   1
  -6 -16   2 894.230 39.5100   1
   6 -16  -2 867.580 32.7600   1
   6 -16   2 819.670 34.9100   1
   6 -16  -2 833.080 45.8200   1
  -6 -16  -2 768.940 50.1600   1
  -6 -16   2 767.100 48.7800   1
   6 -16  -2 612.480 66.8000   1
  -6  16   2 833.560 43.5900   1
  -7 -16  -1 26.2500 21.7300   1
   7 -16  -1 -4.2000 18.6000   1
  -7  16   1 39.8100 21.8600   1
   7 -16   1 -0.8700 17.4500   1
   7 -16   1 5.21000 19.1900   1
  -7 -16   1 14.8300 17.4100   1
  -7 -16   1 28.4900 24.4500   1
   7 -16  -1 6.48000 14.0600   1
  -7 -16  -1 26.9800 16.5100   1
   4   5   7 386.390 39.5300   1
  -4   5   7 454.470 37.1800   1
   4  -5   7 483.710 37.3200   1
  -4  -5  -7 379.250 39.3900   1
  -4  -5  -7 385.030 55.0100   1
   4  -5  -7 450.170 42.5700   1
   4   5  -7 329.260 35.9000   1
  -4   5   7 420.290 33.6400   1
  -4  -5   7 468.200 39.1700   1
   8  -6  -6 597.830 37.3400   1
  -8  -6  -6 509.030 51.1800   1
  -8  -6   6 421.370 32.2900   1
  -8   6   6 489.830 36.8200   1
  -8  -6  -6 372.340 37.7100   1
   8  -6   6 443.290 34.6800   1
   8  -6   6 441.110 32.4800   1
  -8   6   6 540.920 30.3800   1
   8   6  -6 421.090 37.3700   1
  14  -4  -3 1176.27 48.1100   1
  14  -4  -3 1121.38 53.9400   1
  14   4   3 1017.98 58.5800   1
 -14   4  -3 1202.21 62.2700   1
 -14  -4  -3 1359.98 63.1800   1
 -14   4   3 1134.52 51.2700   1
 -14  -4   3 1178.39 45.5800   1
 -14  -4   3 1325.93 46.4900   1
  14  -4   3 1104.93 42.3500   1
  14  -4   3 1069.82 64.2500   1
  14   4  -3 1023.20 50.2900   1
 -14  -4  -3 1303.63 74.1500   1
 -11 -12  -2 668.290 50.4500   1
  11 -12   2 882.800 30.1500   1
  11 -12  -2 880.500 34.6900   1
  11 -12   2 499.860 62.3700   1
 -11  12   2 882.550 38.8600   1
 -11 -12   2 804.970 36.2500   1
 -11 -12  -2 835.160 42.8400   1
 -11 -12   2 866.850 67.1400   1
  11 -12  -2 849.510 43.9900   1
   0  11   6 4.82000 17.7600   1
   0 -11   6 -15.820 12.8000   1
   0 -11  -6 36.4000 36.2100   1
   0 -11  -6 7.55000 23.3400   1
   0  11  -6 21.9900 31.9600   1
   0 -11   6 5.93000 15.9000   1
   0  11   6 -33.290 20.2600   1
  -4  10   6 364.310 32.8500   1
  -4 -10  -6 546.230 50.3800   1
  -4 -10   6 399.630 31.9300   1
   4 -10   6 484.880 37.1800   1
   4 -10   6 374.230 30.1700   1
  -4  10   6 407.940 35.3000   1
  -4 -10  -6 323.590 36.4300   1
   4 -10  -6 453.290 39.0800   1
  13  -9   2 1008.31 33.3400   1
  13  -9  -2 879.080 49.4600   1
 -13  -9  -2 1043.58 60.7900   1
  13  -9   2 1077.22 57.4200   1
  13   9  -2 789.770 51.9000   1
 -13  -9  -2 1082.97 48.7500   1
 -13  -9   2 1006.25 39.9500   1
  13  -9  -2 986.790 37.4800   1
 -13   9   2 956.700 36.8900   1
  -5  17   1 2080.69 74.4500   1
   5 -17   1 2550.33 62.1200   1
  -5 -17  -1 1935.74 89.0800   1
  -5  17  -1 2095.90 78.1700   1
  -5 -17   1 1874.69 88.8200   1
   5 -17  -1 2289.87 59.2400   1
  -5 -17   1 2267.02 68.1400   1
  -5 -17  -1 2155.16 70.5400   1
   5 -17  -1 2008.77 94.6400   1
   5 -17  -1 1889.58 74.2700   1
   5 -17   1 2004.88 71.4500   1
   9 -13   3 1197.03 37.6700   1
  -9 -13  -3 1101.07 52.6000   1
   9 -13  -3 1157.92 51.8200   1
  -9 -13   3 1210.12 72.7600   1
  -9 -13  -3 1124.03 70.8000   1
  -9  13   3 1300.65 48.1200   1
  -9 -13   3 1012.56 42.0000   1
  -9 -13   3 1062.19 40.3600   1
   9 -13  -3 1175.37 38.2300   1
  10 -12  -3 1571.27 47.8200   1
  10 -12   3 1718.41 47.6400   1
 -10 -12   3 1460.57 48.1900   1
 -10 -12  -3 1573.94 67.8800   1
  10 -12  -3 1548.10 61.2400   1
 -10 -12  -3 1385.89 51.8100   1
  10  12  -3 1441.86 76.3200   1
 -10  12   3 1632.01 53.8300   1
 -10 -12   3 1525.26 49.1400   1
   8  10  -5 1453.28 70.1100   1
  -8  10   5 1749.70 56.8400   1
  -8 -10  -5 1808.51 76.1800   1
   8 -10   5 1900.29 50.2700   1
   8 -10   5 1929.15 65.0800   1
  -8 -10   5 1637.11 47.1200   1
   8 -10  -5 1700.21 66.8000   1
  -8 -10  -5 1758.54 75.8600   1
  10 -14   0 43.0400 15.8500   1
 -10  14   0 32.4700 16.5100   1
  10 -14   0 39.5600 19.7500   1
 -10 -14   0 -26.570 23.5200   1
  10 -14   0 17.5800 24.7600   1
 -10 -14   0 14.4200 15.0800   1
  -6   0  -7 94.3000 45.8300   1
   6   0   7 58.7500 21.4600   1
  -6   0   7 101.550 16.5300   1
   6   0  -7 54.2500 20.7900   1
  -6   0   7 74.3300 17.7100   1
  11  -5  -5 1111.88 54.2800   1
 -11   5   5 1035.65 41.0200   1
 -11  -5   5 1003.82 36.2400   1
 -11  -5  -5 1117.44 60.6300   1
 -11   5  -5 1410.03 78.1400   1
 -11   5   5 1095.22 43.0400   1
  11  -5   5 1198.78 42.1900   1
 -11  -5  -5 932.960 60.4400   1
  11  -5  -5 1130.26 59.3700   1
  11   5  -5 1104.61 55.8000   1
   3  15   4 229.890 54.6900   1
  -3  15   4 254.860 29.3600   1
   3 -15   4 363.380 33.4800   1
   3 -15  -4 259.830 28.6900   1
   3 -15  -4 320.780 27.9800   1
   3 -15   4 296.820 25.6300   1
  -3 -15   4 312.400 25.8800   1
  -3 -15  -4 343.210 33.0700   1
  -3 -15  -4 329.290 36.1400   1
  -1  11   6 0.17000 17.6100   1
   1 -11   6 1.77000 15.5000   1
  -1  11   6 22.1000 21.3400   1
   1  11   6 -18.880 27.8000   1
   1  11  -6 -5.0000 41.3900   1
   1 -11  -6 -4.1600 20.3800   1
  -1 -11  -6 25.1800 21.0300   1
  -1 -11   6 8.27000 13.7800   1
   1 -11  -6 19.6700 34.4200   1
   1 -11   6 -4.6500 16.7800   1
   3   6   7 122.470 22.9000   1
   3  -6   7 122.960 22.9600   1
  -3   6   7 107.880 21.8400   1
  -3  -6   7 143.630 19.6000   1
  -3  -6  -7 100.230 41.8100   1
  -3  -6  -7 58.2100 23.4900   1
   3  -6  -7 74.2000 22.1300   1
   3   6   7 76.2600 22.4500   1
  -3   6   7 106.030 22.3000   1
 -15  -5   1 486.160 38.0000   1
  15  -5  -1 576.390 29.9000   1
  15  -5   1 589.500 33.2400   1
  15   5   1 525.510 35.9300   1
  15  -5   1 578.360 40.9700   1
  15   5  -1 435.850 41.2500   1
  15  -5  -1 609.220 37.7000   1
 -15  -5  -1 514.060 40.5600   1
  -4 -16  -3 395.920 40.4300   1
  -4 -16   3 379.320 46.1900   1
  -4 -16  -3 379.760 45.5400   1
  -4 -16   3 451.340 33.8500   1
  -4 -16  -3 462.890 45.8600   1
   4 -16  -3 361.710 32.7300   1
   4 -16   3 467.150 35.2000   1
  -4  16   3 390.110 36.4200   1
   4 -16  -3 418.370 33.2000   1
   7 -11  -5 -5.2900 24.3800   1
   7  11  -5 62.3100 23.6100   1
  -7  11   5 17.2900 19.8500   1
   7 -11   5 19.2300 13.2700   1
   7 -11   5 -1.3000 14.9500   1
  -7 -11   5 30.4100 13.9700   1
  -7 -11  -5 90.5800 32.3500   1
  -7 -11  -5 150.520 45.8500   1
 -11 -13   0 588.420 48.1300   1
  11 -13   0 617.630 36.6700   1
 -11 -13   0 596.480 31.9400   1
  11 -13   0 632.570 25.9100   1
 -11  13   0 645.000 31.9600   1
  -2 -18   0 583.520 33.6900   1
  -2  18   0 528.700 37.6600   1
  -2  18   0 483.220 57.2400   1
  -2 -18   0 499.730 46.8500   1
   2 -18   0 436.560 45.5300   1
 -14  -8  -1 58.4000 17.9700   1
  14  -8  -1 83.4500 16.9600   1
  14  -8   1 78.0600 19.4700   1
  14   8  -1 50.2100 22.7500   1
  14  -8   1 66.5800 21.8100   1
  14  -8  -1 78.1700 22.8800   1
 -14  -8  -1 110.090 28.0900   1
 -14  -8   1 43.9700 15.9800   1
   6  -1  -7 115.980 21.3400   1
   6   1  -7 93.1800 23.0600   1
  -6   1   7 99.9800 17.1700   1
  -6  -1   7 105.580 17.9100   1
  -6   1   7 139.130 19.6500   1
  -6  -1   7 129.890 20.2500   1
  -6  -1  -7 130.530 40.4700   1
  -6   1  -7 115.080 40.4500   1
   6  -1   7 104.750 23.0900   1
  13 -10  -1 1173.00 37.2100   1
  13 -10   1 1088.45 38.8600   1
  13  10  -1 1183.44 69.0700   1
  13 -10   1 1088.15 54.8700   1
  13 -10  -1 1219.91 62.2000   1
 -13 -10  -1 1239.52 73.2000   1
 -13  10   1 1128.23 41.7800   1
 -13 -10  -1 1099.65 44.5500   1
 -13 -10   1 1117.64 43.9400   1
   9   4  -6 1331.20 54.0200   1
   9  -4  -6 1452.90 51.1100   1
   9  -4   6 1354.24 47.0900   1
  -9   4   6 1433.03 47.8300   1
  -9   4  -6 1742.03 85.1800   1
  -9  -4  -6 1530.65 73.7500   1
  -9  -4   6 1463.52 49.4000   1
  -9   4   6 1416.33 48.7000   1
  -9  -4  -6 1102.30 60.9100   1
   0 -18  -1 14.2300 25.4400   1
   0 -18   1 -3.0200 13.1200   1
   0  18   1 56.4000 44.6600   1
   0  18  -1 23.5300 44.7100   1
   0 -18   1 27.4200 20.6900   1
   0  -7  -7 6154.68 176.070   1
   0  -7   7 5258.84 104.210   1
   0   7   7 5018.20 108.130   1
   0   7   7 4895.24 118.510   1
   0  -7  -7 4763.14 113.560   1
  -5  -4  -7 10.7800 20.4300   1
  -5  -4  -7 -5.8200 42.2100   1
  -5  -4   7 2.39000 15.5600   1
  -5   4   7 6.91000 16.9300   1
   5  -4   7 11.2900 16.1100   1
  -5   4   7 14.3200 16.9300   1
   5   4   7 -0.1500 19.8100   1
   5   4  -7 -1.2400 19.8700   1
  15  -3  -2 916.900 43.0300   1
 -15   3  -2 778.630 52.2600   1
  15  -3   2 887.820 37.7600   1
  15  -3  -2 887.790 66.0500   1
  15   3   2 728.330 44.9400   1
 -15  -3   2 812.610 35.4100   1
 -15   3   2 833.530 40.7400   1
 -15  -3  -2 746.520 44.9000   1
  15  -3   2 843.670 50.1400   1
  15   3   2 802.920 57.8300   1
  15   3  -2 834.820 54.6200   1
   1  18  -1 403.990 64.2900   1
   1 -18  -1 178.600 28.7800   1
   1 -18   1 216.320 29.6500   1
  -1  18   1 189.080 40.7200   1
  -1 -18  -1 202.390 30.3000   1
  -1 -18   1 200.980 48.3000   1
  -1  18  -1 260.630 46.1100   1
   1  18   1 178.660 53.4100   1
  -1 -18  -1 248.200 26.3400   1
  -1 -18   1 244.480 23.5600   1
  -1   7   7 375.390 36.1100   1
   1   7   7 347.310 34.7200   1
  -1   7   7 319.290 36.4500   1
   1   7   7 335.900 31.1500   1
   1  -7   7 431.360 35.0600   1
  -1  -7   7 489.940 36.5300   1
  -1  -7  -7 449.230 54.5400   1
  -1  -7  -7 363.160 43.7000   1
   1  -7  -7 364.250 41.4500   1
  12  -7  -4 93.3000 25.9300   1
  12   7  -4 111.320 24.3500   1
 -12  -7  -4 100.420 26.0700   1
 -12   7   4 161.070 19.5200   1
  12  -7   4 131.960 19.7200   1
  12  -7  -4 102.370 19.9200   1
 -12  -7   4 148.590 19.3500   1
 -12   7   4 120.620 18.5000   1
 -12  -7  -4 143.010 30.6100   1
 -12   7  -4 116.080 35.1900   1
  14  -7   2 203.710 23.3100   1
  14   7  -2 216.940 29.3200   1
  14  -7  -2 149.490 26.8700   1
 -14  -7  -2 164.500 30.9500   1
  14  -7  -2 254.540 26.1600   1
  14  -7   2 188.610 27.6100   1
 -14  -7   2 158.230 21.5000   1
 -13   4  -4 152.470 38.5400   1
 -13  -4  -4 137.880 50.9700   1
  13  -4  -4 144.770 26.6900   1
  13  -4  -4 148.040 23.8300   1
  13  -4   4 154.730 23.3100   1
 -13   4   4 173.940 20.0200   1
 -13  -4   4 134.640 18.9200   1
 -13  -4  -4 120.880 30.3700   1
  13   4  -4 139.670 24.8200   1
   9   9  -5 797.730 47.1600   1
  -9   9   5 973.820 40.7200   1
   9  -9   5 837.000 36.5900   1
   9  -9   5 850.190 39.6200   1
  -9  -9   5 943.960 35.1300   1
  -9   9   5 1002.10 42.1400   1
  -9  -9  -5 969.400 63.9200   1
  -9  -9  -5 624.500 45.8200   1
   9  -9  -5 1029.25 48.6100   1
  -9 -15   0 635.630 31.9200   1
  -9 -15   0 659.160 46.5100   1
   9 -15   0 491.140 58.6000   1
   9 -15   0 611.430 24.9700   1
  -9  15   0 569.700 31.4100   1
   9 -15   0 579.710 35.2400   1
  -8 -14   3 -9.8000 13.2700   1
   8 -14   3 10.9000 15.1200   1
  -8 -14  -3 24.3300 25.4600   1
  -8 -14   3 12.3200 24.4100   1
  -8 -14  -3 41.2300 25.7000   1
   8 -14  -3 43.0900 24.3500   1
   8 -14  -3 9.75000 12.3200   1
  -8  14   3 -6.8100 20.2400   1
  -8 -14  -3 6.52000 19.6100   1
  -8 -14   3 11.8000 16.4200   1
  -6  -2  -7 1097.66 73.9000   1
  -6   2  -7 1649.66 79.0500   1
  -6  -2   7 1205.73 42.9800   1
  -6   2   7 1310.20 46.7900   1
   6  -2   7 1293.32 52.8200   1
  -6   2   7 1146.17 46.2700   1
   6   2   7 1028.68 59.2100   1
  -6  -2  -7 1628.77 82.6800   1
   6   2  -7 1216.23 55.8500   1
   6  -2  -7 1301.12 49.1600   1
  -2  11   6 195.700 26.6800   1
  -2 -11  -6 152.820 26.6000   1
   2 -11   6 156.240 19.9300   1
  -2  11   6 163.520 20.3200   1
   2 -11   6 178.870 18.9700   1
  -2 -11   6 170.490 20.2200   1
  -2 -11  -6 140.860 32.4700   1
   2 -11  -6 207.760 39.8000   1
   2 -11  -6 196.690 27.7600   1
   2  11   6 189.020 27.9500   1
  -8 -15  -2 86.1300 19.7000   1
  -8 -15   2 47.9600 19.1900   1
   8 -15  -2 46.6800 12.9400   1
  -8  15   2 78.3600 21.5700   1
   8 -15  -2 68.2200 21.3000   1
  -8 -15  -2 80.2100 25.1700   1
  -8 -15   2 53.8900 21.7700   1
   8 -15   2 97.8900 17.9500   1
 -11  11   3 853.350 37.3200   1
  11 -11  -3 803.480 40.0900   1
 -11 -11  -3 685.030 42.9300   1
  11 -11   3 466.000 50.2600   1
  11  11  -3 695.800 45.6100   1
 -11 -11  -3 665.420 41.1000   1
 -11 -11   3 651.350 35.4800   1
 -11 -11   3 667.660 27.9600   1
  11 -11  -3 799.790 32.8700   1
  11 -11   3 768.960 28.9800   1
 -11  -9  -4 -1.5900 25.8300   1
  11  -9  -4 16.6700 22.2300   1
  11   9  -4 30.5700 23.8900   1
 -11   9   4 35.0600 19.2100   1
  11  -9   4 6.26000 12.6000   1
  11  -9  -4 -4.5200 14.1000   1
  11  -9   4 1.24000 14.8000   1
 -11  -9   4 30.8300 15.3500   1
 -11  -9  -4 47.6500 24.4100   1
   4 -17  -2 464.160 36.8200   1
  -4 -17  -2 425.640 34.0700   1
  -4 -17   2 413.670 46.0200   1
  -4 -17   2 548.590 28.0100   1
   4 -17  -2 447.310 25.6100   1
   4 -17   2 561.340 28.6100   1
   4 -17  -2 406.730 43.0100   1
  -4  17   2 441.850 33.0200   1
  -4 -17  -2 530.680 35.8400   1
  -4 -17  -2 369.430 42.2700   1
   4 -13   5 468.450 29.6300   1
  -4 -13   5 339.140 21.4600   1
  -4 -13  -5 456.590 39.0300   1
   4  13   5 269.460 51.8100   1
  -4 -13  -5 467.540 33.4500   1
   4 -13  -5 367.570 30.6000   1
  -4  13   5 432.230 30.9100   1
   4 -13   5 417.670 23.9200   1
 -12   0   5 34.2700 15.9500   1
 -12   0  -5 22.4800 28.0600   1
 -12   0  -5 8.17000 19.3200   1
  12   0   5 32.6200 22.9100   1
  12   0  -5 7.06000 19.7800   1
  15   6   0 225.540 29.2300   1
  15  -6   0 232.450 26.5900   1
  15  -6   0 276.730 23.5200   1
 -15  -6   0 185.400 18.3600   1
  10 -14   1 1162.69 35.2600   1
 -10  14  -1 1190.55 47.1300   1
 -10 -14  -1 1173.61 48.1100   1
  10 -14  -1 1100.81 34.1300   1
 -10 -14   1 1007.38 40.0500   1
  10 -14   1 1068.97 45.7600   1
  10 -14  -1 1281.51 49.6800   1
 -10 -14  -1 1198.11 57.2900   1
 -10  14   1 1202.33 45.1300   1
 -10 -14   1 1192.37 73.6500   1
  10 -14   1 910.590 68.6600   1
 -12 -11  -2 1051.21 47.5600   1
  12  11  -2 809.960 54.0100   1
  12 -11   2 581.090 64.8800   1
 -12 -11  -2 946.990 61.3500   1
  12 -11  -2 916.020 41.8300   1
 -12  11   2 919.700 35.1000   1
  12 -11   2 946.400 33.1800   1
  12 -11  -2 1073.75 35.0500   1
 -12 -11   2 995.420 36.9400   1
  12 -12   0 282.640 20.0100   1
 -12  12   0 289.050 22.5100   1
 -12 -12   0 253.110 34.2100   1
 -12 -12   0 305.250 22.0100   1
  12 -12   0 233.150 31.0900   1
  -6 -12   5 276.760 38.8400   1
  -6 -12  -5 274.850 27.1600   1
  -6  12   5 345.980 26.7700   1
   6 -12   5 325.730 20.0200   1
  -6 -12  -5 386.670 34.7900   1
   6 -12  -5 406.060 29.4000   1
   6 -12   5 372.040 24.5300   1
  -6 -12   5 339.620 20.3400   1
  -6  -9  -6 173.760 39.4900   1
   6  -9   6 190.720 19.0900   1
  -6  -9  -6 150.690 25.5100   1
   6  -9  -6 248.330 29.4000   1
   6   9  -6 168.240 24.7000   1
  -6   9   6 197.000 22.9400   1
   6  -9   6 223.280 19.0400   1
  -6   9   6 187.500 20.0700   1
  -6  -9   6 191.760 20.8100   1
  12  -1  -5 458.570 34.2800   1
 -12  -1  -5 277.760 30.0500   1
 -12   1  -5 449.460 43.3800   1
 -12  -1  -5 463.940 39.2100   1
 -12   1   5 431.360 23.9100   1
 -12  -1   5 386.510 21.9200   1
  12   1   5 380.630 32.0200   1
  12  -1   5 409.070 29.1300   1
  12   1  -5 394.470 28.1600   1
 -11 -13  -1 29.5000 18.7800   1
 -11 -13   1 45.1400 18.3100   1
  11 -13  -1 43.0600 16.4800   1
  11 -13   1 43.6400 14.1300   1
 -11  13  -1 46.8400 14.9300   1
 -11  13   1 48.2700 18.9500   1
  11 -13   1 36.6000 22.6700   1
  11 -13  -1 54.2300 18.8300   1
 -11 -13  -1 79.9100 27.4800   1
 -11 -13   1 26.4300 26.6800   1
  11 -13   1 28.1400 25.9100   1
   2 -18   1 353.060 39.7400   1
   2  18   1 455.290 74.2200   1
   2 -18  -1 510.820 44.2900   1
  -2  18  -1 608.830 52.3400   1
  -2  18   1 645.490 55.9000   1
  -2  18   1 499.900 42.9700   1
  -2  18  -1 524.990 42.1600   1
  -2 -18   1 479.970 30.1500   1
  -2 -18  -1 544.590 34.1000   1
   2 -18  -1 481.160 39.2300   1
  -2 -18  -1 516.320 37.6800   1
  -2 -18   1 492.170 40.8700   1
  -2  -7   7 182.840 20.8400   1
   2  -7   7 220.420 22.4100   1
  -2  -7  -7 138.460 24.9400   1
  -2  -7  -7 153.200 38.7200   1
  -2   7   7 181.630 21.9300   1
   2   7   7 202.220 42.8800   1
  -2   7   7 146.570 23.0000   1
   2   7   7 165.290 23.7500   1
   2  -7  -7 185.980 26.2800   1
  -7  -8  -6 1138.20 57.2400   1
   7  -8   6 1326.46 42.9700   1
   7  -8   6 1470.19 51.2500   1
  -7   8   6 1426.84 49.3700   1
  -7  -8   6 1312.33 43.4900   1
  -7  -8  -6 1474.92 68.1900   1
  -7   8   6 1641.60 53.3100   1
   7   8  -6 1198.52 53.0600   1
   7  -8  -6 1621.68 55.6100   1
   6 -14  -4 1273.26 51.8700   1
  -6 -14  -4 1241.56 59.8800   1
  -6 -14   4 1000.64 35.7400   1
  -6 -14  -4 1347.13 61.7300   1
  -6 -14   4 1004.08 62.4100   1
   6 -14  -4 1086.96 35.3100   1
   6 -14   4 1340.47 39.9500   1
  -6  14   4 1277.13 49.2100   1
  -3 -18   0 20.6200 23.6100   1
  -3 -18   0 15.9200 16.3000   1
   3 -18   0 21.2300 18.2300   1
  -3  18   0 25.4300 22.9500   1
   3 -18   0 -24.510 23.4300   1
 -14  -5   3 164.300 21.2900   1
 -14  -5  -3 190.890 27.8700   1
  14  -5  -3 239.880 26.0500   1
  14   5  -3 179.610 25.5800   1
  14  -5   3 171.430 23.9900   1
  14  -5   3 174.430 19.2100   1
  14  -5  -3 195.640 22.1600   1
 -14  -5   3 165.090 18.3700   1
 -14  -5  -3 243.580 28.3900   1
 -14   5  -3 172.310 36.1600   1
  -6 -17   0 248.990 21.6200   1
   6 -17   0 257.780 32.1800   1
  -6 -17   0 263.140 32.7400   1
   6 -17   0 231.140 24.3300   1
  -6  17   0 257.330 27.2000   1
   6 -17   0 282.430 21.4300   1
  15  -4   2 393.250 28.1800   1
 -15  -4   2 409.080 26.8700   1
 -15  -4  -2 450.800 31.4400   1
  15  -4  -2 327.730 31.3900   1
  15  -4   2 356.350 30.7900   1
 -15  -4  -2 298.930 39.6800   1
  15  -4  -2 451.970 29.5800   1
  15   4  -2 352.290 31.0100   1
 -15   4  -2 487.960 43.7700   1
  15   4   2 366.390 36.9100   1
  -6  -3   7 368.300 21.5600   1
  -6  -3  -7 493.680 49.5300   1
  -6  -3  -7 294.660 30.1800   1
   6  -3  -7 408.460 27.1100   1
   6   3  -7 400.850 31.2400   1
   6   3   7 304.700 32.1600   1
  -6   3   7 364.760 23.2500   1
   6  -3   7 408.560 25.9900   1
  -6   3   7 375.680 25.9600   1
  -4 -15  -4 19.2000 20.0200   1
   4  15   4 52.1900 46.7100   1
  -4  15   4 7.07000 20.0600   1
  -4 -15  -4 -18.650 21.8900   1
   4 -15  -4 48.2800 20.7400   1
   4 -15  -4 27.3800 13.5800   1
   4 -15   4 -4.6800 17.5500   1
  12  -2  -5 316.950 28.5200   1
 -12  -2  -5 389.050 40.2300   1
 -12   2  -5 320.620 38.8000   1
 -12  -2  -5 251.820 29.8300   1
 -12  -2   5 293.630 19.9400   1
 -12   2   5 245.660 19.9300   1
  12   2   5 210.740 27.7800   1
  12  -2   5 265.870 24.0200   1
  12   2  -5 367.670 30.8200   1
   4   6   7 882.960 56.3800   1
   4  -6  -7 891.180 42.5800   1
  -4  -6  -7 900.090 56.9800   1
  -4  -6   7 765.070 31.7900   1
  -4  -6  -7 1167.78 66.3000   1
  -4   6   7 855.380 39.9500   1
   4  -6   7 1059.75 43.2000   1
  -4   6   7 756.020 29.9900   1
  -9  15   1 1213.24 48.3100   1
   9 -15   1 851.680 56.9600   1
  -9 -15   1 1146.30 69.7300   1
   9 -15   1 1103.64 53.0600   1
   9 -15  -1 1198.31 37.1200   1
   9 -15  -1 1092.83 53.2900   1
  -9 -15  -1 1074.24 42.6900   1
  -9 -15   1 1166.20 42.2400   1
   9 -15   1 1116.18 32.3600   1
  -9  15  -1 937.580 40.8600   1
  -9 -15  -1 1003.55 53.4000   1
  -9   5   6 451.130 24.6400   1
  -9  -5  -6 281.740 32.6500   1
   9  -5  -6 328.220 25.7200   1
   9   5  -6 353.610 30.5300   1
  -9   5   6 342.110 22.7000   1
   9  -5   6 333.570 22.1700   1
   9  -5   6 341.390 24.9900   1
  -9   5  -6 459.270 47.5500   1
  -9  -5  -6 432.610 42.8900   1
  -9  -5   6 314.350 21.3500   1
  10   0  -6 3768.82 87.9000   1
 -10   0  -6 3137.30 106.090   1
 -10   0   6 3951.85 75.1300   1
  -5  -5  -7 6388.79 160.150   1
  -5  -5   7 6905.14 99.5400   1
  -5   5   7 7316.09 98.2300   1
  -5   5   7 7334.05 110.620   1
   5   5  -7 7128.91 125.740   1
   5  -5  -7 7871.52 130.640   1
 -16   0   0 1293.52 58.2300   1
  16   0   0 1223.59 59.5600   1
  16   0   0 1300.03 53.3300   1
  -3 -11  -6 704.080 51.7400   1
  -3  11   6 847.730 41.6100   1
  -3 -11  -6 833.060 57.8000   1
  -3 -11   6 792.620 36.6000   1
   3 -11   6 872.820 37.8800   1
  -3  11   6 773.370 38.7200   1
   3 -11   6 915.010 38.7800   1
   3 -11  -6 925.380 45.7300   1
   0 -14  -5 25.2700 31.2500   1
   0 -14   5 -15.190 14.1500   1
   0  14   5 4.59000 25.2000   1
   0  14  -5 16.3600 41.8300   1
   0 -14  -5 -5.8900 22.8600   1
 -13   8   3 949.310 36.2300   1
 -13  -8  -3 791.640 58.7400   1
  13  -8  -3 815.160 46.2300   1
  13   8  -3 663.080 46.6800   1
  13  -8   3 820.000 31.3500   1
  13  -8  -3 896.070 40.0100   1
 -13  -8   3 814.830 29.9600   1
 -13  -8   3 780.270 34.2100   1
 -13  -8  -3 881.340 46.9400   1
  -5 -10  -6 708.310 44.4800   1
  -5 -10   6 861.710 32.5700   1
  -5  10   6 843.680 36.4200   1
   5 -10   6 1031.47 38.7600   1
   5 -10   6 897.090 34.9600   1
  -5  10   6 976.980 40.7600   1
   5 -10  -6 907.880 46.4500   1
  -5 -10  -6 851.160 55.3200   1
 -11   6   5 299.450 23.1100   1
 -11  -6  -5 265.600 32.3900   1
  11   6  -5 241.990 25.2900   1
  11  -6  -5 294.020 27.6500   1
 -11  -6   5 223.770 18.4200   1
 -11  -6  -5 269.580 37.6800   1
 -11   6  -5 312.290 44.6700   1
 -11   6   5 338.420 22.4000   1
  11  -6   5 281.420 22.2500   1
 -10   8   5 70.0300 18.5700   1
  10   8  -5 27.3700 21.2800   1
  10  -8  -5 59.0200 22.0800   1
 -10  -8  -5 81.2300 28.3300   1
 -10  -8   5 70.9300 14.8600   1
 -10   8   5 43.2000 13.8200   1
  10  -8   5 43.8600 17.2600   1
  10  -8   5 46.9000 16.9500   1
 -10  -8  -5 58.9000 24.9400   1
  15   6   1 836.060 52.6800   1
 -15  -6  -1 988.840 53.5800   1
 -15  -6   1 1015.10 38.9200   1
  15  -6   1 1142.65 39.6500   1
  15  -6  -1 868.530 44.9500   1
  15  -6  -1 993.460 37.4400   1
  15   6  -1 838.980 49.0700   1
  15  -6   1 983.640 56.3100   1
 -10  -1   6 1168.22 39.5500   1
  10  -1  -6 975.610 46.7800   1
  10   1  -6 997.420 46.9700   1
 -10   1   6 1214.28 41.5300   1
 -10  -1  -6 1324.14 72.1300   1
 -10   1  -6 1282.09 62.5100   1
 -10   1   6 1035.65 38.9400   1
  10   1   6 1030.63 52.5000   1
  10  -1   6 962.310 43.3400   1
 -16  -1   0 94.4700 18.4500   1
 -16   1   0 91.1600 18.0300   1
  16   1   0 83.8900 28.8300   1
  16  -1   0 98.0600 23.5700   1
  16   1   0 110.420 26.5300   1
  16  -1   0 102.760 25.4000   1
   8  -7   6 23.2900 15.3000   1
  -8   7   6 17.8900 16.9000   1
   8   7  -6 21.3800 22.3200   1
  -8  -7  -6 17.9200 22.8000   1
  -8  -7   6 47.3400 16.7500   1
  -8   7   6 28.7300 15.5600   1
   8  -7  -6 33.4500 20.1500   1
  -8  -7  -6 29.6000 29.6100   1
   8  -7   6 -6.0300 17.3100   1
 -12 -12  -1 7.46000 16.8300   1
  12 -12  -1 15.6300 21.0100   1
 -12 -12  -1 -4.8700 24.1500   1
 -12 -12   1 14.8100 24.6000   1
  12 -12   1 -6.6000 17.7400   1
 -12  12   1 33.7100 17.5200   1
  12 -12   1 -10.010 15.7600   1
  12 -12  -1 31.3700 15.9400   1
 -12 -12   1 15.9500 17.2700   1
 -13   5   4 236.110 21.1100   1
  13  -5  -4 219.730 24.2100   1
  13  -5   4 218.150 22.3000   1
 -13   5   4 261.740 21.8600   1
  13   5  -4 241.620 29.5600   1
  13  -5  -4 264.120 28.4500   1
 -13  -5  -4 210.850 29.7300   1
 -13   5  -4 288.400 37.3500   1
 -13  -5  -4 242.800 33.3600   1
 -13  -5   4 264.700 22.8100   1
   0 -17  -3 577.970 44.9800   1
   0 -17  -3 535.990 61.0700   1
   0 -17  -3 461.490 37.2400   1
   0  17   3 443.990 54.8000   1
   0  17  -3 616.860 70.8400   1
 -14  -9   0 1030.69 41.5900   1
  14  -9   0 972.780 34.6200   1
  14  -9   0 987.390 51.5600   1
 -14  -9   0 772.400 56.8500   1
  -1 -14  -5 77.2000 38.1000   1
  -1  14   5 74.1700 22.2300   1
   1 -14   5 62.2000 14.4300   1
   1 -14  -5 59.3200 22.6700   1
  -1  14   5 42.0100 15.9000   1
   1 -14   5 86.6800 18.5800   1
   1  14   5 57.0000 27.7100   1
  -1 -14   5 92.6900 17.0400   1
  -1 -14  -5 34.8300 24.9200   1
  -1  14  -5 30.6300 38.0600   1
   1  14  -5 88.4100 47.2700   1
  -5  16   3 31.1600 21.4000   1
   5 -16  -3 17.2500 14.4600   1
   5 -16   3 47.8400 19.4200   1
  -5 -16   3 47.8700 14.7500   1
  -5 -16  -3 32.0100 22.7300   1
  -5 -16   3 -21.070 22.4800   1
  -5 -16  -3 20.9900 24.1600   1
   5 -16  -3 26.9800 24.0100   1
  -8 -16   0 85.6000 29.3900   1
   8 -16   0 76.3300 25.0000   1
  -8  16   0 119.180 22.7500   1
   8 -16   0 88.9500 27.3300   1
   8 -16   0 90.9400 15.8200   1
  -8 -16   0 88.5100 17.7700   1
   7 -15  -3 87.3600 25.3800   1
  -7  15   3 80.6700 25.9100   1
   7 -15   3 82.0600 19.2700   1
  -7 -15  -3 96.8500 24.4200   1
   7 -15  -3 91.5600 14.8100   1
  -7 -15   3 82.5100 23.7400   1
  -7 -15  -3 48.1200 25.3200   1
  -7 -15   3 53.4000 14.5600   1
  -7 -15   3 86.6800 17.2900   1
  -7 -15  -3 46.4600 22.6900   1
   3 -18   1 83.1900 21.0300   1
   3 -18  -1 142.190 27.7400   1
  -3  18   1 126.320 23.4700   1
  -3 -18  -1 121.370 25.9600   1
   3 -18  -1 116.740 23.8500   1
  -3  18  -1 96.2200 24.0400   1
   3 -18  -1 163.990 22.1900   1
   3 -18   1 130.540 21.0300   1
  -3 -18   1 120.950 17.3200   1
  -3 -18  -1 130.520 20.7400   1
  -3 -18   1 124.130 28.2200   1
  -3  -7  -7 578.600 49.1900   1
  -3  -7   7 583.320 28.5300   1
   3  -7   7 552.480 31.4500   1
  -3   7   7 488.820 29.6600   1
   3   7   7 479.360 38.6400   1
   3  -7  -7 524.280 44.6600   1
  -3  -7  -7 482.910 41.8900   1
  -3   7   7 451.210 32.3200   1
  -1 -17  -3 529.130 56.1500   1
   1 -17  -3 545.280 47.6400   1
   1 -17  -3 699.290 45.2100   1
   1  17  -3 757.630 80.5400   1
  -1  17   3 803.430 45.8600   1
  -1 -17  -3 731.340 47.7300   1
   1  17   3 618.320 69.0400   1
  -1  17  -3 783.380 71.1900   1
  -1 -17  -3 655.530 46.6800   1
  -1 -17   3 700.750 30.0000   1
  12 -10  -3 1726.58 45.7800   1
 -12 -10  -3 1621.09 74.0900   1
  12  10  -3 1592.21 74.6700   1
  12 -10  -3 1610.80 55.6300   1
 -12 -10   3 1301.94 42.0100   1
 -12 -10   3 1617.99 52.4300   1
 -12 -10  -3 1768.34 67.9100   1
  12 -10   3 1334.66 36.2500   1
 -12  10   3 1744.16 49.4600   1
  -6 -17  -1 422.130 29.4800   1
   6 -17  -1 363.920 28.7500   1
   6 -17  -1 354.260 22.3100   1
   6 -17   1 331.640 23.5200   1
  -6  17  -1 279.010 26.8200   1
  -6  17   1 346.680 28.4300   1
   6 -17   1 265.140 26.6100   1
   6 -17  -1 357.180 40.3600   1
  -6 -17   1 352.220 42.6900   1
  -6 -17  -1 357.340 36.9100   1
  -6 -17   1 370.290 24.1200   1
 -10  -2   6 128.690 18.7400   1
 -10  -2  -6 117.820 22.0100   1
  10  -2  -6 116.640 25.1100   1
  10   2  -6 115.330 23.8300   1
 -10   2   6 127.320 20.6900   1
  10  -2   6 99.7800 19.4200   1
  10   2   6 107.550 25.5300   1
 -10   2   6 121.370 17.4100   1
 -10  -2  -6 152.640 38.4600   1
 -10   2  -6 192.250 35.0400   1
   9 -12  -4 275.540 28.3200   1
  -9 -12  -4 221.650 27.0900   1
   9  12  -4 231.980 28.9000   1
  -9  12   4 348.830 28.5300   1
   9 -12   4 260.250 20.4900   1
   9 -12  -4 240.440 19.3000   1
  -9 -12   4 275.590 21.5200   1
  -9 -12  -4 196.500 28.5900   1
 -12  -3  -5 359.570 34.3800   1
  12  -3   5 287.690 23.8300   1
 -12   3   5 364.830 23.9200   1
  12   3  -5 340.150 32.6900   1
  12   3   5 296.370 34.3200   1
 -12   3   5 375.680 22.6800   1
  12  -3  -5 354.520 29.7200   1
 -12  -3  -5 323.870 28.1300   1
 -12   3  -5 372.310 40.8500   1
 -12  -3   5 299.640 20.0700   1
  16  -2   0 1894.46 57.6200   1
 -16   2   0 1907.30 66.3200   1
 -16  -2   0 1860.17 59.9200   1
  16   2   0 1804.45 63.3500   1
  16   2   0 1529.03 68.8200   1
  16  -2   0 1868.95 71.9200   1
   7 -16  -2 267.150 19.3400   1
  -7 -16  -2 290.070 30.4600   1
  -7 -16   2 308.280 23.2700   1
   7 -16   2 338.750 23.4300   1
  -7  16   2 312.980 30.0400   1
   7 -16  -2 264.000 28.5500   1
  -7 -16  -2 237.170 28.7500   1
  -7 -16   2 243.920 34.6500   1
  -6  -4  -7 516.650 48.4500   1
  -6   4   7 424.110 22.9900   1
   6  -4   7 514.280 32.4000   1
  -6   4   7 457.750 29.1100   1
   6   4  -7 350.790 30.2400   1
   6  -4  -7 409.460 31.1500   1
  -6  -4   7 405.990 22.8100   1
  -6  -4  -7 284.780 37.1500   1
   2  14   5 693.190 67.7000   1
   2 -14  -5 1221.73 62.5300   1
  -2 -14  -5 907.950 56.7400   1
   2 -14  -5 1002.18 64.7700   1
   2 -14   5 1037.11 39.3900   1
  -2  14   5 1086.10 51.8400   1
  -2 -14   5 995.050 35.4900   1
  -2 -14  -5 1205.48 66.4800   1
   2 -14   5 1264.16 43.2000   1
 -16   0  -1 44.5000 20.0500   1
 -16   0   1 76.4800 17.0800   1
  16   0   1 72.9500 22.0100   1
  16   0  -1 42.1700 25.0800   1
  16   0   1 10.2300 24.5800   1
  16   0  -1 43.9200 23.9200   1
   0  -8  -7 -49.420 41.3300   1
   0   8   7 -12.280 18.9100   1
   0  -8  -7 -21.000 24.2200   1
   0  -8   7 -24.770 17.7400   1
   0   8   7 -12.450 20.5700   1
 -13 -11   0 68.3300 18.0600   1
  13 -11   0 41.4000 19.7800   1
  13 -11   0 64.6900 17.6900   1
 -13 -11   0 95.7800 25.8000   1
   5 -17  -2 602.640 35.5200   1
  -5  17   2 643.580 37.5400   1
  -5 -17   2 633.290 50.6800   1
   5 -17  -2 707.450 30.8500   1
   5 -17   2 809.020 33.7100   1
  -5 -17  -2 691.560 43.1800   1
  -5 -17  -2 511.020 49.3800   1
   5 -17  -2 528.390 52.1100   1
  -5 -17  -2 607.630 45.3700   1
  -5 -17   2 567.810 29.4400   1
  10 -11  -4 1184.57 38.2600   1
  10  11  -4 989.920 57.1100   1
 -10  11   4 1423.37 45.8400   1
  10 -11   4 1479.70 41.4500   1
 -10 -11   4 1433.36 45.3600   1
 -10 -11  -4 1204.29 55.7700   1
  10 -11  -4 1164.01 48.1900   1
 -10 -11  -4 947.800 55.6100   1
  -4  18   0 362.800 32.8100   1
  -4 -18   0 409.440 29.0700   1
   4 -18   0 324.540 23.0400   1
   4 -18   0 341.480 31.9000   1
  -4 -18   0 411.320 35.5600   1
   5 -13   5 2197.85 53.7800   1
   5 -13   5 2149.23 61.7400   1
  -5 -13   5 1862.26 48.6200   1
  -5 -13  -5 1931.68 71.6400   1
  -5 -13  -5 1679.51 66.2100   1
  -5  13   5 2022.34 61.5500   1
   5  13   5 1134.29 122.630   1
   5 -13  -5 2119.02 60.9300   1
  -8 -13  -4 40.0700 23.1000   1
   8 -13   4 84.3500 18.3500   1
  -8  13   4 47.3800 18.6900   1
   8 -13  -4 82.4200 21.7600   1
  -8 -13  -4 36.3000 22.4100   1
  -8 -13   4 39.0200 24.7600   1
  -8 -13   4 45.7300 17.5800   1
   8 -13  -4 68.2200 15.3500   1
  -7   0  -7 -71.100 40.3300   1
  -7   0   7 2.36000 13.8100   1
   7   0  -7 -5.0400 20.8400   1
  -7   0   7 8.67000 15.5400   1
  16  -1  -1 62.5300 24.0900   1
 -16   1  -1 93.5800 21.0200   1
 -16  -1  -1 88.3600 21.0400   1
 -16  -1   1 95.6400 18.1200   1
  16   1  -1 50.3700 26.9700   1
  16   1   1 96.6100 28.7300   1
  16  -1  -1 77.9000 27.7000   1
  16  -1   1 112.690 25.9700   1
  16   1   1 58.7000 25.6500   1
  16  -1   1 83.9100 22.6900   1
  16   1  -1 61.6800 21.2100   1
 -16   1   1 65.5500 16.5100   1
  -2  17  -3 709.120 61.8100   1
  -2  17   3 738.140 41.0600   1
   2 -17  -3 739.810 77.1500   1
  -2 -17  -3 696.180 60.2500   1
  -2 -17  -3 656.830 42.3200   1
   2 -17  -3 710.730 48.2900   1
   2 -17  -3 604.010 28.7700   1
   2  17   3 569.850 67.5500   1
  -2 -17  -3 773.640 50.0800   1
  -2 -17   3 714.490 32.9600   1
 -15  -5  -2 1059.99 79.7200   1
 -15  -5  -2 857.970 43.2100   1
 -15  -5   2 632.140 31.3100   1
  15  -5  -2 808.430 33.9100   1
  15  -5   2 838.990 36.5400   1
  15   5  -2 742.620 46.1400   1
  15  -5   2 740.140 44.8600   1
  15  -5  -2 749.990 40.0100   1
   1  -8  -7 1899.55 66.7200   1
  -1   8   7 1752.42 62.3800   1
   1   8   7 1881.46 60.7100   1
  -1   8   7 1648.28 53.1400   1
   1  -8   7 1864.28 53.3200   1
   1   8   7 1549.66 62.1400   1
  -1  -8  -7 2110.88 110.580   1
  -1  -8   7 1831.24 51.6100   1
  -1  -8  -7 1855.53 72.1900   1
 -14  -9  -1 2330.22 65.2600   1
 -14  -9   1 1954.25 54.8600   1
  14  -9  -1 2575.07 58.6400   1
  14   9  -1 2101.44 81.4900   1
  14  -9   1 2223.94 70.7000   1
  14  -9  -1 2223.57 74.4400   1
 -14  -9  -1 2038.21 90.7500   1
  14  -9   1 2645.05 58.1400   1
  12  -8   4 168.940 18.0800   1
  12  -8  -4 141.460 18.7800   1
 -12  -8   4 134.590 17.4700   1
 -12  -8  -4 107.330 25.1400   1
 -12  -8  -4 94.2500 29.3900   1
  12  -8  -4 155.020 24.8900   1
  12   8  -4 119.010 39.6700   1
 -12   8   4 148.540 20.6100   1
   8 -16   1 152.600 36.5700   1
   8 -16  -1 84.4300 27.5300   1
  -8 -16   1 138.060 28.7300   1
  -8 -16  -1 165.320 27.9400   1
   8 -16  -1 155.460 25.1400   1
  -8  16   1 191.870 22.9800   1
  -8  16  -1 138.280 18.3500   1
   8 -16   1 163.520 18.4200   1
  -8 -16   1 177.320 21.1100   1
  -8 -16  -1 186.380 22.3800   1
   8 -16  -1 187.410 18.0000   1
 -14  -8   2 23.8500 17.1600   1
 -14  -8  -2 38.5100 18.8100   1
  14  -8  -2 50.4100 16.9500   1
  14  -8   2 -6.8900 15.8900   1
 -14   8   2 77.7600 18.8900   1
  14   8  -2 -17.450 21.8300   1
  14  -8  -2 24.0300 23.4700   1
 -14  -8  -2 -14.860 27.3600   1
  14  -8   2 37.1000 26.9400   1
  -7  -1   7 75.8000 16.1100   1
  -7   1   7 99.9800 17.5900   1
   7  -1   7 67.9000 21.1000   1
  -7  -1   7 79.5900 15.7000   1
  -7   1   7 70.5100 17.4600   1
   7   1  -7 43.7400 21.4500   1
  -7   1  -7 108.350 53.9600   1
   7  -1  -7 54.0000 21.6500   1
  13 -10   2 1608.90 44.8800   1
 -13  10   2 1839.34 49.5100   1
 -13 -10  -2 1770.38 61.1900   1
  13  10  -2 1531.23 64.8400   1
 -13 -10  -2 1500.86 75.3100   1
  13 -10  -2 1529.26 69.3800   1
 -13 -10   2 1733.42 54.1200   1
  13 -10  -2 1793.38 49.3000   1
   0 -18   2 543.460 30.4500   1
   0 -18  -2 555.570 41.5000   1
   0 -18   2 637.400 44.1100   1
   0  18  -2 796.700 75.1100   1
   0 -18  -2 575.030 55.1800   1
   0  18   2 601.730 70.0600   1
  15  -7   0 104.710 18.7700   1
  15  -7   0 67.9900 23.5800   1
  15   7   0 119.430 26.7200   1
 -15  -7   0 107.250 18.4600   1
  14  -6  -3 775.970 42.8000   1
 -14  -6   3 812.100 33.6800   1
  14  -6  -3 855.430 37.8200   1
 -14  -6  -3 866.740 53.6700   1
 -14  -6   3 833.780 37.8700   1
 -14  -6  -3 790.900 58.2900   1
  14   6  -3 744.590 46.6000   1
  14  -6   3 765.510 31.3100   1
   0  16   4 2607.83 85.5400   1
   0 -16   4 2542.85 57.3600   1
   0  16  -4 3292.80 159.060   1
   0 -16  -4 3126.71 126.620   1
   0 -16  -4 2501.63 78.6900   1
 -10  -3   6 252.680 20.9900   1
 -10   3   6 228.290 21.1700   1
  10  -3   6 203.620 20.7800   1
 -10   3   6 257.490 22.5600   1
  10  -3  -6 315.220 32.2200   1
 -10  -3  -6 186.050 24.4300   1
 -10   3  -6 221.610 45.5700   1
  10   3  -6 265.090 25.7700   1
 -10  -3  -6 374.520 39.6500   1
  16   3   0 320.340 37.6300   1
  16  -3   0 333.290 28.7100   1
  16  -3   0 307.030 27.5000   1
 -16  -3   0 296.230 24.7200   1
 -16   3   0 277.730 26.5500   1
  16   3   0 359.450 41.3200   1
  -1  18   2 550.060 55.8300   1
  -1  18   2 483.690 38.0900   1
  -1 -18   2 584.520 31.6000   1
  -1 -18  -2 575.740 51.7000   1
   1 -18  -2 639.540 53.8600   1
  -1 -18   2 569.030 44.1700   1
  -1 -18  -2 668.480 40.9000   1
   1 -18  -2 631.280 45.6900   1
   1  18  -2 694.090 77.6100   1
   1  18   2 593.910 103.550   1
  -1 -18  -2 723.540 48.3000   1
  -1  18  -2 774.990 70.8400   1
  -4 -11  -6 208.190 34.3800   1
  -4 -11   6 190.270 18.4100   1
   4 -11   6 224.730 18.4700   1
  -4  11   6 249.920 21.6300   1
  -4  11   6 205.990 25.3800   1
   4 -11   6 283.520 23.1200   1
   4 -11  -6 248.170 28.7500   1
  -4 -11  -6 150.550 47.3700   1
  16  -2   1 166.270 27.6800   1
  16   2  -1 161.480 23.9800   1
  16  -2  -1 160.090 24.6800   1
  16   2  -1 114.290 26.4400   1
  16   2   1 209.250 28.2700   1
 -16  -2  -1 155.280 22.7300   1
 -16   2  -1 152.740 23.1600   1
  16  -2  -1 187.700 27.1400   1
 -16   2   1 131.310 16.6700   1
 -16  -2   1 153.920 18.6600   1
  16  -2   1 135.600 25.4200   1
  16   2   1 143.820 25.3700   1
   1 -16  -4 60.7500 26.2800   1
  -1 -16  -4 62.7000 27.2600   1
  -1 -16   4 70.1700 14.0500   1
   1 -16   4 47.7300 14.7300   1
  -1  16   4 120.370 30.1200   1
   1  16   4 17.4900 31.5100   1
  -1  16  -4 220.250 41.6200   1
   1  16  -4 29.0600 51.7300   1
   1 -16  -4 112.680 26.5400   1
  -1 -16  -4 55.1200 25.1100   1
  -8 -11  -5 1578.04 78.3700   1
  -8 -11   5 1384.88 42.6100   1
   8 -11   5 1654.26 45.6400   1
  -8  11   5 1651.62 51.6000   1
   8  11  -5 1327.54 65.3700   1
   8 -11   5 1443.66 51.3100   1
  -8 -11  -5 1309.11 62.0700   1
   8 -11  -5 1725.78 63.6100   1
 -15   0  -3 10.5900 25.4500   1
 -15   0  -3 4.27000 24.7900   1
  15   0  -3 -6.2400 18.7900   1
  15   0   3 -3.8000 25.6200   1
  15   0  -3 -12.100 22.4600   1
 -15   0   3 -4.6200 16.0500   1
  -9  -6  -6 790.190 50.6100   1
   9  -6  -6 627.580 36.1100   1
  -9  -6  -6 664.470 47.0200   1
   9   6  -6 636.290 41.0100   1
  -9   6   6 605.470 30.7300   1
   9  -6   6 616.560 29.3100   1
   9  -6   6 624.810 35.4000   1
  -9   6   6 750.050 34.3600   1
  -9  -6   6 647.470 28.7400   1
  -7  -2   7 267.970 21.5400   1
  -7   2   7 253.480 18.7500   1
   7  -2   7 260.120 25.8900   1
  -7   2   7 239.210 21.4600   1
   7   2  -7 236.950 25.0400   1
   7  -2  -7 241.440 25.9900   1
  -7   2  -7 264.950 42.8800   1
  -7  -2  -7 277.670 49.6900   1
  -5 -15   4 478.560 42.1100   1
  -5 -15   4 685.550 29.9700   1
   5 -15  -4 618.000 31.9400   1
   5 -15   4 737.720 31.9400   1
  -5  15   4 701.690 36.6100   1
   5 -15  -4 679.500 38.2400   1
  -5 -15  -4 726.670 46.5900   1
  -5 -15  -4 576.900 42.9500   1
  -5  -6  -7 285.120 34.1700   1
   5  -6  -7 332.200 30.5800   1
   5   6   7 304.300 35.6400   1
  -5   6   7 398.620 28.0400   1
   5  -6   7 421.840 27.0900   1
  -5   6   7 332.520 23.4000   1
  -5  -6   7 278.350 21.1500   1
  -5  -6  -7 404.590 50.5900   1
  12  -4  -5 1847.47 66.3000   1
 -12  -4   5 1574.79 41.9200   1
 -12  -4  -5 1843.85 79.6200   1
 -12   4  -5 1718.51 78.5700   1
 -12   4   5 1832.20 52.7800   1
 -12  -4  -5 1437.52 76.9000   1
  12   4  -5 1594.83 58.5300   1
 -12   4   5 1851.98 48.5300   1
  12  -4   5 1779.20 55.7300   1
   2  -8   7 204.930 19.1800   1
  -2  -8   7 188.530 20.1200   1
  -2   8   7 144.490 23.1200   1
   2   8   7 175.580 23.7600   1
   2  -8  -7 162.120 25.4800   1
  -2  -8  -7 120.350 22.2700   1
  -2  -8  -7 141.790 41.7400   1
   2   8   7 202.970 24.4300   1
  -2   8   7 146.090 21.2900   1
   0  12   6 902.270 51.7400   1
   0  12   6 856.180 45.9700   1
   0 -12  -6 851.090 56.1700   1
   0 -12   6 842.040 42.9200   1
   0  12  -6 622.910 70.7600   1
   0 -12  -6 954.010 66.5400   1
   0 -12   6 961.870 37.9800   1
   9  10  -5 3384.80 107.530   1
  -9 -10   5 3308.75 64.3500   1
   9 -10   5 3687.80 80.4100   1
   9 -10   5 3350.64 64.4000   1
   9 -10  -5 3609.16 80.2500   1
  -9  10   5 3379.26 77.8000   1
  -9 -10  -5 3989.58 106.860   1
 -13 -11   1 231.980 38.8800   1
  13 -11  -1 246.400 28.0400   1
 -13 -11  -1 295.470 26.9100   1
 -13 -11   1 305.210 23.9000   1
  13 -11   1 267.410 20.5200   1
  13 -11   1 311.060 31.8300   1
  13 -11  -1 302.750 23.5500   1
 -13  11   1 251.150 21.1700   1
 -13 -11  -1 213.560 30.3300   1
  15  -1  -3 147.040 23.9700   1
 -15  -1   3 137.300 18.4700   1
 -15   1   3 146.840 18.7000   1
 -15  -1  -3 109.880 24.5500   1
 -15   1  -3 150.360 27.4900   1
 -15  -1  -3 115.270 24.9900   1
  15   1  -3 159.110 24.1600   1
  15  -1   3 138.380 28.6700   1
  15  -1   3 154.350 25.7400   1
  15   1   3 167.200 29.6200   1
  15  -1  -3 145.990 22.0100   1
  -4  18  -1 879.630 50.3800   1
  -4 -18   1 974.040 62.5300   1
  -4  18   1 985.910 47.8400   1
   4 -18   1 787.990 52.9700   1
   4 -18  -1 912.750 65.1900   1
   4 -18   1 1257.93 42.0200   1
  -4 -18  -1 1010.08 46.6500   1
  -4 -18   1 1013.67 40.5200   1
   4 -18  -1 1045.59 36.4400   1
   4 -18  -1 1018.51 54.3900   1
  -4 -18  -1 997.610 55.1700   1
  -4  -7  -7 336.210 44.5200   1
  -4  -7  -7 237.310 28.9400   1
   4  -7  -7 307.770 32.9400   1
   4   7   7 229.860 45.9200   1
  -4   7   7 276.360 27.3000   1
   4  -7   7 361.690 26.6800   1
  -4   7   7 275.490 20.8400   1
  -4  -7   7 263.160 20.8900   1
   3  14   5 49.8200 34.5300   1
  -3 -14  -5 129.860 28.7700   1
   3 -14  -5 102.130 22.1100   1
  -3  14   5 102.820 23.4300   1
   3 -14   5 120.150 19.5200   1
   3 -14   5 125.850 15.8200   1
  -3 -14   5 114.650 15.0600   1
  -3 -14  -5 137.450 30.1700   1
  14   0   4 3498.52 83.8100   1
 -14   0   4 3665.92 70.4300   1
 -14   0  -4 3556.58 113.100   1
 -14   0  -4 2893.92 105.020   1
  14   0  -4 3394.71 84.7800   1
 -10 -14  -2 460.790 33.4600   1
 -10 -14   2 486.350 28.6200   1
  10 -14   2 381.060 45.1300   1
  10 -14  -2 437.230 30.7500   1
 -10 -14   2 389.280 43.4000   1
 -10  14   2 426.410 26.6200   1
  10 -14  -2 436.780 23.0300   1
  10 -14   2 468.990 23.0700   1
 -10 -14  -2 422.220 33.3700   1
  13  -6  -4 700.750 35.3100   1
  13  -6   4 744.480 36.4000   1
 -13   6   4 722.810 30.8500   1
  13   6  -4 540.790 39.0700   1
  13  -6  -4 675.220 44.0300   1
 -13  -6  -4 704.360 48.8900   1
 -13   6   4 689.510 32.8900   1
 -13  -6   4 676.330 30.7600   1
 -13  -6  -4 648.600 46.1100   1
 -13   6  -4 757.670 51.4600   1
  -1 -12  -6 289.290 31.4200   1
   1 -12   6 287.520 22.9200   1
   1 -12  -6 284.400 41.8000   1
  -1 -12  -6 291.870 38.4700   1
   1  12   6 280.410 30.7000   1
   1  12  -6 221.430 47.5400   1
   1 -12  -6 241.610 25.5700   1
  -1  12   6 246.680 29.2600   1
  -1  12   6 235.560 25.2300   1
  -1 -12   6 249.080 20.1200   1
   1 -12   6 279.790 21.6400   1
  11  10  -4 939.590 56.7000   1
  11 -10  -4 1081.54 47.6600   1
 -11 -10  -4 969.040 73.2800   1
  11 -10   4 1190.43 39.4100   1
  11 -10  -4 1061.49 36.6900   1
 -11  10   4 985.400 38.4400   1
 -11 -10   4 999.780 36.2800   1
 -11 -10  -4 1042.74 50.2100   1
  -7 -12  -5 1325.55 62.7000   1
  -7 -12  -5 1714.02 72.7500   1
  -7  12   5 1867.64 54.6500   1
   7 -12   5 1561.78 40.6500   1
   7 -12   5 1670.10 52.2100   1
   7 -12  -5 1938.35 61.9300   1
   7  12  -5 1654.42 74.2500   1
  -7 -12   5 1315.61 39.3500   1
  11 -13   2 127.250 24.8800   1
 -11 -13  -2 158.160 28.3700   1
 -11 -13  -2 140.470 23.3700   1
 -11 -13   2 179.100 21.4900   1
  11 -13  -2 212.050 19.3700   1
  11 -13   2 155.640 17.4500   1
 -11  13   2 170.790 22.7200   1
  11 -13  -2 168.760 25.4700   1
 -11 -13   2 116.230 26.7700   1
  -7  -9  -6 690.590 49.5200   1
   7  -9   6 817.200 37.7800   1
   7   9  -6 558.130 44.8000   1
  -7   9   6 795.500 36.8800   1
  -7  -9  -6 701.450 47.2900   1
  -7  -9   6 581.720 27.7200   1
   7  -9  -6 915.900 45.5500   1
   7  -9   6 778.120 31.5600   1
  -7   9   6 895.010 39.1600   1
   2  18   2 860.840 88.8900   1
  -2 -18   2 868.890 35.6400   1
  -2  18   2 740.810 46.7700   1
  -2  18  -2 873.330 59.4300   1
   2 -18  -2 970.660 57.6300   1
  -2 -18   2 666.540 43.9500   1
   2 -18  -2 685.370 52.9700   1
  -2 -18  -2 905.600 49.9500   1
  -2 -18  -2 775.310 54.4200   1
  -2 -18  -2 861.180 49.1100   1
  14   1   4 86.2600 27.4000   1
 -14   1  -4 14.0300 33.6700   1
  14  -1  -4 6.16000 20.6700   1
 -14  -1  -4 49.6800 23.8400   1
 -14   1  -4 -4.6900 27.3400   1
  14   1  -4 34.1500 23.6700   1
 -14  -1  -4 24.1200 25.2900   1
 -14  -1   4 35.4400 15.9100   1
 -14   1   4 14.1900 15.8400   1
  14  -1   4 13.9400 25.3500   1
   3 -17  -3 748.900 43.4700   1
  -3  17   3 603.960 39.5800   1
  -3 -17  -3 803.730 49.9900   1
  -3 -17  -3 670.530 43.1400   1
   3  17   3 436.210 64.2600   1
   3 -17  -3 698.180 31.1100   1
  -3 -17  -3 475.830 52.5000   1
  -3 -17   3 538.040 28.5800   1
   3 -17   3 638.870 28.9900   1
 -11   7   5 319.350 21.6900   1
  11   7  -5 372.900 31.9800   1
  11  -7  -5 351.960 25.2900   1
  11  -7   5 316.930 20.7100   1
 -11  -7  -5 285.400 33.7100   1
 -11  -7   5 290.930 20.5900   1
 -11  -7  -5 362.490 37.5100   1
 -11   7   5 293.320 21.8100   1
 -11   7  -5 322.130 55.3500   1
  -7  14   4 801.540 39.0600   1
   7 -14  -4 842.360 46.2300   1
  -7 -14  -4 601.980 41.0600   1
  -7 -14  -4 905.680 47.5900   1
  -7 -14   4 807.640 30.1700   1
   7 -14  -4 815.860 33.4800   1
   7 -14   4 1001.40 35.6100   1
  -7 -14   4 653.900 54.4900   1
  15  -7  -1 8.27000 20.4400   1
  15  -7   1 -11.500 22.0000   1
  15   7  -1 -3.6100 24.5600   1
 -15  -7  -1 5.95000 21.2800   1
  15  -7   1 44.7600 16.8500   1
  15  -7  -1 5.48000 16.6000   1
   2  16   4 1639.87 127.180   1
   2 -16  -4 2664.15 88.5800   1
  -2 -16  -4 2204.56 86.7300   1
  -2 -16  -4 2578.47 89.6000   1
   2 -16  -4 2112.03 55.6600   1
  -2 -16   4 2313.22 54.6000   1
   2 -16   4 2438.95 58.5000   1
  -2  16   4 2561.66 83.0800   1
  -2  16  -4 2345.38 114.370   1
 -10 -13   3 27.4200 13.9600   1
 -10  13   3 17.5200 17.8400   1
  10 -13  -3 15.3800 14.1400   1
  10 -13   3 0.51000 14.1700   1
 -10 -13  -3 40.3500 22.8800   1
 -10 -13   3 9.73000 18.8100   1
 -10 -13  -3 19.3500 26.2400   1
  10 -13  -3 4.46000 20.1600   1
 -10 -13   3 1.29000 26.9600   1
   6  -5   7 1007.45 37.6500   1
  -6   5   7 1098.74 42.6200   1
  -6  -5  -7 762.790 54.4600   1
   6   5  -7 1022.66 45.5000   1
   6  -5  -7 1133.63 47.6500   1
  -6   5   7 1152.57 38.2400   1
  -6  -5   7 1047.72 35.6500   1
  -6  -5  -7 1331.99 66.5300   1
  15   2   3 148.700 27.9800   1
  15   2  -3 265.130 27.0500   1
  15  -2  -3 266.650 25.2400   1
 -15  -2  -3 251.130 28.3800   1
 -15   2  -3 276.670 32.5600   1
 -15   2   3 251.760 23.4000   1
 -15  -2   3 275.780 22.7600   1
  15  -2  -3 328.010 29.4100   1
  15  -2   3 249.230 26.0500   1
  15  -2   3 160.370 27.2700   1
 -15  -2  -3 288.080 38.4700   1
  16   3  -1 874.760 51.8300   1
  16  -3   1 976.090 53.2400   1
 -16  -3  -1 1042.21 55.2000   1
 -16   3  -1 978.520 57.4100   1
  16  -3  -1 1030.96 52.0800   1
 -16  -3   1 1049.79 49.4600   1
  16   3   1 885.200 51.9400   1
  16  -3  -1 1220.73 55.4400   1
  16  -3   1 1041.73 46.2700   1
  16   3   1 918.570 50.9600   1
  -7  17   0 103.890 20.2700   1
   7 -17   0 81.9600 22.4400   1
   7 -17   0 134.940 19.5500   1
  -7 -17   0 72.0200 27.0300   1
   7 -17   0 56.7200 24.0300   1
  -7 -17   0 128.050 19.4100   1
  -6  10   6 176.610 23.3600   1
   6 -10  -6 127.270 27.3900   1
   6 -10   6 117.810 14.1100   1
  -6 -10  -6 164.950 36.1000   1
  -6 -10   6 100.020 17.1700   1
  -6 -10  -6 163.400 27.9100   1
  -6  10   6 112.800 17.9500   1
  -7   3   7 243.290 20.5400   1
  -7   3  -7 261.210 46.7500   1
  -7  -3  -7 222.410 38.7000   1
  -7  -3   7 233.090 21.8800   1
   7  -3   7 240.660 25.2100   1
  -7   3   7 213.040 19.9700   1
   7  -3  -7 221.060 25.4400   1
  -7  -3  -7 119.840 24.8200   1
   7   3  -7 197.450 24.5700   1
 -10  -4  -6 121.070 40.8500   1
 -10  -4   6 37.0600 14.3500   1
 -10   4   6 56.4300 17.1200   1
  10  -4   6 78.5300 17.6500   1
 -10   4   6 73.6600 16.9200   1
  10   4  -6 70.3900 19.7700   1
  10  -4  -6 48.8400 20.7300   1
 -10  -4  -6 70.8300 21.0300   1
 -10   4  -6 77.4700 35.7700   1
  -9 -14   3 574.920 29.7100   1
  -9 -14   3 481.630 26.1400   1
  -9  14   3 682.540 39.2000   1
  -9 -14  -3 613.000 38.4600   1
   9 -14   3 573.850 27.4100   1
  -9 -14  -3 290.790 49.6500   1
  -9 -14   3 529.510 52.1400   1
   9 -14  -3 526.890 40.2000   1
  -9 -14  -3 520.050 42.8900   1
   9 -14  -3 635.360 31.1000   1
 -16  -4   0 35.1800 17.3400   1
  16   4   0 63.6800 22.6300   1
  16  -4   0 97.9900 24.9500   1
  16  -4   0 106.630 19.6400   1
   8   8  -6 118.660 23.6300   1
   8  -8   6 108.010 15.5200   1
  -8   8   6 171.560 21.0500   1
  -8  -8  -6 170.260 31.5400   1
   8  -8  -6 158.770 24.2200   1
  -8  -8  -6 84.8100 24.6100   1
   8  -8   6 137.710 19.4400   1
  -8   8   6 152.690 18.0300   1
  -8  -8   6 110.350 17.7000   1
  -9 -15  -2 1413.84 63.9000   1
  -9 -15   2 1452.08 54.9200   1
   9 -15  -2 1212.94 45.1800   1
   9 -15   2 1378.19 46.3000   1
  -9 -15   2 1358.61 76.3600   1
  -9 -15  -2 1288.68 74.0100   1
  -9  15   2 1503.47 60.4700   1
   9 -15  -2 1425.54 72.1900   1
  -6  16   3 53.9400 22.5000   1
   6 -16  -3 81.7200 23.3400   1
  -6 -16  -3 39.6400 19.8300   1
  -6 -16   3 57.0300 23.6500   1
  -6 -16  -3 9.01000 25.9300   1
   6 -16   3 38.8300 15.8000   1
  -6 -16  -3 37.0900 20.0600   1
  -6 -16   3 31.9000 15.8700   1
  -6 -16   3 37.4700 13.2000   1
   6 -16  -3 54.0000 16.0100   1
 -14   2  -4 1024.87 63.1800   1
 -14  -2  -4 1108.69 65.0300   1
  14  -2  -4 1478.31 70.7400   1
  14   2  -4 1223.37 54.7400   1
  14  -2   4 1096.96 48.3500   1
 -14  -2   4 1127.19 45.0300   1
  14   2   4 1160.88 58.6700   1
 -14   2   4 1265.79 51.1500   1
  14  -2  -4 1260.81 57.9800   1
 -14  -2  -4 1284.03 65.4800   1
 -14   2  -4 1338.61 70.0500   1
  -2 -12   6 348.060 24.7000   1
   2 -12   6 314.660 24.5200   1
  -2  12   6 251.670 25.3900   1
   2 -12  -6 275.370 41.8600   1
  -2 -12  -6 278.000 35.9300   1
  -2  12   6 330.040 30.7600   1
   2  12  -6 185.730 57.2900   1
   2 -12  -6 255.980 27.2300   1
  -2 -12  -6 268.000 27.3200   1
   2  12   6 255.610 30.0100   1
   2 -12   6 247.970 20.7100   1
 -11 -12   3 189.240 17.5800   1
 -11 -12  -3 166.440 24.3000   1
 -11 -12   3 175.940 22.2000   1
  11 -12  -3 219.300 19.1400   1
  11 -12   3 216.180 18.9400   1
  11  12  -3 216.030 32.4900   1
  11 -12  -3 203.900 24.0100   1
 -11 -12  -3 175.960 27.4400   1
  11 -12   3 124.320 27.3600   1
 -11  12   3 226.060 24.2900   1
  11 -14   0 301.690 25.8600   1
 -11  14   0 303.950 24.2500   1
  11 -14   0 315.170 21.7300   1
 -11 -14   0 286.630 23.7200   1
 -11 -14   0 281.840 31.4000   1
 -13   9   3 1208.80 46.2100   1
  13  -9   3 1174.09 42.6400   1
  13  -9  -3 1245.66 48.0200   1
 -13  -9   3 1212.60 46.1300   1
 -13  -9   3 972.980 44.3700   1
 -13  -9  -3 1155.63 54.6400   1
  13   9  -3 1102.66 60.2600   1
  13  -9  -3 1103.91 59.3800   1
 -13  -9  -3 1148.35 65.8800   1
  10  -9   5 157.510 20.4200   1
 -10  -9  -5 184.530 33.7900   1
  10   9  -5 186.450 27.4200   1
 -10   9   5 234.020 23.2900   1
 -10  -9   5 152.310 18.1600   1
  10  -9   5 182.190 23.3200   1
 -10  -9  -5 171.560 26.0300   1
  10  -9  -5 244.210 26.9900   1
  -3  -8  -7 162.250 40.0300   1
  -3  -8  -7 102.050 21.9100   1
   3  -8  -7 121.290 27.8800   1
   3   8   7 76.3600 22.8900   1
  -3   8   7 128.670 25.5600   1
  -3   8   7 134.800 21.7300   1
   3  -8   7 136.820 18.3400   1
  -3  -8   7 113.900 16.5800   1
 -15  -6  -2 112.630 21.1000   1
  15  -6   2 109.670 20.4300   1
  15   6  -2 90.0100 29.2500   1
  15  -6   2 94.7800 23.6900   1
  15  -6  -2 140.710 25.4900   1
 -15  -6  -2 90.1000 30.2600   1
 -15  -6   2 95.6900 18.2900   1
  15  -6  -2 86.0000 20.4700   1
  -5 -18   0 441.290 31.5700   1
  -5 -18   0 376.490 41.3800   1
   5 -18   0 272.410 37.1500   1
   5 -18   0 330.180 28.7100   1
   5 -18   0 442.990 26.8100   1
  -5  18   0 372.320 33.5800   1
 -10 -15   0 668.240 37.7800   1
 -10  15   0 652.860 36.4700   1
  10 -15   0 603.580 37.2200   1
 -10 -15   0 713.330 49.4000   1
  10 -15   0 462.710 54.7700   1
  10 -15   0 746.120 31.6300   1
  12 -12  -2 94.9600 15.2000   1
  12 -12   2 115.520 16.4900   1
  12 -12  -2 64.0100 20.9700   1
 -12 -12  -2 85.9900 25.5300   1
 -12 -12   2 92.6300 29.3400   1
 -12  12   2 109.970 20.8500   1
 -12 -12   2 124.390 18.2400   1
 -12 -12  -2 115.770 20.9600   1
  12 -12   2 43.6500 23.7000   1
 -15   3   3 199.590 19.6500   1
  15  -3   3 180.140 25.3800   1
  15   3  -3 196.970 26.4100   1
 -15  -3   3 202.780 21.1700   1
 -15   3  -3 243.490 31.8500   1
 -15  -3  -3 257.230 31.8200   1
  15  -3   3 213.320 22.4200   1
  15  -3  -3 211.230 24.0600   1
 -15  -3  -3 185.500 31.8600   1
  15  -3  -3 200.080 26.3300   1
  15   3   3 125.340 25.8700   1
   3 -18  -2 845.060 49.1200   1
  -3 -18  -2 1043.70 63.4400   1
  -3 -18   2 944.260 65.3900   1
   3 -18  -2 773.360 67.1300   1
  -3 -18  -2 779.130 58.6200   1
   3  18   2 799.290 101.000   1
  -3  18   2 938.160 54.5700   1
   3 -18   2 1058.20 43.3300   1
   3 -18  -2 944.180 42.1700   1
  -3 -18   2 986.090 42.5800   1
  -3 -18  -2 975.410 53.7200   1
 -12  -5  -5 121.850 30.3600   1
 -12  -5   5 119.240 17.9300   1
 -12   5   5 84.3400 16.9800   1
  12  -5   5 71.8500 19.3300   1
 -12   5   5 100.320 18.5600   1
  12   5  -5 80.7000 24.6600   1
  12  -5  -5 89.5600 23.4800   1
 -12  -5  -5 80.1300 22.6600   1
 -12   5  -5 138.830 48.3900   1
 -14 -10   0 677.890 35.8500   1
  14 -10   0 759.710 32.5200   1
 -14 -10   0 657.600 55.6400   1
  14 -10   0 596.510 40.2800   1
  -6 -17   2 136.900 17.6300   1
  -6 -17  -2 188.190 27.1300   1
  -6 -17  -2 182.420 25.0600   1
   6 -17  -2 173.210 22.9300   1
  -6  17   2 183.600 26.4000   1
   6 -17   2 150.410 17.6100   1
   6 -17  -2 149.160 16.7200   1
  -6 -17   2 172.580 24.6700   1
   6 -17  -2 182.780 43.1800   1
   3 -16  -4 34.5800 22.7800   1
  -3 -16  -4 22.2500 21.4700   1
   3  16   4 -23.540 38.2200   1
  -3  16   4 25.0600 20.5900   1
  -3 -16  -4 -49.780 25.6400   1
   3 -16   4 -12.400 17.2400   1
   3 -16  -4 7.11000 16.2000   1
  -3 -16   4 -19.040 13.7200   1
  -7  17   1 74.0100 21.8800   1
  -7 -17  -1 83.6900 21.2600   1
  -7 -17  -1 81.6400 23.6500   1
  -7 -17   1 88.9500 17.9300   1
   7 -17  -1 127.140 19.3100   1
   7 -17  -1 55.9500 21.1800   1
   7 -17   1 123.020 17.9400   1
  -7 -17   1 45.8700 24.0100   1
   7 -17  -1 121.380 29.1200   1
  12 -13   0 2.54000 21.0600   1
 -12 -13   0 9.05000 18.8400   1
  12 -13   0 -10.140 15.8000   1
 -12  13   0 -12.310 15.4900   1
 -12 -13   0 4.14000 27.9200   1
  -6 -13  -5 60.9900 32.1300   1
   6 -13   5 90.0500 16.1900   1
   6 -13   5 86.0400 16.6600   1
  -6 -13   5 62.6800 15.7300   1
  -6  13   5 81.4500 23.0000   1
   6 -13  -5 63.6100 23.0600   1
  -6 -13  -5 82.0600 22.5200   1
 -14  -7   3 1631.54 56.1300   1
  14  -7  -3 1608.97 58.8600   1
  14  -7   3 1926.56 63.6500   1
 -14   7   3 1714.19 56.1800   1
  14   7  -3 1445.03 69.4600   1
  14  -7  -3 1547.05 66.4400   1
 -14  -7  -3 1537.21 79.5900   1
 -14  -7  -3 1611.46 70.3400   1
 -14  -7   3 1589.67 58.3400   1
 -14   3   4 3305.64 94.1400   1
 -14   3  -4 3850.64 119.570   1
  14   3  -4 3575.41 87.9500   1
  14  -3  -4 3562.49 86.0700   1
 -14  -3  -4 3465.99 129.210   1
  14  -3  -4 3726.39 92.4800   1
 -14  -3   4 3566.59 67.6600   1
  14   3   4 3380.56 116.220   1
 -14  -3  -4 3554.39 100.460   1
  -5  11   6 46.3400 24.2300   1
   5 -11  -6 63.9300 23.2900   1
  -5 -11  -6 56.4700 20.3800   1
   5 -11   6 54.8000 12.2900   1
   5 -11   6 61.9500 14.8300   1
  -5 -11   6 56.7500 15.9400   1
  -5 -11  -6 24.3200 31.1800   1
  -4 -14  -5 1166.24 69.2700   1
  -4 -14   5 1045.44 41.5300   1
   4 -14   5 926.640 39.6500   1
   4 -14   5 981.370 39.7500   1
  -4  14   5 1132.03 53.4800   1
   4  14   5 617.210 90.1900   1
  -4 -14  -5 873.260 49.2500   1
   4 -14  -5 1171.20 56.3200   1
  16   4   1 782.600 56.2100   1
  16   4  -1 747.910 48.6300   1
  16  -4  -1 925.490 52.7500   1
 -16  -4   1 929.980 48.6600   1
  16  -4  -1 883.310 43.0000   1
 -16  -4  -1 863.260 45.8400   1
  16  -4   1 947.690 54.3400   1
  16  -4   1 831.960 38.7800   1
   0 -19   0 -17.800 22.6100   1
   0  19   0 -46.460 48.4500   1
  -8 -15  -3 37.5100 19.8500   1
  -8 -15   3 54.9000 17.1100   1
  -8 -15  -3 42.7000 26.3700   1
  -8 -15   3 50.9300 25.0200   1
  -8 -15  -3 13.5700 25.5100   1
   8 -15  -3 1.93000 20.2500   1
  -8  15   3 47.8700 18.5800   1
   8 -15   3 16.3900 17.2800   1
   8 -15  -3 15.2200 14.1200   1
  -8 -15   3 -1.6800 14.7100   1
  -7  -4   7 207.840 19.4900   1
  -7  -4  -7 190.150 40.1200   1
  -7   4   7 238.280 23.0200   1
   7  -4   7 268.420 25.7100   1
  -7   4   7 229.680 20.8600   1
  -7  -4  -7 155.870 29.9000   1
   7   4  -7 218.460 24.3400   1
   4 -17  -3 97.1600 16.1500   1
  -4 -17  -3 136.370 23.1200   1
  -4 -17   3 87.6600 18.1000   1
  -4 -17   3 105.590 16.0800   1
  -4 -17  -3 51.8500 30.6100   1
   4 -17   3 105.050 20.9500   1
  -4  17   3 84.7800 24.5700   1
   4 -17  -3 96.0900 21.4200   1
  -4 -17  -3 106.200 24.0300   1
  -4 -17   3 58.4300 22.7500   1
   0   9   7 5779.36 110.570   1
   0  -9  -7 6064.77 154.590   1
   0  -9   7 5578.09 89.7500   1
   0   9   7 4611.31 107.020   1
   0  -9  -7 4989.35 115.340   1
 -16   0   2 599.020 35.0000   1
 -16   0  -2 671.680 46.8400   1
  16   0  -2 632.110 39.1300   1
  16   0   2 687.820 40.4000   1
  16   0   2 699.310 52.8800   1
  16   0  -2 587.290 37.5000   1
 -11 -14   1 380.930 24.9500   1
 -11 -14   1 310.840 39.2600   1
  11 -14  -1 311.330 19.4900   1
 -11 -14  -1 309.810 26.2500   1
  11 -14   1 249.690 39.0600   1
 -11 -14  -1 310.080 30.4700   1
  11 -14  -1 361.170 29.1500   1
 -11  14   1 362.900 25.5800   1
  11 -14   1 367.580 24.5500   1
  15   8   0 103.030 24.2900   1
  15  -8   0 171.600 24.8200   1
 -15  -8   0 143.390 19.7800   1
  15  -8   0 162.110 22.3000   1
  -3  12   6 717.710 41.4100   1
  -3 -12   6 708.460 33.1700   1
   3 -12  -6 652.930 38.4900   1
  -3 -12  -6 601.530 51.0100   1
   3 -12   6 650.420 33.4500   1
  -3 -12  -6 626.990 48.9400   1
   3 -12   6 791.780 40.6000   1
  -3  12   6 618.880 36.2700   1
  -1  19   0 513.750 64.9100   1
  -1 -19   0 530.570 42.6700   1
   1 -19   0 367.600 45.2000   1
   1  19   0 440.350 60.2600   1
  -9   7   6 134.000 21.3900   1
   9  -7   6 115.470 17.0200   1
  -9  -7   6 95.4000 15.2100   1
  -9  -7  -6 179.910 34.5200   1
   9  -7   6 107.140 17.7800   1
  -9  -7  -6 88.3500 24.3200   1
  -9   7   6 106.380 16.1900   1
   9  -7  -6 119.230 25.6500   1
   9   7  -6 114.720 25.2600   1
  -5  18   1 -4.0500 21.0300   1
   5 -18  -1 15.7800 18.0100   1
   5 -18   1 7.94000 16.2800   1
  -5 -18  -1 9.13000 16.8200   1
   5 -18  -1 20.6200 23.9500   1
  -5 -18   1 13.9700 15.8900   1
  -5 -18  -1 20.0700 22.2000   1
   5 -18  -1 4.56000 23.5100   1
  -5   7   7 374.220 25.5600   1
  -5  -7  -7 263.090 33.7500   1
  -5  -7  -7 362.370 47.2000   1
   5  -7   7 356.990 25.5800   1
  -5   7   7 330.590 28.5600   1
   5  -7  -7 353.290 31.8800   1
  -5  -7   7 276.780 22.6700   1
 -16  -1  -2 137.460 24.8800   1
 -16   1  -2 72.0200 30.1900   1
  16  -1   2 84.1900 25.5100   1
  16  -1  -2 102.050 24.5000   1
  16   1  -2 65.2500 21.1800   1
  16  -1   2 60.0800 21.8200   1
  16   1   2 79.4100 22.6400   1
  16   1   2 117.650 29.1800   1
  16  -1  -2 44.9300 22.8900   1
 -16  -1   2 85.2200 17.4200   1
 -16   1   2 70.2900 14.2100   1
   1  -9   7 -14.060 20.9100   1
  -1  -9  -7 -0.7500 34.1900   1
   1  -9  -7 260.380 44.3400   1
  -1  -9   7 -4.3700 17.8500   1
  -1  -9  -7 4.31000 19.3600   1
   1   9   7 11.7700 21.1400   1
   1   9   7 -2.5300 16.5800   1
  -1   9   7 158.380 29.8900   1
 -10 -15  -1 -0.4000 17.3200   1
  10 -15   1 24.1300 23.7000   1
 -10 -15   1 23.6800 22.2700   1
  10 -15  -1 36.3200 20.5700   1
 -10 -15  -1 27.2700 21.7200   1
 -10  15   1 18.5700 16.7700   1
  10 -15  -1 9.42000 14.7800   1
 -10 -15   1 5.63000 15.4500   1
  10 -15   1 29.3700 15.3700   1
  -9 -16   0 198.710 21.4300   1
   9 -16   0 228.880 19.6600   1
  -9  16   0 237.300 23.4800   1
   9 -16   0 177.170 22.4900   1
  -9 -16   0 195.590 25.0400   1
   9 -16   0 187.630 33.5500   1
 -12 -11   3 57.4700 18.5700   1
 -12 -11   3 59.7800 20.9700   1
 -12 -11  -3 60.8100 24.9600   1
  12  11  -3 76.7400 23.7400   1
 -12  11   3 69.0200 15.9700   1
  12 -11  -3 115.420 17.3700   1
  12 -11  -3 94.8600 23.0900   1
 -12 -11  -3 76.5200 27.6200   1
 -12   9   4 993.770 42.6000   1
 -12  -9  -4 906.010 53.6900   1
 -12  -9   4 964.310 43.4400   1
 -12  -9  -4 896.550 52.8300   1
  12  -9  -4 950.400 40.5200   1
  12  -9  -4 945.920 44.2200   1
  12  -9   4 953.640 38.1900   1
  12   9  -4 755.940 52.4600   1
  14  -9  -2 367.220 30.5000   1
  14  -9   2 377.910 24.4100   1
 -14  -9  -2 450.660 43.2300   1
  14   9  -2 398.870 42.6300   1
 -14  -9  -2 408.960 32.1100   1
 -14  -9   2 411.090 24.9000   1
  14  -9  -2 493.680 29.7700   1
 -14   9   2 425.040 26.1500   1
  -8 -16   2 1203.11 73.7600   1
   8 -16   2 1419.32 51.7300   1
  -8  16   2 1215.21 52.8100   1
   8 -16  -2 1086.55 51.8300   1
  -8 -16  -2 1235.59 71.4500   1
  -8 -16  -2 1324.41 63.4600   1
  -8 -16   2 1173.92 47.8400   1
   8 -16  -2 1225.66 43.7900   1
  10  -5  -6 1102.33 51.9100   1
 -10  -5  -6 795.490 52.5900   1
  10  -5   6 946.750 40.8800   1
 -10   5   6 1167.18 48.6000   1
 -10   5   6 1077.36 45.2500   1
 -10   5  -6 1169.30 71.5400   1
 -10  -5  -6 922.710 56.3500   1
 -10  -5   6 884.410 37.9300   1
  10   5  -6 1029.04 52.7100   1
  16   5   0 141.980 24.4300   1
  16  -5   0 130.930 20.6300   1
 -16  -5   0 171.190 20.4800   1
  16  -5   0 195.950 27.1000   1
  -6  15   4 24.1300 18.6400   1
   6 -15  -4 0.98000 21.8100   1
  -6 -15  -4 59.5400 23.8200   1
  -6 -15   4 29.9800 24.7000   1
  -6 -15  -4 -2.3600 23.3500   1
  -6 -15   4 34.5500 14.2000   1
   6 -15  -4 36.9200 13.2200   1
   6 -15   4 16.7000 17.3800   1
   6  -6  -7 1342.56 56.5500   1
  -6  -6  -7 989.120 69.1600   1
  -6  -6   7 1261.34 49.0000   1
  -6  -6  -7 1453.81 72.1700   1
  -6   6   7 1441.52 57.6400   1
   6   6  -7 1166.94 54.6900   1
  -6   6   7 1276.29 50.5900   1
   6  -6   7 1310.49 52.0500   1
 -13  -7  -4 539.470 44.5300   1
 -13  -7   4 519.170 27.5800   1
  13  -7   4 503.730 28.4300   1
 -13   7   4 513.110 29.0400   1
  13   7  -4 424.730 34.1200   1
  13  -7  -4 521.950 33.1500   1
  13  -7  -4 481.980 37.1800   1
 -13  -7  -4 413.080 39.2400   1
 -14 -10  -1 90.7400 32.0100   1
  14 -10   1 71.1100 19.7700   1
  14 -10   1 97.3600 17.3100   1
  14  10  -1 97.9600 31.1800   1
  14 -10  -1 64.7900 17.6200   1
 -14 -10   1 82.9500 16.7100   1
 -14 -10  -1 62.3200 20.7700   1
  14 -10  -1 72.7900 24.0700   1
 -12  13   1 118.520 19.5500   1
  12 -13   1 87.0400 24.3200   1
 -12 -13  -1 94.8900 21.0900   1
 -12 -13   1 127.690 27.8700   1
 -12 -13  -1 68.9800 25.6200   1
  12 -13  -1 82.9400 21.8000   1
 -12 -13   1 91.3500 18.9300   1
  12 -13  -1 128.740 16.8900   1
  12 -13   1 135.350 19.0300   1
   8   0  -7 215.960 27.0000   1
  -8   0   7 261.510 22.2700   1
  -8   0   7 260.100 20.6200   1
  -8   0  -7 518.730 57.3900   1
 -15   4  -3 1024.32 64.3200   1
 -15  -4  -3 920.120 55.3400   1
 -15  -4   3 884.480 39.7100   1
  15  -4  -3 1032.52 50.4600   1
  15  -4   3 721.200 37.0400   1
  15  -4   3 742.940 48.7700   1
  15   4  -3 861.840 48.9900   1
  15  -4  -3 928.130 53.4000   1
 -15  -4  -3 955.870 71.9200   1
 -16   2  -2 1162.13 60.7100   1
 -16  -2  -2 1141.84 56.8400   1
 -16   2   2 1115.60 48.6200   1
  16   2   2 1095.31 55.8700   1
  16  -2  -2 1424.90 64.7000   1
  16  -2   2 1212.29 51.4500   1
  16   2   2 913.130 59.5600   1
  16  -2   2 1198.25 67.5600   1
  16   2  -2 1140.77 59.3500   1
  16  -2  -2 1368.36 63.5200   1
 -16  -2   2 1298.67 56.3200   1
   4   8   7 305.380 34.6100   1
  -4   8   7 539.500 33.9600   1
   4  -8   7 456.630 29.0400   1
  -4   8   7 451.270 29.3800   1
  -4  -8   7 454.080 25.6500   1
  -4  -8  -7 490.480 50.4700   1
  -4  -8  -7 366.490 40.2100   1
   4  -8  -7 460.890 38.5100   1
  -2  19   0 16.3200 33.1800   1
  -2  19   0 59.1600 26.9700   1
   2  19   0 -10.070 43.6900   1
   2 -19   0 34.0800 24.0500   1
  -2 -19   0 41.6200 25.1400   1
  -2 -19   0 30.8000 17.6400   1
 -11   0   6 -13.450 14.3300   1
  11   0   6 -0.3200 20.1700   1
  11   0  -6 31.1300 19.4900   1
 -11   0  -6 -31.220 37.3200   1
  -8   1  -7 1017.68 63.3500   1
  -8  -1  -7 1250.34 70.9700   1
  -8  -1   7 1017.23 43.2300   1
  -8   1   7 1017.24 42.8100   1
  -8   1   7 856.240 38.7400   1
   8   1  -7 1006.64 50.6900   1
   8  -1  -7 945.760 51.8600   1
   0 -19  -1 130.340 26.4400   1
   0 -19   1 90.5200 25.8800   1
   0  19   1 58.5100 36.9400   1
   0  19  -1 203.510 54.9200   1
   0   0   8 3360.99 99.2000   1
  13   0  -5 -8.3500 20.1500   1
  13   0   5 10.4200 23.1800   1
 -13   0   5 3.19000 12.7200   1
 -13   0  -5 14.3200 28.0900   1
  -2   9   7 228.900 21.8300   1
   2  -9   7 201.620 19.6800   1
  -2  -9  -7 231.760 53.6300   1
  -2  -9  -7 276.100 36.1600   1
   2  -9  -7 224.750 28.3300   1
   2   9   7 207.810 29.8700   1
  -2   9   7 220.730 24.8200   1
   2   9   7 247.060 25.8900   1
  -2  -9   7 199.440 17.7900   1
  14  -4   4 688.580 37.0500   1
  14  -4  -4 625.630 38.6200   1
 -14  -4   4 708.370 35.1200   1
 -14   4   4 777.850 39.3200   1
 -14   4  -4 677.580 59.0900   1
 -14  -4  -4 709.530 45.7400   1
  14   4  -4 721.330 43.1500   1
 -14  -4  -4 601.830 45.3600   1
  14  -4  -4 636.490 42.9700   1
  11   8  -5 8.24000 22.2200   1
  11  -8   5 30.0400 13.4100   1
 -11  -8  -5 36.5500 31.3400   1
 -11  -8   5 30.5100 14.1900   1
  11  -8  -5 12.1300 21.4100   1
 -11   8   5 28.5500 18.1100   1
  11  -8   5 16.8600 16.9300   1
 -11  -1  -6 25.5200 30.0000   1
 -11  -1   6 22.0200 14.0500   1
 -11   1   6 26.6100 15.9100   1
  11   1   6 38.3700 24.0900   1
 -11   1  -6 40.3300 33.8300   1
  11   1  -6 4.77000 19.6200   1
  11  -1   6 17.5800 19.2500   1
  11  -1  -6 21.3100 22.2900   1
 -15  -8  -1 802.770 46.3100   1
 -15  -8   1 778.140 39.0600   1
  15  -8  -1 752.980 49.9600   1
 -15  -8  -1 631.240 56.8300   1
  15  -8   1 807.660 49.9100   1
  15   8  -1 650.630 45.0000   1
  15  -8   1 893.750 37.7700   1
  15  -8  -1 947.720 42.4300   1
  13 -11  -2 167.120 18.3600   1
 -13 -11   2 197.700 22.1100   1
  13 -11  -2 140.770 24.7600   1
 -13 -11  -2 172.070 24.5300   1
  13  11  -2 140.530 25.7400   1
  13 -11   2 207.070 19.5600   1
 -13  11   2 201.910 21.1500   1
 -13 -11  -2 224.720 30.4400   1
   0   1   8 -21.280 19.6100   1
   0  -1   8 -2.8700 19.5900   1
  13 -12   0 59.0500 21.9500   1
 -13  12   0 79.5000 22.4600   1
  13 -12   0 61.6700 13.9100   1
 -13 -12   0 71.1800 29.2200   1
 -13 -12   0 72.7300 19.3900   1
  -9 -13   4 1477.48 104.660   1
  -9  13   4 1809.79 63.0800   1
   9 -13  -4 1669.95 67.1000   1
   9 -13   4 1926.07 60.4800   1
  -9 -13  -4 1617.34 69.0000   1
  -9 -13   4 1693.38 56.8200   1
  -9 -13  -4 1488.53 117.970   1
   9 -13  -4 1542.68 54.4700   1
  -1 -19  -1 31.4900 22.7400   1
   1 -19  -1 26.7200 25.1600   1
  -1 -19   1 59.8100 24.8900   1
   1 -19   1 14.5900 19.1000   1
   1 -19  -1 24.0500 23.6200   1
   1  19  -1 77.8600 49.9000   1
   1  19   1 92.5900 52.0200   1
  -1  19  -1 26.8500 47.0000   1
  -1  19   1 -7.2800 32.4700   1
  -1  19   1 63.0700 26.6800   1
   1   0   8 4.48000 20.0900   1
  -1   0   8 5.33000 19.4200   1
  13  -1   5 276.060 27.9700   1
  13   1  -5 318.920 29.4300   1
  13  -1  -5 304.950 29.4800   1
 -13  -1  -5 253.980 29.5000   1
 -13   1  -5 220.490 35.5000   1
 -13  -1  -5 256.460 35.2200   1
 -13   1   5 216.710 18.6000   1
 -13  -1   5 219.520 18.9200   1
  13   1   5 203.730 29.1700   1
  -4  18   2 131.820 22.4500   1
   4 -18  -2 115.420 23.8400   1
  -4 -18  -2 192.390 27.4000   1
  -4 -18   2 123.270 28.8000   1
   4 -18  -2 155.560 34.9000   1
  -4 -18  -2 145.280 27.0300   1
   4 -18   2 234.880 25.4200   1
  -4 -18  -2 187.370 25.5300   1
  -4 -18   2 194.700 19.9900   1
   4 -18  -2 189.140 19.3900   1
 -10  12   4 271.250 25.2900   1
 -10 -12   4 265.800 22.2800   1
  10  12  -4 314.990 34.4600   1
  10 -12  -4 323.540 26.8900   1
 -10 -12  -4 242.660 32.2200   1
 -10 -12  -4 297.530 35.2300   1
  10 -12  -4 297.580 21.5600   1
  10 -12   4 321.720 22.1700   1
   0  15  -5 571.150 65.4900   1
   0 -15   5 575.630 31.1300   1
   0 -15  -5 623.150 57.2100   1
   0  15   5 696.190 47.4800   1
   0 -15  -5 612.110 45.6800   1
  -4 -16   4 480.730 26.5000   1
   4 -16  -4 381.870 22.6800   1
   4 -16   4 542.880 29.9700   1
  -4  16   4 491.430 35.7300   1
   4  16   4 233.140 54.8100   1
   4 -16  -4 529.330 40.7200   1
  -4 -16  -4 454.940 34.7900   1
  -4 -16  -4 456.680 46.4500   1
  -9 -16   1 224.910 30.9700   1
   9 -16   1 149.430 29.8000   1
  -9 -16  -1 165.600 24.5400   1
   9 -16  -1 191.870 25.1200   1
   9 -16   1 161.300 16.6400   1
  -9  16   1 171.030 22.6400   1
   9 -16  -1 178.830 18.3400   1
  -9 -16   1 169.230 20.6400   1
  -9 -16  -1 144.600 20.4100   1
   1  -1  -8 2036.46 81.1900   1
   1   1   8 2101.45 71.8400   1
  -1  -1   8 2149.47 71.1300   1
  -1   1   8 1997.13 67.6500   1
   1  -1   8 2000.97 67.4100   1
   8  -2   7 12.2000 19.9000   1
  -8   2  -7 28.2800 45.5100   1
  -8  -2  -7 -48.050 38.3000   1
   8   2  -7 14.2200 20.8200   1
   8  -2  -7 45.5300 19.8100   1
  -8   2   7 7.99000 15.9900   1
  -8  -2   7 -0.2600 15.1400   1
  -8   2   7 5.56000 16.5900   1
  -1  15   5 787.480 50.6600   1
   1  15   5 779.770 47.9900   1
   1  15  -5 1064.98 95.6700   1
   1 -15   5 942.690 43.8300   1
   1 -15   5 945.560 42.2200   1
  -1 -15   5 875.920 37.5500   1
   1 -15  -5 964.600 65.6600   1
   1 -15  -5 860.680 51.4200   1
  -1  15  -5 854.840 76.3400   1
  -1 -15  -5 799.110 54.0000   1
  -1 -15  -5 960.630 65.6700   1
  16  -5  -1 830.790 47.2200   1
  16  -5   1 859.450 58.1900   1
  16   5   1 738.760 50.3800   1
  16  -5   1 874.740 45.9900   1
  16  -5  -1 819.620 55.3700   1
  16   5  -1 715.690 47.3500   1
 -16  -5   1 803.410 40.8000   1
 -16  -5  -1 802.490 44.3900   1
  15  -7  -2 43.0200 19.5800   1
  15  -7  -2 104.510 24.7200   1
  15  -7   2 112.060 19.4500   1
  15   7  -2 97.9900 27.4700   1
  15  -7   2 107.790 23.1500   1
 -15  -7  -2 99.5500 29.7100   1
 -15  -7  -2 92.7600 23.8600   1
 -15  -7   2 72.7200 18.4600   1
 -12  -6  -5 1646.58 85.4300   1
 -12   6  -5 2099.34 97.7300   1
 -12  -6  -5 2054.49 88.0000   1
 -12  -6   5 1737.31 58.7000   1
 -12   6   5 1890.81 64.5400   1
  12  -6   5 1810.61 57.5400   1
  12   6  -5 1637.16 74.8900   1
 -12   6   5 1759.84 57.8600   1
  12  -6  -5 1700.55 70.8400   1
 -11  -2   6 517.210 26.8700   1
 -11  -2  -6 647.030 50.9900   1
 -11   2  -6 660.690 49.6000   1
  11  -2  -6 622.650 40.4200   1
  11   2  -6 612.690 39.4000   1
 -11   2   6 678.670 34.5600   1
  11  -2   6 448.880 28.8700   1
  11   2   6 455.800 37.8800   1
 -11   2   6 596.150 28.9600   1
   7  -5  -7 433.180 33.6700   1
   7   5  -7 358.180 29.3000   1
  -7   5   7 448.350 31.3300   1
  -7  -5  -7 259.540 35.0800   1
  -7  -5  -7 480.720 45.7700   1
  -7  -5   7 389.020 27.5100   1
  -7   5   7 475.420 29.1100   1
   7  -5   7 495.980 30.4800   1
   0   2   8 2345.64 75.7500   1
   0  -2  -8 2299.41 94.3800   1
   0  -2   8 3032.22 95.3200   1
   0   2   8 2126.21 97.4200   1
  16  -3   2 572.880 44.8000   1
  16  -3  -2 563.660 36.7500   1
 -16   3  -2 545.870 43.0000   1
  16   3  -2 582.270 40.6100   1
 -16  -3  -2 537.320 36.8600   1
 -16  -3   2 712.870 41.1800   1
  16   3   2 523.440 39.1100   1
  16  -3  -2 596.320 35.5100   1
  16  -3   2 660.830 39.8800   1
  16   3   2 541.760 56.9900   1
 -13   2   5 292.490 20.6800   1
  13  -2   5 204.450 25.3600   1
 -13  -2   5 241.740 20.5000   1
 -13  -2  -5 334.860 40.0000   1
  13   2  -5 305.660 28.8400   1
  13   2   5 190.630 27.1300   1
 -13  -2  -5 165.540 27.4600   1
 -13   2  -5 270.190 38.6300   1
  13  -2  -5 246.290 27.7000   1
  -7 -10   6 135.800 18.3700   1
  -7  10   6 162.280 22.6900   1
   7 -10   6 176.610 16.8200   1
   7 -10   6 194.050 21.4400   1
  -7  10   6 151.790 20.0500   1
  -7 -10  -6 172.590 31.5800   1
   7 -10  -6 147.630 26.0100   1
  -7 -10  -6 108.920 24.6700   1
   4 -12   6 882.930 38.8500   1
  -4 -12  -6 928.880 60.0800   1
   4 -12  -6 876.250 46.0500   1
  -4 -12  -6 790.150 56.3900   1
  -4  12   6 680.950 41.7100   1
   4 -12   6 916.690 44.3300   1
  -4 -12   6 768.990 35.6000   1
  -4  12   6 838.790 46.7900   1
  -9 -11  -5 335.590 35.9200   1
  -9 -11   5 274.470 20.7600   1
   9 -11   5 381.220 25.4000   1
  -9  11   5 338.440 24.5500   1
   9  11  -5 277.480 31.9400   1
   9 -11  -5 277.310 26.3500   1
  -9 -11  -5 301.100 34.8100   1
  -6 -18   0 642.520 36.0200   1
  -6  18   0 553.860 37.0900   1
   6 -18   0 544.590 39.4500   1
   6 -18   0 460.280 45.9000   1
   6 -18   0 662.770 30.8400   1
  -6 -18   0 604.530 47.6600   1
   2 -19  -1 130.960 27.9000   1
  -2 -19  -1 161.820 27.6200   1
  -2 -19   1 129.250 22.2900   1
   2 -19  -1 137.410 29.0700   1
  -2 -19  -1 104.540 19.9700   1
  -2 -19   1 148.650 17.2100   1
  -2  19  -1 102.100 25.8300   1
  -2  19   1 177.060 31.6900   1
  -2  19  -1 165.300 40.9300   1
   2  19   1 141.420 48.1700   1
   2  19  -1 44.2800 47.2800   1
   2 -19   1 153.270 30.8900   1
   8 -12   5 839.510 37.8100   1
  -8  12   5 789.700 37.7000   1
   8  12  -5 678.010 51.7900   1
   8 -12  -5 830.380 44.0100   1
  -8 -12  -5 1025.83 63.8400   1
  -8 -12  -5 798.160 50.0100   1
  -8 -12   5 682.920 33.7200   1
   2   0  -8 1134.13 52.7900   1
   2   0   8 1348.84 53.7400   1
  -2   0   8 1182.88 46.6800   1
  -8   9   6 15.2600 16.1000   1
  -8  -9  -6 -0.8100 30.1800   1
  -8  -9   6 8.81000 13.1000   1
   8  -9  -6 27.4900 18.9200   1
  -8   9   6 -0.4400 15.5900   1
   8  -9   6 -10.440 13.1900   1
   8  -9   6 19.3400 15.0500   1
   8   9  -6 10.0300 21.5500   1
   1  -2  -8 17.6500 18.9900   1
  -1   2   8 14.9300 14.0300   1
   1   2   8 -29.770 20.6700   1
   1  -2   8 -6.7500 21.2100   1
  -1  -2   8 -18.170 17.9600   1
  -1  -2  -8 -12.330 19.0500   1
  -1   2   8 25.6700 21.0500   1
  -5 -14  -5 213.140 25.2800   1
   5 -14  -5 207.520 24.8500   1
   5  14   5 178.740 43.5800   1
  -5  14   5 174.740 23.7200   1
  -5 -14  -5 257.590 31.9700   1
  -5 -14   5 214.820 18.0900   1
   5 -14   5 232.630 20.5400   1
   8 -14   4 2780.02 76.3100   1
  -8  14   4 3250.44 98.1000   1
   8 -14  -4 3285.49 113.720   1
  -8 -14  -4 2692.88 107.340   1
  -8 -14  -4 3019.79 111.630   1
  -8 -14   4 2505.73 76.3700   1
   8 -14  -4 2591.20 79.0000   1
  -8 -14   4 2325.79 109.110   1
   7 -16  -3 11.2900 13.9700   1
  -7 -16  -3 24.1100 25.8300   1
  -7  16   3 41.0400 21.3700   1
  -7 -16  -3 -6.6200 20.5900   1
   7 -16  -3 -7.3600 23.9900   1
  -7 -16   3 11.0400 15.7300   1
  -7 -16  -3 15.3600 23.9300   1
   7 -16   3 44.5200 17.3400   1
  -7 -16   3 22.1900 24.3800   1
  -7 -16   3 31.8300 14.6500   1
  -3  19   0 332.110 32.1300   1
   3 -19   0 439.010 28.5700   1
   3 -19   0 295.630 33.8400   1
  -3 -19   0 413.430 29.7900   1
  -3 -19   0 479.650 47.0300   1
 -11 -11  -4 8.32000 23.1600   1
 -11  11   4 11.9900 19.0400   1
 -11 -11  -4 27.2100 22.7300   1
  11 -11   4 59.8500 17.5500   1
  11  11  -4 85.3300 25.2300   1
  11 -11  -4 34.8000 20.9000   1
 -11 -11   4 22.7000 14.7300   1
  11 -11  -4 61.5700 15.6100   1
   2  -1  -8 -10.220 19.9500   1
  -2   1   8 6.45000 17.3200   1
   2  -1   8 16.7700 16.9800   1
  -2   1   8 15.0300 18.7000   1
  -2  -1   8 0.12000 15.7100   1
   2   1   8 9.71000 17.3100   1
 -13 -12   1 639.170 65.0300   1
 -13 -12  -1 708.630 52.3500   1
 -13 -12  -1 537.980 35.4800   1
 -13 -12   1 558.530 28.3400   1
  13 -12   1 736.020 32.8700   1
  13 -12   1 650.510 46.5900   1
  13 -12  -1 622.050 50.0900   1
 -13  12   1 672.460 35.3000   1
  13 -12  -1 811.340 34.7100   1
   2  15   5 30.9300 31.4500   1
   2 -15  -5 80.9300 28.0600   1
  -2 -15  -5 33.8600 25.1700   1
  -2  15   5 118.610 26.8500   1
   2 -15   5 49.9600 14.4500   1
  -2 -15   5 50.8200 14.5500   1
  -2 -15  -5 54.7600 32.6800   1
   5 -17  -3 1076.64 56.5500   1
  -5  17   3 999.140 48.6000   1
   5 -17   3 1244.25 46.7100   1
   5 -17  -3 905.340 38.0000   1
  -5 -17   3 946.050 40.6800   1
  -5 -17  -3 715.800 63.0200   1
  -5 -17   3 1070.42 47.0300   1
  -5 -17  -3 1032.81 63.5000   1
  -5 -17   3 950.020 68.4700   1
  -5 -17  -3 840.260 56.0700   1
  -3  -9  -7 -2.8300 22.8200   1
  -3   9   7 48.1500 20.3400   1
   3  -9   7 64.0700 17.3600   1
  -3  -9   7 37.3200 16.3300   1
   3   9   7 18.5900 19.2400   1
  -3  -9  -7 75.8700 38.2900   1
  -3   9   7 27.7900 16.9700   1
   3  -9  -7 65.1300 20.6800   1
   8 -17   0 13.6800 23.0300   1
  -8  17   0 -1.8200 20.6500   1
  -8 -17   0 -16.510 14.3000   1
   8 -17   0 3.77000 14.2300   1
   8 -17   0 -12.800 21.3000   1
  -8 -17   0 0.06000 22.7800   1
  -8   3   7 314.340 23.3700   1
  -8  -3   7 288.980 22.0300   1
   8  -3  -7 256.040 26.7800   1
   8  -3   7 351.110 27.6900   1
  -8   3   7 263.090 22.8100   1
   8   3  -7 283.760 27.0300   1
  -8  -3  -7 275.660 42.3900   1
  -8   3  -7 296.080 50.8100   1
  15  -5  -3 96.1000 24.4600   1
 -15  -5   3 112.950 20.0700   1
  15  -5  -3 135.920 23.1400   1
  15  -5   3 155.890 22.4300   1
  15   5  -3 87.1200 31.6500   1
 -15  -5  -3 86.8800 25.9200   1
 -15  -5  -3 104.030 26.4100   1
 -10  -6   6 337.160 22.7400   1
 -10  -6  -6 406.960 41.6100   1
 -10   6  -6 309.020 41.4100   1
 -10  -6  -6 285.490 35.2500   1
  10  -6  -6 377.400 28.9600   1
  10   6  -6 319.390 32.4000   1
 -10   6   6 370.540 25.1000   1
  10  -6   6 306.950 21.2500   1
  10  -6   6 425.130 31.3500   1
 -10   6   6 421.130 26.5200   1
  -6  11   6 298.660 26.9100   1
   6 -11  -6 350.660 30.7800   1
  -6 -11  -6 271.860 30.2700   1
  -6 -11  -6 282.530 36.7900   1
  -6 -11   6 292.410 22.1400   1
   6 -11   6 272.180 23.1500   1
   6 -11   6 314.600 23.6400   1
  16   6   0 30.7100 21.8900   1
 -16  -6   0 16.8100 19.1300   1
  16  -6   0 59.7500 18.7500   1
  16  -6   0 13.1800 21.6400   1
  14   8  -3 591.230 42.1500   1
 -14   8   3 621.510 32.5600   1
  14  -8   3 732.370 35.1100   1
  14  -8  -3 673.720 36.5700   1
 -14  -8   3 563.260 30.5900   1
 -14  -8   3 572.820 33.5500   1
 -14  -8  -3 638.290 41.8700   1
 -14  -8  -3 625.370 45.5000   1
  14  -8  -3 651.990 45.8600   1
   0  13  -6 35.4000 36.0400   1
   0 -13  -6 15.5300 34.6700   1
   0 -13  -6 -12.310 26.3100   1
   0  13   6 24.7800 22.1500   1
   0 -13   6 8.16000 15.3100   1
   0  13   6 -7.8800 17.4600   1
   0 -13   6 -0.0800 16.3600   1
  13 -10  -3 1934.00 69.7300   1
  13  10  -3 1714.88 77.8300   1
 -13  10   3 2014.15 64.0300   1
  13 -10   3 2350.24 69.2000   1
 -13 -10  -3 2144.51 91.4300   1
  13 -10  -3 2302.22 74.0600   1
 -13 -10   3 2191.95 74.8000   1
 -13 -10   3 2008.30 69.9700   1
 -13 -10  -3 2152.61 85.6900   1
 -11  -3  -6 23.3800 21.2600   1
 -11   3  -6 105.090 41.0700   1
 -11  -3  -6 18.2100 34.3900   1
 -11   3   6 46.7600 15.3700   1
  11  -3  -6 36.1800 21.5100   1
  11   3  -6 20.5400 23.1400   1
 -11  -3   6 28.1200 13.9400   1
 -11   3   6 37.3200 15.6600   1
  11  -3   6 44.2100 18.2600   1
   0 -18   3 7.73000 14.5000   1
   0 -18  -3 53.5300 31.7000   1
   0  18  -3 -38.320 44.5500   1
   0 -18  -3 3.95000 23.1900   1
   0  18   3 8.23000 28.3300   1
  10 -10   5 282.130 21.8600   1
  10 -10  -5 232.030 26.9800   1
 -10 -10  -5 267.030 30.6300   1
 -10  10   5 287.480 24.3100   1
 -10 -10  -5 318.020 33.5500   1
 -10 -10   5 233.690 18.5100   1
  10  10  -5 302.290 31.1000   1
  10 -10   5 250.770 24.4200   1
   0   3   8 21.1200 17.6700   1
   0  -3  -8 14.9900 22.7100   1
   0   3   8 -7.0400 16.5200   1
   0  -3   8 -10.290 16.0500   1
   2  -2   8 430.260 26.6400   1
  -2   2   8 336.150 26.6500   1
   2  -2  -8 387.740 32.5400   1
  -2  -2   8 497.160 31.2500   1
  -2   2   8 424.260 27.9100   1
   2   2   8 455.140 29.8200   1
 -13   3  -5 1372.17 70.6000   1
 -13  -3  -5 1492.09 77.9500   1
 -13  -3   5 1329.06 50.5100   1
 -13   3   5 1315.83 52.5100   1
  13   3   5 1046.58 58.1000   1
  13  -3   5 1183.25 48.5600   1
  13   3  -5 1436.02 68.5100   1
 -13  -3  -5 1188.06 58.1100   1
  13  -3  -5 1120.12 60.0300   1
 -14  -5  -4 189.500 32.1700   1
  14  -5  -4 220.220 28.0600   1
  14   5  -4 229.930 29.6600   1
  14  -5   4 223.660 21.6200   1
  14  -5  -4 213.640 25.6400   1
 -14   5  -4 239.870 37.5500   1
 -14  -5  -4 226.550 29.6700   1
 -14  -5   4 201.230 18.4600   1
 -14   5   4 215.570 19.4200   1
   1 -13   6 355.120 25.9500   1
  -1  13   6 308.400 27.8200   1
   1 -13   6 325.590 25.7000   1
  -1  13   6 404.900 33.0400   1
  -1 -13  -6 439.110 45.3500   1
  -1 -13  -6 322.830 34.9700   1
   1  13  -6 367.570 56.7000   1
   1  13   6 349.200 41.7400   1
   1 -13  -6 415.320 44.8900   1
   1 -13  -6 337.040 28.3700   1
  -1 -13   6 402.610 25.4700   1
  -7 -17   2 2972.93 119.720   1
   7 -17  -2 3210.81 89.3200   1
  -7 -17   2 2537.54 79.4700   1
  -7 -17  -2 2809.36 118.900   1
  -7 -17  -2 3150.70 106.920   1
   7 -17  -2 3052.22 113.610   1
  -7  17   2 3492.56 91.7600   1
   7 -17   2 3462.69 96.6900   1
  -1 -18   3 157.450 19.2600   1
   1 -18  -3 225.780 28.9600   1
   1  18  -3 220.020 57.0300   1
  -1  18  -3 269.850 47.7300   1
   1  18   3 199.570 44.2800   1
  -1  18   3 217.780 29.3700   1
  -1 -18  -3 162.930 30.3300   1
   1 -18  -3 207.850 35.0300   1
  -1 -18  -3 175.120 24.0800   1
  -1  -3   8 9.56000 15.0500   1
  -1   3   8 18.1600 21.4800   1
   1   3   8 -15.830 20.2900   1
  -1   3   8 -4.8000 18.9100   1
   1  -3   8 25.0300 16.9600   1
   1   3   8 -6.6200 16.9700   1
   1  -3  -8 -5.5200 22.5900   1
  -1  -3  -8 -28.070 20.3500   1
   7 -13   5 7.41000 17.2300   1
  -7 -13  -5 27.8400 29.8500   1
  -7 -13   5 10.1600 14.7100   1
  -7  13   5 -15.810 20.2900   1
   7 -13  -5 42.5600 22.7700   1
  -7 -13  -5 25.3100 22.5500   1
   6 -18  -1 413.740 25.1100   1
   6 -18   1 445.130 26.2900   1
  -6 -18   1 375.180 28.1700   1
  -6  18   1 398.050 31.0600   1
  -6 -18  -1 392.660 33.4200   1
   6 -18  -1 259.360 37.2000   1
  -6 -18   1 359.580 39.8300   1
  -6 -18  -1 319.400 34.4300   1
   6 -18  -1 384.320 29.8700   1
  -6  -7  -7 120.180 60.9000   1
  -6  -7   7 161.970 18.2900   1
  -6   7   7 188.510 20.3000   1
   6  -7   7 182.200 20.0700   1
  -6   7   7 164.360 21.2400   1
   6  -7  -7 122.180 24.1200   1
  -6  -7  -7 93.5200 26.0200   1
   9  -8  -6 132.180 23.2000   1
  -9  -8  -6 79.1800 25.1100   1
  -9  -8   6 100.550 17.8500   1
   9  -8   6 92.1600 17.4600   1
   9  -8   6 87.1200 16.3100   1
  -9   8   6 87.0800 19.5000   1
  -9  -8  -6 115.030 34.1400   1
   9   8  -6 105.900 21.3900   1
  -9   8   6 82.3600 17.4900   1
  -5   8   7 213.940 21.0200   1
   5  -8  -7 219.950 25.0000   1
  -5   8   7 154.910 22.0100   1
  -5  -8  -7 172.580 27.6900   1
  -5  -8  -7 255.050 45.4500   1
  -5  -8   7 206.890 22.6600   1
   5  -8   7 254.020 25.2300   1
  16  -4  -2 296.980 30.6900   1
 -16  -4  -2 169.740 38.0100   1
  16  -4  -2 317.230 27.2700   1
  16  -4   2 382.490 33.1700   1
  16  -4   2 365.000 33.4200   1
  16   4  -2 266.900 28.9300   1
 -16  -4  -2 274.600 28.1700   1
 -16  -4   2 316.480 25.0200   1
  -3 -19   1 69.9700 24.8700   1
   3 -19  -1 77.8000 23.0300   1
   3 -19  -1 57.8400 25.2200   1
  -3 -19  -1 69.8900 21.5700   1
  -3  19  -1 57.3000 24.0300   1
  -3 -19  -1 70.9300 18.9400   1
  -3  19   1 95.0000 24.5700   1
  -3 -19   1 76.6400 18.1300   1
   3 -19   1 130.680 22.6700   1
   3 -19  -1 109.740 22.0000   1
   3   0  -8 2.42000 14.8800   1
  -3   0   8 16.9900 14.6000   1
   3   0   8 -6.8200 19.8800   1
  -3   0   8 3.41000 17.9200   1
  15  -9   0 53.6300 17.6100   1
  15  -9   0 8.34000 20.1000   1
 -15  -9   0 -23.350 24.4800   1
 -15  -9   0 29.3500 15.8600   1
  11 -14  -2 2717.60 104.140   1
 -11 -14  -2 2654.73 126.880   1
  11 -14  -2 2495.50 103.650   1
 -11  14   2 2727.91 105.520   1
  11 -14   2 2540.74 97.1700   1
 -11 -14   2 2386.50 93.4000   1
 -11 -14  -2 2499.51 108.450   1
 -11 -14   2 2356.88 125.610   1
  11 -14   2 1686.89 112.550   1
  -8  17   1 303.710 26.8400   1
  -8 -17   1 289.410 22.3700   1
   8 -17   1 218.900 34.0000   1
   8 -17  -1 216.970 35.3400   1
  -8 -17   1 312.060 35.1000   1
  -8 -17  -1 266.740 36.3000   1
   8 -17  -1 282.360 29.4400   1
  -8 -17  -1 266.990 26.8000   1
   8 -17   1 308.770 22.7500   1
   8 -17  -1 316.440 24.0300   1
 -13  -8  -4 1306.79 76.5600   1
 -13  -8  -4 1136.02 68.5200   1
 -13  -8   4 1243.58 55.6700   1
  13  -8  -4 1142.72 54.5100   1
  13  -8   4 1328.77 56.4000   1
  13   8  -4 1014.15 61.5700   1
  13  -8  -4 987.390 62.0600   1
 -13   8   4 1135.74 52.5900   1
  -3   1   8 234.760 22.5000   1
   3  -1  -8 180.170 23.9700   1
  -3   1   8 160.240 22.9300   1
  -3  -1   8 195.520 19.5800   1
   3   1   8 234.920 23.8500   1
   3  -1   8 208.930 23.9600   1
 -10 -14   3 1072.77 54.3400   1
 -10 -14   3 888.220 44.3500   1
 -10 -14  -3 883.670 67.3300   1
 -10 -14  -3 1186.73 65.8700   1
  10 -14  -3 1187.06 55.7500   1
  10 -14   3 971.870 43.4100   1
 -10 -14   3 939.020 74.2500   1
 -10  14   3 977.430 49.6600   1
  10 -14  -3 883.170 50.3300   1
  -5 -18  -2 1070.84 76.5100   1
  -5 -18   2 1168.22 85.5900   1
  -5 -18  -2 1332.75 70.4000   1
  -5 -18   2 1068.65 51.8900   1
   5 -18  -2 1218.42 56.4900   1
   5 -18   2 1408.99 61.4400   1
  -5  18   2 1083.67 60.3100   1
   5 -18  -2 1198.10 68.3300   1
  -5 -18  -2 1149.07 70.2200   1
   5 -18  -2 1087.89 86.3100   1
  -3 -15  -5 1040.04 73.3200   1
   3 -15  -5 1367.40 68.8500   1
  -3  15   5 1435.38 70.8000   1
   3 -15   5 1354.67 60.2700   1
  -3 -15   5 1321.72 56.9800   1
  -3 -15  -5 1365.58 80.7600   1
   3  15   5 1011.98 110.110   1
  10 -15  -2 357.670 28.3600   1
 -10  15   2 360.340 24.5100   1
  10 -15   2 454.190 26.8900   1
  10 -15  -2 501.690 31.7000   1
 -10 -15   2 448.280 31.8500   1
 -10 -15  -2 466.160 40.4900   1
  10 -15   2 322.480 42.8300   1
 -10 -15   2 393.030 46.2800   1
 -10 -15  -2 375.070 41.7700   1
  14 -11   0 251.290 18.5000   1
 -14 -11   0 316.680 22.5500   1
  14 -11   0 258.040 27.8200   1
  -2 -13  -6 136.220 32.1600   1
  -2 -13  -6 125.070 23.8800   1
   2 -13  -6 182.250 37.3300   1
   2 -13  -6 98.0500 23.3700   1
   2  13   6 225.500 33.3000   1
  -2  13   6 130.770 24.1300   1
   2 -13   6 169.130 20.3400   1
  -2  13   6 135.920 19.4700   1
   2 -13   6 164.040 18.5000   1
  -2 -13   6 158.580 18.9400   1
   0  17   4 3.43000 25.0900   1
   0 -17  -4 -27.600 20.4900   1
   0  17  -4 41.1000 49.5600   1
  16  -6   1 370.300 25.5300   1
  16   6   1 376.870 42.9600   1
  16   6  -1 307.250 34.9200   1
  16  -6   1 361.920 35.0400   1
  16  -6  -1 335.730 32.6700   1
  16  -6  -1 404.540 29.4300   1
 -16  -6  -1 355.180 25.2900   1
 -16  -6   1 342.480 24.6700   1
   5 -16  -4 123.290 25.8600   1
  -5  16   4 131.510 24.8800   1
   5 -16   4 114.680 18.7800   1
   5 -16  -4 118.830 17.3900   1
  -5 -16   4 136.250 17.7700   1
  -5 -16  -4 129.440 30.8300   1
  -5 -16  -4 140.940 24.2800   1
   0 -10  -7 26.7000 22.9200   1
   0 -10  -7 27.5900 34.6400   1
   0 -10   7 38.2900 21.3200   1
   0  10   7 52.5700 23.6800   1
   0  10   7 93.2600 24.5400   1
 -11  13   3 2791.67 109.410   1
  11 -13  -3 2560.41 107.540   1
 -11 -13   3 2273.37 92.7500   1
 -11 -13  -3 2161.41 111.130   1
 -11 -13   3 2071.60 126.010   1
 -11 -13   3 2516.42 99.4900   1
  11 -13  -3 2595.10 96.6300   1
  11 -13   3 2400.19 89.8900   1
 -11 -13  -3 2709.96 117.640   1
  -2 -18  -3 16.6900 23.2900   1
  -2 -18  -3 85.5600 21.9800   1
  -2 -18   3 125.860 18.5900   1
   2 -18  -3 24.8600 42.6900   1
  -2 -18  -3 40.2000 29.7400   1
   2 -18   3 102.920 18.8500   1
   2 -18  -3 73.6300 16.5100   1
  -2  18   3 99.6900 26.8200   1
  -2  18  -3 93.7600 35.3800   1
   2  18   3 27.2600 42.4100   1
   2 -18  -3 61.6000 21.5000   1
   2  -3  -8 750.090 46.5300   1
   2  -3   8 850.940 43.2800   1
  -2   3   8 843.020 44.0300   1
   2   3   8 843.890 45.8800   1
  -2  -3   8 758.650 40.3000   1
  -2   3   8 716.470 42.2500   1
   2   3   8 648.420 43.3700   1
  -2  -3  -8 538.500 46.1500   1
  -8  -4   7 374.510 24.7600   1
  -8   4   7 404.080 26.6100   1
   8  -4   7 388.740 30.1500   1
  -8   4   7 377.110 27.2800   1
   8   4  -7 360.500 27.6800   1
   8  -4  -7 412.490 30.1600   1
  -8  -4  -7 342.190 29.9300   1
  -8  -4  -7 369.720 48.7600   1
  -7 -15  -4 1239.65 73.7400   1
   7 -15  -4 1201.06 66.0400   1
  -7  15   4 1529.43 71.1800   1
   7 -15   4 1729.71 71.8500   1
  -7 -15  -4 1242.10 71.3700   1
  -7 -15   4 1167.19 78.7200   1
  -7 -15   4 1246.07 57.9200   1
   7 -15  -4 1249.44 55.9200   1
   7  -6   7 1351.53 63.8500   1
   7   6  -7 1066.47 57.7500   1
   7  -6  -7 1226.97 63.7600   1
  -7  -6  -7 878.820 68.8900   1
  -7   6   7 1243.78 60.2600   1
  -7  -6  -7 1308.72 79.7900   1
  -7  -6   7 1225.53 54.6900   1
  -7   6   7 1315.77 62.9600   1
  -1  17  -4 648.880 71.8500   1
   1  17   4 399.320 56.2000   1
  -1 -17   4 470.260 29.2100   1
  -1 -17  -4 542.770 47.2900   1
   1 -17  -4 552.980 42.9600   1
   1  17  -4 571.650 85.8400   1
  -1 -17  -4 544.390 47.7900   1
   1  10   7 3133.71 129.490   1
  -1  10   7 3559.69 91.3700   1
   1  10   7 3099.22 134.990   1
  -1 -10  -7 3524.38 109.390   1
   1 -10   7 3384.33 71.0300   1
  -1 -10   7 3126.68 114.460   1
   1 -10  -7 3434.90 124.040   1
  -1 -10  -7 3639.23 111.560   1
   1 -10  -7 3115.32 134.870   1
  -1  10   7 3240.65 126.250   1
  -4 -19   0 332.970 39.6100   1
  -4 -19   0 387.230 32.0900   1
   4 -19   0 441.290 29.8200   1
  -4  19   0 360.650 32.6500   1
   4 -19   0 353.810 34.1600   1
 -12  10   4 11.1100 14.8900   1
 -12 -10  -4 36.7300 26.0600   1
  12 -10   4 32.9200 17.7700   1
  12 -10  -4 9.33000 13.6700   1
 -12 -10   4 55.6400 15.7600   1
 -12 -10  -4 -4.4000 25.5900   1
  12  10  -4 26.9000 23.0500   1
  12 -10  -4 67.2700 26.6100   1
 -14 -10   2 681.880 39.7900   1
  14 -10  -2 591.070 33.8900   1
  14 -10   2 605.380 32.4600   1
 -14  10   2 670.420 36.6800   1
  14 -10  -2 463.110 40.9800   1
  14  10  -2 524.350 49.7000   1
 -14 -10  -2 498.170 51.0300   1
 -14 -10  -2 636.560 43.2700   1
 -11  -4  -6 665.080 51.9800   1
 -11   4   6 610.140 37.8200   1
 -11   4   6 622.750 36.0800   1
 -11   4  -6 672.570 56.7400   1
 -11  -4  -6 470.810 42.1200   1
  11  -4   6 528.990 34.9100   1
  11   4  -6 489.920 38.6600   1
 -11  -4   6 537.450 31.6500   1
  11  -4  -6 692.560 48.9200   1
  12 -13  -2 2258.49 97.3900   1
 -12 -13  -2 2174.83 111.910   1
 -12  13   2 2522.51 99.6000   1
  12 -13   2 2621.50 97.5200   1
  12 -13  -2 2767.65 103.010   1
 -12 -13   2 2426.03 94.2700   1
 -12 -13  -2 2514.78 109.820   1
 -12 -13   2 2273.22 123.870   1
   3   2   8 689.720 41.7300   1
   3  -2   8 791.730 42.6300   1
  -3   2   8 577.540 39.6400   1
   3  -2  -8 642.490 43.2900   1
  -3  -2   8 596.340 33.7300   1
  -3   2   8 532.200 31.0700   1
 -17   0   0 -0.8500 16.6700   1
  17   0   0 -12.810 26.9000   1
  17   0   0 -19.010 22.7500   1
   0  -4   8 136.720 20.6700   1
   0   4   8 132.710 19.7700   1
   0   4   8 122.920 21.5300   1
   0  -4  -8 106.530 24.6200   1
  12  -7  -5 1557.37 69.7500   1
  12   7  -5 1782.36 87.6100   1
 -12   7   5 1574.71 68.5800   1
  12  -7   5 1821.71 75.4600   1
 -12  -7   5 1797.28 74.4400   1
 -12  -7  -5 2082.61 103.360   1
 -12   7  -5 2068.23 109.910   1
 -12  -7  -5 1369.43 83.0300   1
  -4   9   7 29.0500 17.9200   1
  -4  -9   7 -9.7500 17.9900   1
  -4  -9  -7 35.1400 35.0800   1
   4  -9  -7 21.3500 20.3000   1
   4   9   7 14.1800 21.9600   1
   4  -9   7 -15.250 15.4300   1
  -4  -9  -7 5.09000 22.7800   1
  -4   9   7 26.8600 20.2900   1
 -13  -4   5 276.170 22.1400   1
 -13   4  -5 192.070 36.7300   1
 -13  -4  -5 229.090 35.6900   1
 -13   4   5 215.300 18.3100   1
  13  -4   5 221.330 23.5900   1
 -13   4   5 264.080 22.2700   1
  13   4  -5 150.260 24.6000   1
  13  -4  -5 205.400 28.2400   1
 -13  -4  -5 197.530 27.1400   1
   5 -12  -6 508.980 46.3800   1
  -5  12   6 412.010 34.0200   1
   5 -12   6 474.510 29.1900   1
  -5 -12   6 390.630 26.1300   1
  -5 -12  -6 469.210 43.3300   1
   5 -12   6 473.290 34.6400   1
  -5 -12  -6 479.710 40.0400   1
 -17   1   0 832.810 51.5400   1
 -17  -1   0 875.830 82.1500   1
  17   1   0 786.190 50.0300   1
  17   1   0 675.580 49.2600   1
  17  -1   0 786.380 52.0500   1
  17  -1   0 863.200 50.0200   1
  -9 -15  -3 230.660 34.4900   1
   9 -15  -3 243.250 34.1300   1
  -9  15   3 317.980 29.2900   1
   9 -15   3 239.650 22.0000   1
   9 -15  -3 228.040 18.9100   1
  -9 -15   3 196.180 18.2700   1
  -9 -15   3 208.900 22.0300   1
  -9 -15  -3 227.340 24.8800   1
  -9 -15  -3 136.980 30.7300   1
  -9 -15   3 245.720 31.9100   1
   0  19   2 -2.3300 34.3600   1
   0  19  -2 98.9800 53.6700   1
   0 -19  -2 13.1000 31.1300   1
   0 -19  -2 29.0300 21.6700   1
  -1   4   8 206.230 21.9900   1
  -1   4   8 250.170 23.6800   1
   1  -4   8 239.870 21.4300   1
  -1  -4   8 241.720 22.6500   1
   1   4   8 217.040 24.3600   1
  -1  -4  -8 199.530 31.2700   1
   1  -4  -8 186.820 24.1700   1
   1   4   8 146.350 20.6600   1
 -11   9   5 368.300 27.0100   1
  11   9  -5 348.660 33.7200   1
  11  -9  -5 385.840 32.1500   1
 -11  -9  -5 308.290 37.3900   1
  11  -9   5 374.930 23.2700   1
  11  -9   5 337.750 26.1500   1
 -11  -9   5 316.640 21.2800   1
 -11  -9  -5 357.910 33.3700   1
  15  -9   1 154.950 21.8700   1
  15  -9  -1 220.220 24.2000   1
 -15  -9  -1 165.590 24.3000   1
  15   9  -1 183.850 29.4200   1
 -15  -9   1 159.260 19.2400   1
 -15  -9  -1 186.940 35.1300   1
  15  -9  -1 168.100 26.6600   1
  15  -9   1 179.460 26.2400   1
 -15  -8  -2 200.340 23.5000   1
 -15  -8  -2 187.420 28.5900   1
  15   8  -2 160.090 27.7900   1
  15  -8   2 177.270 18.8800   1
  15  -8  -2 197.850 22.6900   1
 -15  -8   2 178.770 21.0800   1
  15  -8  -2 167.680 25.0700   1
  -1 -19  -2 304.400 38.4000   1
  -1 -19  -2 371.600 35.3200   1
  -1  19   2 411.960 38.0300   1
  -1  19   2 317.210 52.7500   1
  -1  19  -2 435.080 58.6900   1
   1  19   2 399.070 55.1100   1
   1  19  -2 468.800 68.8000   1
   1 -19  -2 292.880 34.9100   1
   1 -19  -2 275.750 31.8800   1
 -11 -15   0 246.200 33.8100   1
  11 -15   0 268.610 24.2600   1
  11 -15   0 268.090 20.6700   1
 -11 -15   0 241.830 21.8800   1
 -11  15   0 244.220 20.7300   1
  15  -6  -3 1374.24 68.6300   1
 -15  -6   3 1363.92 67.2600   1
 -15  -6  -3 1387.16 75.7300   1
 -15  -6  -3 1126.58 77.2600   1
  15  -6  -3 1242.44 65.1100   1
  15   6  -3 1352.23 74.6200   1
  15  -6   3 1227.48 56.1900   1
  -2  17  -4 906.450 74.6100   1
   2  17   4 726.390 76.7500   1
  -2 -17   4 731.950 39.5000   1
  -2 -17  -4 685.050 53.3700   1
   2  17  -4 858.040 95.9900   1
   2 -17  -4 718.120 38.6100   1
  -2 -17  -4 883.710 55.6400   1
   2 -17   4 838.120 43.9800   1
   2 -17  -4 962.500 59.5600   1
  -2  17   4 1009.98 58.3500   1
   2  10   7 98.3400 22.5800   1
   2  10   7 95.9600 19.7600   1
   2 -10   7 105.700 20.4500   1
   2 -10  -7 117.940 28.5200   1
  -2 -10   7 108.050 17.5600   1
  -2 -10  -7 112.800 36.9800   1
  -2 -10  -7 58.2900 25.9800   1
  -2  10   7 166.390 25.3300   1
  -2  10   7 160.270 31.9400   1
   9 -16   2 450.300 26.3600   1
  -9 -16   2 402.370 44.9200   1
   9 -16  -2 427.140 35.8200   1
  -9  16   2 468.820 34.6400   1
  -9 -16  -2 416.350 41.9600   1
  -9 -16  -2 478.890 39.5700   1
  -9 -16   2 404.400 27.7500   1
   9 -16  -2 454.140 25.8800   1
 -12 -12   3 413.280 37.4100   1
 -12 -12   3 450.310 31.1300   1
  12 -12  -3 499.510 28.9100   1
  12 -12   3 565.870 33.1700   1
 -12  12   3 586.620 35.2500   1
  12  12  -3 486.170 42.5400   1
  12 -12  -3 543.950 36.9500   1
 -12 -12  -3 567.270 46.9300   1
 -12 -12  -3 452.950 40.0100   1
 -14 -11   1 1685.19 72.5800   1
  14 -11  -1 1917.55 75.9400   1
 -14  11   1 2063.74 85.3800   1
  14 -11   1 1796.78 70.8800   1
  14 -11   1 1682.56 86.4100   1
  14 -11  -1 1665.01 87.6600   1
 -14 -11   1 1820.60 107.870   1
 -14 -11  -1 1832.22 102.200   1
 -14 -11  -1 1805.20 81.9300   1
 -12 -14   0 308.480 26.7300   1
 -12 -14   0 316.680 35.5400   1
  12 -14   0 310.240 20.5600   1
  12 -14   0 277.510 27.6300   1
 -12  14   0 294.690 22.2600   1
  17  -2   0 133.000 26.5200   1
  17  -2   0 154.100 24.9900   1
  17   2   0 193.090 32.5500   1
 -17  -2   0 202.750 22.2000   1
  17   2   0 165.700 24.5200   1
   6 -14  -5 405.950 39.2900   1
  -6 -14  -5 401.700 34.9500   1
   6 -14   5 376.300 28.4500   1
  -6  14   5 375.510 32.2900   1
  -6 -14  -5 406.550 41.7200   1
  -6 -14   5 312.260 21.4200   1
 -16  -5  -2 64.7500 22.6100   1
  16   5  -2 33.5500 22.1300   1
 -16  -5  -2 1.11000 28.1900   1
  16  -5   2 14.0700 19.8500   1
  16  -5   2 7.63000 21.6100   1
  16  -5  -2 22.2300 21.3500   1
  16  -5  -2 40.0600 23.0700   1
 -16  -5   2 8.56000 17.9700   1
   3 -13   6 32.0400 15.6800   1
  -3 -13  -6 35.7900 32.5400   1
  -3 -13  -6 -4.9400 24.4700   1
   3 -13  -6 7.18000 22.5400   1
  -3  13   6 33.1000 20.1500   1
   3 -13   6 30.3900 14.0600   1
  -3 -13   6 8.58000 14.6500   1
 -14   6   4 357.640 23.3200   1
  14   6  -4 379.650 39.6800   1
  14  -6  -4 338.750 29.4200   1
 -14  -6  -4 359.670 33.9200   1
  14  -6  -4 357.900 26.6900   1
 -14  -6   4 283.890 19.7600   1
  14  -6   4 408.930 29.4400   1
 -14  -6  -4 357.170 34.6600   1
  -3 -18  -3 430.250 38.8600   1
   3 -18  -3 366.780 30.1700   1
  -3 -18   3 379.470 26.1600   1
   3  18   3 208.870 62.0100   1
  -3 -18  -3 241.030 34.7600   1
  -3 -18   3 388.600 29.8200   1
  -3  18   3 408.240 35.3200   1
  -3 -18  -3 395.350 40.4100   1
   3 -18   3 424.110 29.2000   1
   3 -18  -3 364.390 23.0900   1
   3  -3  -8 526.690 36.3800   1
  -3   3   8 414.050 31.9600   1
   3   3   8 636.410 41.3800   1
   3  -3   8 615.860 36.4700   1
  -3   3   8 512.250 31.7700   1
  -3  -3   8 437.930 36.5900   1
  -3  -3  -8 565.230 54.1500   1
  10  -7   6 2075.12 92.4800   1
 -10   7   6 2137.24 89.6400   1
 -10  -7   6 1865.06 74.8100   1
 -10  -7  -6 2096.46 105.320   1
  10   7  -6 1682.57 85.2700   1
 -10  -7  -6 1623.08 86.5700   1
  10  -7  -6 2156.80 91.9600   1
 -10   7   6 2153.50 86.6700   1
  10  -7   6 1961.52 78.3400   1
   4 -19  -1 104.180 31.8600   1
  -4 -19   1 182.800 30.4600   1
  -4 -19  -1 149.950 26.4700   1
   4 -19   1 203.640 23.0300   1
   4 -19  -1 185.750 22.8100   1
  -4 -19   1 148.620 20.4700   1
  -4 -19  -1 147.270 21.4600   1
  -4  19   1 110.720 24.4300   1
   4 -19  -1 99.5500 22.2500   1
   4   0   8 1751.40 76.6700   1
   4   0  -8 1168.13 61.1800   1
  -4   0   8 1418.52 63.0200   1
  -4   0   8 944.210 56.1800   1
  16   7   0 79.7300 23.5600   1
  16  -7   0 132.430 21.9800   1
  16  -7   0 135.650 24.1500   1
 -16  -7   0 132.160 19.4600   1
   2   4   8 584.180 44.0600   1
   2  -4  -8 626.580 46.9900   1
  -2   4   8 512.680 42.4100   1
   2   4   8 644.630 39.3300   1
   2  -4   8 767.490 44.3300   1
  -2   4   8 673.240 38.3700   1
  -2  -4   8 658.810 36.0200   1
  -2  -4  -8 591.140 45.0000   1
   9   0  -7 -7.0300 23.1800   1
  -9   0   7 -17.440 16.9700   1
  -9   0  -7 133.450 42.8300   1
  -6 -17  -3 438.980 40.0500   1
  -6 -17   3 412.140 29.5900   1
   6 -17  -3 384.220 26.0500   1
   6 -17   3 431.400 28.2200   1
  -6  17   3 360.570 29.4300   1
   6 -17  -3 361.640 30.0900   1
  -6 -17  -3 303.320 29.0600   1
  -6 -17  -3 250.110 36.0800   1
  -6 -17   3 434.610 31.5200   1
  -6 -17   3 382.960 39.8000   1
 -10 -16   0 38.5400 19.3000   1
  10 -16   0 35.4200 13.9200   1
 -10  16   0 67.7300 18.8000   1
  10 -16   0 42.8300 21.0000   1
  10 -16   0 26.7600 32.5900   1
 -10 -16   0 41.9400 22.9100   1
  17   0   1 9.38000 24.1400   1
 -17   0   1 25.0600 17.5300   1
 -17   0  -1 12.9200 20.1400   1
  17   0  -1 -28.940 20.1000   1
  17   0  -1 -44.750 27.3500   1
  17   0   1 -11.930 24.7800   1
  -7 -18   0 36.0900 16.3000   1
   7 -18   0 -3.0000 17.1000   1
  -7  18   0 2.75000 16.0100   1
   7 -18   0 30.0800 19.9700   1
   7 -18   0 19.0900 25.6600   1
   4  -1   8 106.040 22.1400   1
  -4  -1   8 78.8400 17.8500   1
  -4   1   8 99.2200 18.1500   1
   4  -1  -8 70.0600 20.0400   1
   4   1  -8 30.4300 21.0900   1
  -4   1   8 58.0800 15.5600   1
  -4  -1   8 56.1600 15.5300   1
   4   1   8 109.280 23.2200   1
  -9  -1  -7 630.310 55.4300   1
  -9  -1   7 532.160 30.3900   1
  -9   1  -7 854.990 68.9600   1
   9   1  -7 554.930 41.5600   1
  -9   1   7 622.920 36.1000   1
  -9   1   7 674.840 38.6200   1
   9  -1  -7 516.140 40.9000   1
  -2  19   2 254.820 35.0800   1
  -2 -19  -2 326.570 27.8800   1
   2 -19  -2 326.050 32.4800   1
   2 -19  -2 251.730 33.0500   1
  -2 -19  -2 266.790 42.5500   1
  -2 -19   2 335.250 24.6500   1
  -2  19  -2 473.580 53.9600   1
   2  19   2 339.830 60.7800   1
   2  19  -2 300.060 68.1500   1
   4  15   5 35.0200 34.9500   1
   4 -15  -5 79.5400 23.1300   1
  -4 -15  -5 19.7600 23.0400   1
  -4 -15  -5 22.7700 30.1100   1
  -4 -15   5 34.3300 14.4600   1
   4 -15   5 15.1100 16.1300   1
  -4  15   5 97.9100 21.6500   1
  17  -1   1 1271.90 73.0100   1
  17  -1   1 1275.95 62.7800   1
 -17  -1  -1 1421.78 73.6700   1
 -17   1   1 1330.01 68.9000   1
 -17  -1   1 1251.79 61.2600   1
  17   1  -1 1271.82 67.3500   1
  17   1  -1 1227.45 68.4400   1
  17   1   1 1116.89 72.7000   1
  17  -1  -1 1263.24 67.2600   1
  17   1   1 1513.89 79.3300   1
  17  -1  -1 1431.13 70.1600   1
 -17   1  -1 1416.91 77.0900   1
 -15   0   4 5.42000 18.1300   1
  15   0   4 94.9000 26.9600   1
  15   0  -4 67.4900 23.7800   1
 -15   0  -4 60.6800 26.9700   1
 -15   0  -4 88.4200 30.0100   1
  -8  -5   7 254.420 21.5300   1
  -8  -5  -7 284.110 40.1300   1
  -8   5   7 317.480 22.6900   1
  -8  -5  -7 217.500 25.7200   1
   8  -5  -7 281.130 27.9300   1
   8  -5   7 323.720 28.3400   1
  -8   5   7 263.930 24.8100   1
   8   5  -7 179.360 21.8000   1
 -16   0   3 384.090 26.5500   1
 -16   0  -3 368.430 42.6600   1
  16   0  -3 315.700 30.3800   1
  16   0   3 343.260 28.9500   1
  16   0  -3 362.080 34.7000   1
 -16   0  -3 434.080 38.4400   1
 -15   1   4 2299.00 88.8300   1
  15  -1   4 1930.37 90.4800   1
  15   1   4 2448.99 111.790   1
  15  -1  -4 2321.56 100.090   1
 -15  -1  -4 2200.85 115.680   1
  15   1  -4 2426.64 104.160   1
 -15   1  -4 1922.21 102.790   1
 -15  -1   4 2348.43 89.8900   1
 -15  -1  -4 2504.15 118.150   1
 -15   1  -4 2608.91 125.390   1
  13 -12   2 1832.94 71.8700   1
 -13  12   2 1495.78 63.7400   1
 -13 -12  -2 1652.07 82.6000   1
 -13 -12   2 1532.57 67.5900   1
  13 -12  -2 1539.52 63.6700   1
 -13 -12  -2 1484.38 86.8900   1
 -13 -12   2 1630.29 101.080   1
  13 -12  -2 1388.95 67.2100   1
 -11 -15  -1 2636.01 106.560   1
 -11 -15   1 2442.36 99.3100   1
 -11 -15   1 2627.27 132.340   1
 -11 -15  -1 2155.71 112.090   1
  11 -15  -1 2352.01 98.6000   1
 -11  15   1 2540.53 102.920   1
  11 -15   1 2641.96 96.9200   1
  11 -15  -1 2538.77 96.1800   1
  -8  10   6 495.110 36.9200   1
   8 -10   6 579.230 34.2500   1
  -8 -10  -6 475.830 46.0400   1
  -8 -10   6 427.170 26.2100   1
   8 -10   6 537.910 36.2100   1
  -8 -10  -6 442.480 35.1500   1
   8 -10  -6 510.980 37.8900   1
   8  10  -6 391.680 39.4300   1
 -11  -5  -6 549.310 49.0900   1
 -11  -5   6 441.830 27.5700   1
 -11   5  -6 569.110 57.1600   1
 -11   5   6 462.630 29.2400   1
  11  -5   6 390.370 27.6800   1
 -11   5   6 434.080 29.8200   1
  11   5  -6 414.300 35.7400   1
  11  -5  -6 487.140 39.4200   1
 -11  -5  -6 367.720 31.9700   1
 -16  -1   3 39.8900 15.4200   1
  16  -1  -3 10.9500 23.7800   1
  16   1   3 27.5100 28.0400   1
 -16  -1  -3 33.6500 23.4100   1
  16   1  -3 39.1500 25.6400   1
 -16  -1  -3 73.8200 27.2500   1
  16  -1   3 48.4300 25.2400   1
  16  -1  -3 39.4400 28.0000   1
 -16   1  -3 81.7100 26.5400   1
 -16   1   3 50.7000 16.1000   1
  17  -3   0 271.240 30.1200   1
  17   3   0 291.650 31.9800   1
  17  -3   0 308.740 26.3500   1
 -17  -3   0 306.360 24.7300   1
   0  -5   8 26.0800 19.9200   1
   0  -5  -8 -3.2600 20.3500   1
   0   5   8 10.1800 18.4400   1
   0   5   8 10.0700 16.8100   1
  -4   2   8 185.460 20.3400   1
   4  -2  -8 158.930 23.9500   1
   4   2   8 153.410 21.7300   1
   4  -2   8 161.840 20.9500   1
  -4  -2   8 153.650 18.9700   1
  -4   2   8 136.330 18.5600   1
  -4  -2  -8 176.160 53.0300   1
  -9  -2   7 361.460 22.0500   1
  -9   2   7 436.150 27.9300   1
  -9   2   7 394.610 29.2700   1
  -9  -2  -7 622.040 53.7100   1
  -9   2  -7 584.020 59.1800   1
   9  -2  -7 409.380 38.3600   1
   9   2  -7 440.200 34.2400   1
 -13  -5  -5 298.450 36.4800   1
  13  -5  -5 487.640 35.9900   1
  13   5  -5 373.600 31.9600   1
 -13   5   5 434.560 30.0200   1
  13  -5   5 394.420 28.9700   1
 -13   5   5 395.740 27.9700   1
 -13  -5   5 334.100 23.2200   1
 -13  -5  -5 366.660 36.5900   1
 -13   5  -5 407.350 49.4500   1
 -14  -9  -3 1388.61 79.1300   1
  14  -9  -3 1310.13 74.4500   1
  14   9  -3 1167.60 70.4900   1
 -14   9   3 1517.03 67.3900   1
  14  -9   3 1419.56 60.1300   1
  14  -9  -3 1495.91 65.1900   1
 -14  -9   3 1257.93 59.7300   1
 -14  -9  -3 1359.59 72.6900   1
   7 -11  -6 1901.75 85.5200   1
  -7  11   6 2002.93 84.0100   1
  -7 -11   6 1477.46 61.0900   1
  -7 -11  -6 1982.95 96.9800   1
  -7 -11  -6 1675.20 84.9400   1
   7 -11   6 1759.70 77.5000   1
   7 -11   6 2251.21 87.2100   1
  -8 -16  -3 89.5300 29.6000   1
  -8 -16   3 112.910 27.6400   1
  -8 -16  -3 164.920 27.1600   1
   8 -16  -3 206.210 30.5400   1
  -8  16   3 185.990 22.0000   1
   8 -16   3 254.030 22.1300   1
   8 -16  -3 173.070 17.4200   1
  -8 -16   3 151.040 17.7200   1
  -8 -16   3 148.010 21.1000   1
  -8 -16  -3 205.130 29.3200   1
  12 -14  -1 869.320 40.7600   1
 -12 -14  -1 857.270 48.5000   1
 -12 -14   1 773.160 40.6200   1
  12 -14   1 831.760 39.4900   1
 -12  14   1 870.730 46.5300   1
  12 -14  -1 788.570 46.6500   1
 -12 -14  -1 747.280 59.6100   1
 -12 -14   1 770.770 62.1200   1
  -6  -8  -7 205.020 28.6800   1
   6  -8  -7 260.660 28.3700   1
  -6   8   7 244.290 24.3400   1
   6  -8   7 243.890 22.1400   1
  -6  -8  -7 254.510 37.5400   1
  -6  -8   7 186.110 18.8200   1
  -6   8   7 256.840 21.9300   1
 -17   2  -1 410.200 37.8800   1
  17   2  -1 427.150 39.8300   1
  17  -2  -1 420.970 34.2700   1
  17   2   1 359.480 37.0000   1
 -17  -2  -1 448.310 37.3100   1
 -17  -2   1 392.170 29.2200   1
  17   2   1 423.740 37.8800   1
  17  -2  -1 418.230 34.2600   1
  17  -2   1 456.070 33.9300   1
  17  -2   1 433.600 40.3800   1
  17   2  -1 365.100 36.9100   1
  -3 -17  -4 1533.25 76.2500   1
  -3  17   4 1608.51 80.7100   1
  -3 -17   4 1595.94 67.9900   1
  -3 -17  -4 1822.54 101.670   1
   3 -17  -4 1309.82 59.1400   1
   3  17   4 1219.69 119.900   1
   3 -17  -4 1546.52 82.4300   1
   3 -17   4 1877.41 78.6600   1
  -3 -10  -7 148.270 39.7500   1
  -3  10   7 109.470 20.5700   1
   3  10   7 143.570 29.3900   1
   3 -10  -7 97.6400 24.9600   1
  -3 -10  -7 111.140 27.2000   1
  -3  10   7 162.610 22.5200   1
   3 -10   7 143.090 19.8200   1
  -3 -10   7 168.950 20.1700   1
  13 -13   0 -9.4900 15.7800   1
 -13 -13   0 -22.660 18.3400   1
  13 -13   0 25.1200 21.5500   1
 -13 -13   0 -4.8700 27.7600   1
   1   5   8 244.730 23.0100   1
  -1   5   8 207.540 26.3400   1
   1   5   8 189.560 24.7500   1
  -1  -5  -8 219.220 24.8100   1
  -1  -5   8 247.920 26.3500   1
   1  -5   8 235.910 19.7200   1
  -1   5   8 209.930 20.6100   1
   1  -5  -8 215.050 29.4600   1
 -10 -13   4 406.610 46.8900   1
 -10 -13  -4 640.330 49.4900   1
  10 -13  -4 519.550 29.8000   1
 -10 -13   4 512.320 31.8400   1
 -10  13   4 580.840 35.5600   1
  10 -13  -4 509.220 34.8600   1
  10 -13   4 522.870 29.2800   1
 -10 -13  -4 448.380 45.1900   1
  15   2   4 1535.04 78.2700   1
  15  -2  -4 1558.97 82.4600   1
 -15  -2   4 1740.69 72.6700   1
 -15   2   4 1689.65 70.5400   1
 -15  -2  -4 1826.61 95.8400   1
 -15   2  -4 1676.20 90.6900   1
 -15   2   4 1570.12 76.5600   1
 -15  -2  -4 1328.13 77.2700   1
  15  -2  -4 1444.70 78.1200   1
  15   2  -4 1728.35 79.8700   1
  15  -2   4 1402.48 68.9500   1
  16  -7  -1 577.480 35.7800   1
  16  -7   1 434.750 41.0300   1
 -16  -7  -1 398.340 45.9700   1
  16  -7   1 447.910 35.2100   1
  16  -7  -1 380.870 37.0000   1
  16   7  -1 350.500 36.2100   1
 -16  -7  -1 495.030 37.3200   1
 -16  -7   1 339.280 25.2500   1
  -5 -19   0 118.370 30.5900   1
  -5  19   0 114.240 20.9300   1
   5 -19   0 144.770 24.9400   1
   5 -19   0 195.340 27.6500   1
   5 -19   0 142.520 19.3900   1
  -5 -19   0 138.450 19.9800   1
  10 -16  -1 392.650 24.2900   1
  10 -16   1 406.080 25.1600   1
 -10  16   1 391.600 27.8100   1
  10 -16  -1 353.240 28.3600   1
 -10 -16  -1 361.460 34.6000   1
 -10 -16   1 386.620 43.1300   1
  10 -16   1 293.890 37.3000   1
 -10 -16   1 410.870 27.4300   1
 -10 -16  -1 433.070 30.5800   1
  -9  12   5 537.340 32.8500   1
  -9 -12  -5 538.380 47.9400   1
  -9 -12  -5 484.520 45.2900   1
   9 -12   5 610.920 34.4400   1
   9 -12  -5 476.110 36.6800   1
   9  12  -5 521.340 44.4900   1
  -9 -12   5 513.470 29.4500   1
   9  -9   6 167.460 18.5600   1
  -9  -9  -6 185.980 36.8500   1
  -9   9   6 204.120 23.9900   1
   9  -9   6 184.460 18.6100   1
  -9  -9  -6 110.860 24.8100   1
   9  -9  -6 194.340 26.6200   1
   9   9  -6 128.650 25.1600   1
  -9  -9   6 150.560 17.4600   1
  -6 -18  -2 2720.03 116.290   1
  -6  18   2 3005.85 127.720   1
   6 -18  -2 2386.72 160.580   1
  -6 -18   2 2600.21 132.520   1
  -6 -18  -2 2559.98 123.130   1
   6 -18  -2 2789.21 117.500   1
   6 -18   2 2752.37 102.000   1
  -6 -18   2 2695.29 104.680   1
   6 -18  -2 2830.49 105.660   1
   7 -18  -1 181.900 35.5400   1
  -7  18   1 217.910 27.0700   1
  -7 -18  -1 254.690 24.8800   1
  -7 -18   1 204.970 20.1700   1
   7 -18  -1 251.850 21.3400   1
   7 -18   1 235.360 20.8500   1
  -7 -18   1 203.020 31.2200   1
   7 -18  -1 183.670 23.7400   1
  -7 -18  -1 220.010 32.4600   1
 -16  -2   3 60.8700 16.5900   1
  16  -2   3 30.6700 23.3100   1
  16  -2   3 11.8600 23.8800   1
 -16  -2  -3 30.7600 23.4500   1
 -16  -2  -3 49.1500 31.8300   1
  16   2  -3 26.9900 25.2700   1
  16  -2  -3 38.8000 19.8700   1
 -16   2  -3 -29.980 26.3700   1
 -16   2   3 33.6100 14.3800   1
  16   2   3 33.6900 27.9900   1
  -3  -4   8 301.570 24.4100   1
   3   4   8 379.280 31.8300   1
   3  -4   8 341.650 26.3700   1
  -3  -4  -8 267.660 53.0000   1
  -3  -4  -8 265.150 30.3900   1
   3  -4  -8 247.210 26.6500   1
  -3   4   8 243.100 24.3300   1
   3   4   8 266.440 30.1100   1
  -3   4   8 308.210 22.7100   1
  -7  -7  -7 85.8900 39.0100   1
  -7  -7   7 54.7500 17.2600   1
   7  -7   7 58.3000 19.2500   1
  -7  -7  -7 51.9000 24.1700   1
  -7   7   7 66.9600 17.1500   1
   7  -7  -7 23.6400 19.9400   1
  -5   9   7 710.210 42.4900   1
   5  -9   7 709.490 41.1800   1
   5  -9  -7 634.380 45.8500   1
  -5  -9  -7 495.090 46.0900   1
  -5  -9  -7 733.420 67.0100   1
  -5  -9   7 631.590 35.1600   1
  -5   9   7 579.360 34.9400   1
   9 -14  -4 519.430 40.4000   1
  -9  14   4 483.360 35.7900   1
   9 -14   4 487.260 29.3800   1
  -9 -14   4 286.690 39.9500   1
   9 -14  -4 416.780 28.6900   1
  -9 -14   4 336.890 23.7700   1
  -9 -14  -4 400.280 36.2900   1
  -9 -14  -4 299.720 32.2400   1
  -6 -16  -4 405.670 38.5300   1
   6 -16  -4 352.660 26.1700   1
  -6 -16  -4 370.090 35.2600   1
  -6 -16   4 414.880 28.9500   1
  -6  16   4 409.460 36.2600   1
   6 -16   4 540.870 32.0400   1
   6 -16  -4 312.700 20.0700   1
  -3 -19  -2 848.090 52.0800   1
  -3 -19   2 825.330 61.1300   1
  -3 -19  -2 645.270 49.2600   1
  -3 -19  -2 1043.67 66.3700   1
  -3 -19   2 930.540 49.3000   1
   3 -19   2 1071.15 51.1800   1
  -3  19   2 878.190 56.7700   1
   3  19   2 652.640 81.0200   1
   3 -19  -2 786.520 53.7900   1
   3 -19  -2 839.230 84.5300   1
   3 -19  -2 908.380 46.2400   1
 -11 -12  -4 423.450 38.3300   1
 -11 -12  -4 317.020 39.0600   1
  11 -12  -4 324.110 28.1100   1
 -11  12   4 441.470 31.2800   1
  11 -12   4 447.710 28.3500   1
  11  12  -4 395.710 42.6500   1
  11 -12  -4 372.680 23.3900   1
 -11 -12   4 398.870 26.4000   1
  -9 -17   0 152.950 20.5300   1
   9 -17   0 141.830 29.0200   1
  -9 -17   0 222.810 29.6000   1
   9 -17   0 156.990 33.1400   1
  -9  17   0 158.450 25.3300   1
   9 -17   0 177.830 16.7200   1
 -13 -11   3 220.440 23.7700   1
  13 -11  -3 211.790 25.3000   1
 -13  11   3 192.830 22.8900   1
  13 -11   3 196.110 20.0400   1
  13  11  -3 209.370 28.1600   1
  13 -11  -3 202.720 18.9300   1
 -13 -11  -3 152.640 25.1000   1
 -13 -11  -3 149.010 29.6500   1
  -4 -13  -6 313.030 39.7900   1
  -4 -13  -6 226.670 27.5300   1
   4 -13  -6 274.760 29.9500   1
  -4  13   6 297.030 28.4000   1
   4 -13   6 293.630 21.9000   1
  -4 -13   6 225.340 18.6500   1
   4 -13   6 289.760 22.7900   1
  13  -9  -4 388.980 30.4600   1
 -13  -9  -4 407.120 37.3900   1
 -13  -9   4 447.240 29.5800   1
  13  -9  -4 418.920 30.7000   1
  13  -9   4 457.480 28.2000   1
 -13   9   4 381.360 25.4400   1
  13   9  -4 306.210 32.8900   1
 -13  -9  -4 442.830 38.2400   1
  -8 -17  -2 62.4000 22.7500   1
  -8 -17   2 84.1100 25.4200   1
   8 -17  -2 46.5800 23.6700   1
  -8  17   2 57.1000 18.8700   1
   8 -17   2 58.9600 16.1800   1
   8 -17  -2 52.2000 14.2700   1
  -8 -17   2 68.0200 18.0700   1
  -8 -17  -2 88.4600 22.8800   1
 -10 -11  -5 658.530 51.3800   1
  10 -11  -5 837.500 45.2900   1
  10  11  -5 549.540 56.4500   1
 -10  11   5 886.380 44.7100   1
 -10 -11  -5 713.440 50.6900   1
 -10 -11   5 582.460 32.4600   1
  10 -11   5 652.020 33.2900   1
  -4 -18   3 1084.96 47.2500   1
   4 -18   3 1361.50 54.8100   1
  -4 -18  -3 1179.71 66.9400   1
  -4 -18   3 1145.54 48.4500   1
   4 -18  -3 1179.68 49.8000   1
  -4 -18  -3 818.330 72.1200   1
  -4 -18  -3 1081.33 66.6000   1
   4 -18  -3 1030.46 55.5900   1
   4  18   3 844.150 85.0600   1
  -4  18   3 1217.13 64.0800   1
  -4   3   8 865.030 41.7500   1
   4  -3  -8 1065.39 54.3100   1
   4   3   8 1066.93 53.0200   1
   4  -3   8 1097.67 50.2500   1
  -4   3   8 878.870 48.6800   1
  -4  -3   8 974.520 44.0500   1
  -4  -3  -8 1170.97 77.0300   1
  12   0  -6 776.330 47.9500   1
  12   0   6 614.360 42.5500   1
 -12   0   6 647.660 35.8700   1
 -12   0  -6 874.640 66.8100   1
  -8 -13  -5 72.2100 27.8000   1
  -8 -13   5 54.2000 15.6500   1
  -8  13   5 77.8300 20.9700   1
   8 -13  -5 45.1300 21.9200   1
   8 -13   5 56.2400 15.1700   1
  -8 -13  -5 109.470 23.9800   1
  -8 -13   5 76.9600 30.0400   1
  -2  -5  -8 536.500 44.9200   1
  -2   5   8 625.170 35.1100   1
  -2  -5  -8 809.920 60.6700   1
  -2  -5   8 558.570 31.7200   1
   2  -5   8 637.370 38.0100   1
   2   5   8 620.560 39.0400   1
  -2   5   8 493.130 37.4500   1
   2   5   8 530.870 42.3300   1
   9  -3  -7 688.000 52.6400   1
  -9  -3   7 653.450 32.6300   1
  -9   3  -7 740.440 56.6000   1
   9  -3   7 711.210 38.9200   1
   9   3  -7 672.320 43.9800   1
  -9   3   7 745.530 35.4900   1
  -9   3   7 758.560 38.8800   1
  -9  -3  -7 922.570 141.820   1
  17  -3  -1 765.180 49.0200   1
 -17  -3   1 751.920 44.7300   1
  17  -3   1 720.400 49.2100   1
 -17  -3  -1 671.660 46.4700   1
  17   3   1 782.360 61.7700   1
  17  -3  -1 769.740 44.3300   1
  17  -3   1 780.490 44.7600   1
  17   3   1 594.560 48.0500   1
  17   3  -1 632.230 44.0200   1
 -16  -6  -2 163.710 31.1900   1
  16  -6  -2 134.800 21.9600   1
  16  -6   2 133.700 25.6600   1
  16   6  -2 159.240 24.9100   1
  16  -6   2 146.520 22.4400   1
  16  -6  -2 152.180 20.6500   1
 -16  -6   2 196.300 19.8800   1
 -16  -6  -2 162.280 22.7700   1
  -6 -12  -6 2982.61 113.260   1
   6 -12   6 3145.68 99.5800   1
   6 -12   6 3501.38 107.420   1
   6 -12  -6 2902.48 115.520   1
  -6  12   6 3875.47 125.950   1
  -6 -12  -6 3325.15 138.610   1
  -6 -12   6 2943.87 89.6400   1
 -12   8   5 261.000 21.6900   1
  12  -8  -5 274.890 25.0600   1
 -12  -8  -5 223.170 32.9700   1
 -12  -8  -5 311.800 33.8100   1
 -12  -8   5 325.620 24.4100   1
  12  -8   5 263.360 20.3000   1
  15 -10   0 450.650 40.0500   1
  15 -10   0 534.080 30.1100   1
 -15 -10   0 517.960 35.6400   1
 -15 -10   0 354.800 43.7200   1
 -12  -1   6 51.3500 16.4600   1
 -12   1  -6 92.7000 37.0400   1
 -12  -1  -6 101.200 36.3200   1
  12  -1  -6 46.5600 22.6700   1
  12   1  -6 77.6800 21.1500   1
  12  -1   6 52.2800 22.4600   1
  12   1   6 43.5000 25.5800   1
 -12   1   6 60.8200 16.7200   1
  13 -13  -1 381.530 33.9600   1
 -13 -13   1 574.370 54.9100   1
 -13 -13  -1 460.030 42.3800   1
 -13  13   1 562.800 32.6800   1
  13 -13   1 638.240 34.5600   1
 -13 -13  -1 459.740 35.6500   1
 -13 -13   1 533.840 32.9500   1
  13 -13  -1 528.270 26.0800   1
 -15  -7  -3 576.950 50.9800   1
 -15  -7  -3 720.140 47.7800   1
  15  -7  -3 608.820 40.6600   1
  15  -7   3 679.660 34.4600   1
  15  -7  -3 709.660 38.2300   1
 -15  -7   3 705.320 37.8000   1
  15   7  -3 551.820 42.7800   1
 -15  -3  -4 678.120 45.4000   1
  15   3   4 575.630 46.6800   1
  15  -3  -4 728.780 47.5300   1
  15  -3   4 840.790 42.9800   1
  15   3  -4 732.460 44.9100   1
 -15   3   4 844.990 42.4900   1
  15  -3  -4 805.000 47.0000   1
 -15  -3   4 874.940 41.5400   1
 -15  -3  -4 794.310 61.9800   1
 -15   3  -4 784.850 59.0800   1
  17  -4   0 661.300 37.3300   1
 -17  -4   0 620.350 39.9900   1
  17   4   0 507.560 42.9200   1
  17  -4   0 566.540 42.8100   1
   0 -16  -5 -10.520 22.4700   1
   0 -16  -5 -42.160 30.1500   1
   0 -16   5 -12.580 13.0400   1
   0  16   5 -36.850 27.7200   1
   0  16  -5 11.8700 39.5600   1
  16  -3   3 748.630 40.2700   1
 -16  -3   3 899.220 45.9200   1
  16   3   3 756.570 49.9500   1
  16   3  -3 643.690 44.0700   1
 -16  -3  -3 816.550 50.4600   1
 -16   3  -3 821.200 54.9700   1
  16  -3   3 711.660 50.1700   1
  16  -3  -3 966.540 57.2900   1
  16  -3  -3 771.580 42.2300   1
 -16  -3  -3 770.300 57.6400   1
   5 -19  -1 751.260 65.6900   1
  -5 -19   1 965.770 65.3300   1
  -5 -19  -1 890.980 60.7400   1
  -5  19   1 1048.79 62.4100   1
   5 -19   1 1332.96 51.9000   1
  -5 -19   1 1138.45 56.0200   1
   5 -19  -1 1123.80 47.6800   1
   5 -19  -1 889.770 57.4300   1
  -5 -19  -1 1135.25 59.3400   1
   5   0  -8 -10.440 18.4500   1
  -5   0   8 -4.5800 13.0300   1
   5   0   8 7.24000 18.4300   1
  -5   0   8 43.2700 18.7900   1
   0  20   0 1674.76 127.710   1
   0 -20   0 1401.74 84.2300   1
  14   7  -4 334.720 29.1800   1
 -14  -7  -4 350.780 31.9600   1
  14  -7  -4 348.350 31.7400   1
 -14   7   4 383.500 25.2500   1
  14  -7   4 454.670 28.4600   1
 -14  -7  -4 321.940 35.9400   1
 -14  -7   4 398.900 24.9600   1
  14  -7  -4 313.250 26.3300   1
  -1 -16   5 51.1400 15.0600   1
  -1  16  -5 76.5600 42.9000   1
   1 -16  -5 29.0800 26.5300   1
   1  16  -5 167.450 51.3600   1
  -1 -16  -5 36.7000 33.0400   1
   1  16   5 74.0300 26.0400   1
  -1  16   5 49.4700 23.0900   1
   1 -16   5 87.5600 17.5100   1
   1 -16   5 50.2200 13.9700   1
   5  -1  -8 613.130 35.7100   1
   5   1  -8 615.230 41.2400   1
  -5   1   8 519.820 34.7600   1
  -5  -1   8 673.650 36.9200   1
   5   1   8 824.020 43.9200   1
   5  -1   8 906.760 46.0600   1
  -5   1   8 704.380 34.6600   1
  -5  -1   8 745.320 36.6500   1
  -5  -1  -8 956.780 73.1300   1
  12  -2   6 208.090 24.7600   1
  12  -2  -6 235.210 30.4300   1
 -12   2   6 226.750 20.5400   1
 -12  -2   6 197.970 19.3000   1
 -12  -2  -6 281.920 42.2900   1
 -12   2  -6 246.770 43.6600   1
  12   2   6 177.110 26.4300   1
  12   2  -6 222.840 25.4400   1
  -1 -20   0 11.7100 22.7600   1
  -1  20   0 3.93000 24.7500   1
  -1  20   0 14.3100 39.3300   1
   1  20   0 55.2700 50.9500   1
   1 -20   0 26.0200 23.8800   1
   5 -15  -5 1490.43 65.3600   1
  -5 -15  -5 1610.36 78.8100   1
   5  15   5 874.010 104.990   1
  -5 -15  -5 1373.91 80.4000   1
  -5 -15   5 1243.36 47.1900   1
   5 -15   5 1597.29 58.7800   1
  -5  15   5 1512.64 65.4000   1
   8 -15  -4 99.0300 16.6300   1
  -8 -15   4 68.4300 22.2500   1
  -8 -15  -4 74.7100 28.4800   1
   8 -15  -4 82.5100 22.7500   1
  -8  15   4 110.110 20.6000   1
   8 -15   4 89.4600 15.5400   1
  -8 -15   4 109.960 17.8300   1
  -8 -15  -4 114.700 23.8800   1
  -8  -6   7 4.76000 15.1600   1
  -8   6   7 27.4600 16.9700   1
  -8   6   7 19.2200 17.7400   1
   8  -6   7 23.4600 16.6700   1
  -8  -6  -7 57.7000 34.6400   1
   8   6  -7 26.8600 21.1100   1
   8  -6  -7 42.2200 22.1300   1
  -8  -6  -7 33.1800 20.5400   1
   0 -11  -7 1047.62 58.1500   1
   0  11   7 1198.24 60.6700   1
   0  11   7 1246.96 55.4100   1
   0 -11   7 1258.85 51.8200   1
   0 -11  -7 1346.36 95.8700   1
  -4 -17   4 526.350 29.0600   1
  -4  17   4 596.340 44.8200   1
  -4 -17  -4 645.850 49.1700   1
   4 -17   4 721.050 35.8800   1
   4 -17  -4 491.440 30.9800   1
  -4 -17  -4 702.980 51.4800   1
   4 -17  -4 590.910 41.8100   1
   4  17   4 465.230 71.6700   1
 -15  -9   2 45.2200 18.7800   1
 -15  -9  -2 13.1900 19.6400   1
  15   9  -2 33.6400 26.6700   1
  15  -9  -2 60.7200 20.1200   1
  15  -9   2 38.4500 16.0300   1
  15  -9  -2 42.3700 15.6800   1
 -15  -9  -2 38.6600 28.1300   1
   4 -10  -7 921.730 55.1900   1
  -4 -10  -7 909.850 52.2500   1
  -4 -10  -7 1048.22 65.7600   1
   4 -10   7 1139.79 53.0500   1
  -4 -10   7 1014.18 43.4300   1
  -4  10   7 969.340 45.9900   1
  -4  10   7 967.160 51.6000   1
   4  10   7 938.240 57.7300   1
  -9 -17  -1 272.020 38.5800   1
   9 -17   1 299.460 19.4900   1
  -9  17   1 377.590 34.4900   1
  -9 -17  -1 414.800 34.4000   1
   9 -17   1 228.760 34.3400   1
   9 -17  -1 378.840 34.8000   1
  -9 -17   1 305.790 24.2600   1
   9 -17  -1 286.670 19.7700   1
  -9 -17   1 341.050 39.1300   1
   0 -14  -6 1314.87 85.0400   1
   0  14  -6 933.720 88.6800   1
   0  14   6 1043.74 58.3100   1
   0 -14   6 1126.07 51.7100   1
   0  14   6 986.550 54.1300   1
   0 -14   6 1077.72 46.2200   1
   0 -14  -6 1237.74 72.6800   1
 -11  -6  -6 1479.16 80.5800   1
 -11   6  -6 1602.30 89.6300   1
  11  -6  -6 1682.36 66.5600   1
 -11  -6   6 1204.01 48.4100   1
 -11   6   6 1421.91 56.6900   1
  11  -6   6 1651.68 65.8200   1
 -11   6   6 1574.64 63.6300   1
  11   6  -6 1347.20 65.2900   1
 -11  -6  -6 1278.45 75.4000   1
 -10  -8  -6 315.510 40.6700   1
 -10  -8   6 227.890 18.0800   1
  10  -8   6 285.650 25.5100   1
  10  -8   6 219.630 19.3300   1
  10  -8  -6 304.840 26.0200   1
 -10  -8  -6 214.550 27.5400   1
 -10   8   6 261.690 22.0600   1
  10   8  -6 276.530 28.6800   1
   0  -6  -8 -2.1700 21.4600   1
   0  -6   8 43.0400 18.3800   1
   0   6   8 39.9800 20.7900   1
   0   6   8 36.5700 19.6800   1
  14   0   5 122.300 25.8700   1
  14   0  -5 175.820 26.9100   1
 -14   0   5 178.620 19.9100   1
 -14   0  -5 145.920 36.8900   1
  16  -8   0 112.420 23.0700   1
  16   8   0 154.070 28.4500   1
  16  -8   0 126.390 20.5400   1
 -16  -8   0 151.050 19.9500   1
 -13   6  -5 273.190 37.7800   1
 -13  -6  -5 199.720 29.8400   1
  13  -6  -5 196.120 26.0800   1
  13   6  -5 292.390 29.8300   1
 -13   6   5 280.480 22.8100   1
  13  -6   5 225.700 22.6600   1
 -13  -6   5 273.670 20.0100   1
 -13  -6  -5 253.290 38.6500   1
  -1  11   7 45.7600 20.6600   1
   1  11   7 -4.9200 32.9700   1
   1 -11  -7 79.9600 22.5900   1
  -1 -11  -7 5.54000 30.7700   1
   1  11   7 -17.350 24.4200   1
  -1  11   7 54.7600 19.6600   1
  -1 -11   7 110.210 21.5900   1
   1 -11  -7 -27.780 41.9000   1
   1 -11   7 1.86000 17.2300   1
  -1 -11  -7 -59.170 38.5200   1
  12 -11  -4 258.790 20.9100   1
 -12  11   4 231.390 23.5800   1
  12  11  -4 207.360 28.8000   1
  12 -11  -4 302.480 27.1300   1
  12 -11   4 188.520 17.2700   1
 -12 -11  -4 119.120 27.2600   1
 -12 -11  -4 295.490 31.3700   1
 -12 -11   4 208.450 18.8000   1
 -14 -11   2 64.9800 17.4500   1
 -14 -11  -2 45.3300 20.2400   1
  14 -11   2 74.8500 14.9700   1
 -14 -11  -2 94.1900 28.3500   1
 -14  11   2 122.410 18.0200   1
  14  11  -2 107.870 28.7900   1
  14 -11  -2 135.460 25.3200   1
  14 -11  -2 68.8000 16.4000   1
  11 -10   5 4.82000 15.7100   1
 -11 -10   5 29.9100 17.7200   1
  11  10  -5 28.3500 23.4200   1
  11 -10  -5 54.2800 22.9600   1
 -11 -10  -5 0.12000 22.0800   1
 -11  10   5 -19.840 18.7900   1
 -11 -10  -5 -4.5100 26.0700   1
  14 -12   0 568.550 30.2400   1
 -14 -12   0 465.490 52.9000   1
  14 -12   0 423.550 43.6200   1
 -14 -12   0 454.480 32.0200   1
   1 -14   6 -6.7000 15.5800   1
  -1 -14  -6 -18.880 29.9400   1
   1  14   6 8.95000 23.5700   1
  -1  14   6 45.7000 23.9300   1
  -1 -14  -6 23.6700 24.4600   1
   1 -14  -6 16.7700 30.2900   1
  -1 -14   6 -3.9800 13.7000   1
   1  14  -6 -22.780 40.9600   1
   1 -14   6 10.5100 13.8300   1
   1 -14  -6 5.99000 34.4200   1
  -3  -5  -8 163.060 27.2900   1
  -3   5   8 151.260 21.1800   1
   3  -5   8 218.600 24.3300   1
   3  -5  -8 148.840 26.9100   1
   3   5   8 176.100 26.7600   1
   3   5   8 156.880 23.7900   1
  -3  -5   8 186.770 19.5900   1
  -3   5   8 177.990 21.8700   1
  -3  -5  -8 179.620 47.0900   1
  15 -10   1 2225.27 73.4700   1
  15 -10   1 1829.83 76.2700   1
  15  10  -1 2033.20 97.3200   1
  15 -10  -1 1946.44 89.0400   1
  15 -10  -1 2312.77 77.3400   1
 -15 -10   1 1824.86 71.3400   1
 -15 -10  -1 2073.78 81.3800   1
 -15 -10  -1 2074.85 99.2100   1
 -14   1   5 267.400 21.1600   1
 -14  -1   5 235.770 19.9700   1
 -14  -1  -5 216.890 36.9600   1
  14  -1   5 152.330 26.4500   1
 -14   1  -5 232.610 35.7000   1
  14   1  -5 256.580 29.3600   1
  14   1   5 197.960 29.1400   1
  14  -1  -5 241.050 28.3300   1
   5  -2  -8 480.630 32.7100   1
  -5   2   8 458.040 34.2500   1
  -5  -2  -8 633.270 54.5500   1
  -5  -2   8 588.760 32.1600   1
  -5   2   8 567.750 32.1900   1
   5  -2   8 613.210 35.6600   1
   5   2   8 480.050 33.1500   1
  -4   4   8 368.800 30.1300   1
   4  -4  -8 369.530 32.6200   1
   4   4   8 383.150 27.7800   1
  -4   4   8 443.070 28.3400   1
   4  -4   8 434.560 28.1100   1
  -4  -4   8 419.510 29.5500   1
  -4  -4  -8 444.220 52.1300   1
   9  -4   7 117.350 21.7800   1
  -9   4  -7 126.470 42.4900   1
  -9  -4  -7 71.9200 40.2400   1
  -9  -4   7 92.6800 19.2200   1
  -9   4   7 130.160 18.6400   1
  -9   4   7 101.520 17.7900   1
   9   4  -7 79.0200 20.7400   1
   9  -4  -7 125.790 24.5900   1
   1  -6   8 148.080 20.2900   1
  -1   6   8 142.240 22.3000   1
   1   6   8 140.840 20.2400   1
  -1   6   8 128.510 21.8500   1
  -1  -6   8 163.970 19.0900   1
   1   6   8 144.120 23.6800   1
   1  -6  -8 132.450 25.5200   1
  -1  -6  -8 187.970 26.3600   1
   7 -14  -5 147.520 38.8100   1
  -7 -14  -5 101.530 30.6500   1
  -7 -14   5 98.4300 14.6800   1
   7 -14   5 121.420 17.2300   1
  -7  14   5 99.1700 24.0900   1
  -7 -14  -5 95.0900 22.8400   1
  17  -4  -1 311.560 31.5900   1
  17  -4   1 363.330 39.6600   1
  17   4  -1 223.250 28.1300   1
  17  -4   1 344.660 28.8500   1
  17  -4  -1 352.600 28.0600   1
 -17  -4   1 341.120 28.3800   1
 -17  -4  -1 322.170 28.0600   1
  17   4   1 288.710 35.2100   1
  -2 -16   5 422.980 25.2000   1
   2 -16   5 482.400 29.3100   1
   2  16  -5 397.650 54.8300   1
  -2  16   5 410.820 34.8600   1
   2  16   5 237.710 40.5200   1
   2 -16  -5 342.170 33.7200   1
  -2 -16  -5 370.280 39.3900   1
  -2 -16  -5 537.920 57.0800   1
  -4 -19   2 959.750 49.2700   1
   4 -19  -2 974.260 41.7600   1
  -4  19   2 944.290 56.0200   1
   4 -19  -2 858.340 55.8400   1
  -4 -19  -2 1044.88 67.2700   1
  -4 -19   2 962.940 62.8200   1
   4 -19  -2 785.000 67.7100   1
  -4 -19  -2 759.420 70.1900   1
  -4 -19  -2 1011.01 60.4300   1
  -2 -20   0 395.010 38.6200   1
   2 -20   0 394.820 42.9700   1
   2  20   0 469.330 62.1900   1
  -2  20   0 456.020 52.0800   1
  -2  20   0 303.980 31.9300   1
   7 -17   3 223.430 20.3900   1
  -7  17   3 283.290 29.7500   1
   7 -17  -3 279.090 34.6700   1
  -7 -17  -3 302.780 32.3200   1
  -7 -17   3 230.980 29.6500   1
  -7 -17  -3 145.950 32.3100   1
  -7 -17  -3 271.290 31.8400   1
  -7 -17   3 198.220 19.8600   1
  -7 -17   3 234.720 20.0100   1
   7 -17  -3 302.480 21.5400   1
 -17   0   2 5.82000 14.1100   1
  17   0   2 -46.090 21.8400   1
  17   0   2 10.9700 20.3900   1
  17   0  -2 -25.990 21.8800   1
  17   0  -2 30.5700 25.0100   1
 -17   0  -2 -13.040 21.7900   1
 -15  -4   4 245.680 21.8400   1
 -15   4   4 243.600 19.3800   1
 -15   4  -4 313.630 40.9900   1
 -15  -4   4 282.960 21.3200   1
  15  -4  -4 279.570 28.4600   1
  15  -4   4 265.770 23.3800   1
  15   4  -4 260.860 27.8800   1
  15  -4  -4 289.240 29.1400   1
 -15  -4  -4 294.250 33.7800   1
 -15  -4  -4 209.310 28.4000   1
   0 -20   1 -6.1500 21.6200   1
   0 -20  -1 -0.7000 24.9000   1
   0  20  -1 3.01000 45.7000   1
   0  20   1 -34.090 37.8700   1
 -12  -3   6 566.690 30.1700   1
 -12  -3  -6 600.680 52.3400   1
 -12   3  -6 592.680 54.5500   1
  12   3  -6 464.970 37.3300   1
 -12   3   6 520.970 31.6800   1
  12  -3  -6 637.100 42.7900   1
  12  -3   6 457.380 30.3600   1
 -12   3   6 664.720 35.6300   1
  16  -4   3 578.910 36.6300   1
 -16  -4  -3 768.340 55.4400   1
 -16  -4   3 726.250 39.7200   1
  16  -4  -3 796.790 50.1800   1
  16   4  -3 705.830 47.3700   1
  16  -4  -3 605.080 40.0200   1
 -16  -4  -3 725.590 60.4900   1
  17   1   2 419.940 36.1200   1
  17  -1   2 387.470 34.4400   1
  17   1   2 400.430 39.4100   1
 -17   1   2 387.860 32.2300   1
  17  -1  -2 418.970 35.6400   1
 -17  -1   2 383.430 27.5500   1
  17   1  -2 397.760 39.4200   1
  17  -1  -2 427.750 38.1300   1
 -17   1  -2 356.710 35.8800   1
  17  -1   2 375.240 38.1700   1
  17   1  -2 424.740 38.0300   1
 -17  -1  -2 452.490 39.0800   1
  14  -2   5 231.960 26.3600   1
  14   2   5 135.390 29.0300   1
 -14  -2   5 188.040 19.9000   1
 -14  -2  -5 131.170 26.5700   1
  14  -2  -5 288.620 26.4500   1
  14   2  -5 193.620 23.8300   1
 -14   2   5 203.450 18.5700   1
 -14  -2  -5 200.660 32.8600   1
 -14   2  -5 178.680 40.1300   1
   1 -20  -1 457.110 43.5800   1
  -1 -20   1 382.000 41.4600   1
  -1 -20  -1 401.100 42.2400   1
   1 -20  -1 432.160 40.5300   1
   1  20  -1 430.220 60.9900   1
   1  20   1 379.270 57.6900   1
  -1  20  -1 595.590 69.6000   1
  -1  20   1 430.000 49.4900   1
  -1  20   1 475.130 40.4800   1
   2 -11   7 3461.95 110.320   1
  -2 -11   7 3170.45 99.8500   1
  -2 -11  -7 3595.74 146.630   1
   2 -11  -7 2879.40 108.160   1
  -2 -11  -7 2936.27 112.310   1
   2  11   7 2974.99 116.570   1
  -2  11   7 3436.26 125.280   1
   2  11   7 3207.14 117.780   1
  -2  11   7 3009.25 102.420   1
   2 -14  -6 313.080 38.1400   1
  -2 -14   6 351.920 24.7100   1
   2 -14  -6 235.360 39.0600   1
   2 -14   6 330.780 25.3700   1
  -2 -14  -6 273.570 42.5300   1
  -2 -14  -6 254.700 30.9700   1
   2  14  -6 235.080 46.5700   1
   2  14   6 340.090 35.2500   1
  -2  14   6 262.100 28.6000   1
   2 -14   6 293.230 20.5800   1
  17  -5   0 229.630 22.4900   1
  17   5   0 119.140 23.5900   1
 -17  -5   0 201.650 22.0800   1
  17  -5   0 213.720 27.3900   1
 -11 -14   3 10.5800 19.4200   1
 -11 -14   3 -3.7200 26.6900   1
 -11 -14  -3 32.0900 28.0300   1
 -11  14   3 59.9400 21.2900   1
  11 -14   3 45.0500 14.7400   1
  11 -14  -3 50.3400 19.1900   1
  11 -14  -3 27.5000 18.7200   1
 -11 -14  -3 75.2100 22.5300   1
   2   6   8 76.1600 21.3300   1
  -2  -6  -8 65.3100 29.3300   1
   2  -6  -8 137.990 26.3000   1
  -2  -6   8 71.7000 17.5200   1
   2  -6   8 122.000 19.0800   1
  -2   6   8 104.370 21.1600   1
   2   6   8 98.5100 23.1900   1
  -2   6   8 75.8000 20.5700   1
  -2  -6  -8 147.070 48.8800   1
  11 -15  -2 182.630 18.9500   1
 -11  15   2 160.000 22.9700   1
  11 -15   2 147.390 18.6900   1
 -11 -15  -2 189.840 25.6500   1
 -11 -15   2 138.010 18.5100   1
 -11 -15   2 137.080 26.9000   1
 -11 -15  -2 131.520 27.9800   1
  11 -15  -2 146.730 24.1600   1
  -5 -13  -6 437.890 48.9000   1
  -5 -13  -6 332.560 33.2100   1
   5 -13  -6 327.990 33.3000   1
   5 -13   6 365.080 26.6100   1
   5 -13   6 414.820 25.5300   1
  -5 -13   6 297.760 22.0200   1
  -5  13   6 304.600 24.6400   1
  -6 -19   0 54.6400 18.6000   1
  -6  19   0 74.1500 20.1800   1
   6 -19   0 68.9000 21.5100   1
   6 -19   0 50.4700 21.6500   1
  -6 -19   0 54.4500 25.0400   1
   6 -19   0 99.3500 16.3200   1
  -5 -18  -3 577.630 100.750   1
  -5 -18   3 464.810 30.9900   1
  -5 -18   3 452.690 29.4000   1
   5 -18  -3 395.390 24.7800   1
  -5  18   3 474.170 36.2000   1
   5 -18  -3 466.270 40.4000   1
  -5 -18  -3 392.960 34.3700   1
  -5 -18  -3 263.760 41.6300   1
   5 -18   3 515.680 30.2900   1
  -8 -18   0 1015.84 53.0100   1
   8 -18   0 917.560 57.9300   1
  -8  18   0 944.320 53.1100   1
   8 -18   0 1004.53 41.9300   1
   8 -18   0 776.460 60.0100   1
  -8 -18   0 972.580 67.9100   1
  16  -8   1 157.930 26.9300   1
  16  -8   1 110.830 19.9000   1
  16   8  -1 63.0100 21.9400   1
 -16  -8  -1 79.3500 30.8100   1
  16  -8  -1 97.7900 21.1900   1
 -16  -8  -1 110.560 21.6300   1
 -16  -8   1 116.350 20.9600   1
  16  -8  -1 92.8200 19.5500   1
  -5   3   8 213.080 23.8000   1
   5  -3   8 178.480 21.9100   1
   5   3   8 210.470 23.3100   1
  -5   3   8 172.820 21.6000   1
   5  -3  -8 216.080 27.2700   1
  -5  -3   8 208.210 20.9500   1
  -5  -3  -8 240.490 43.9600   1
 -10 -15   3 159.200 31.7500   1
 -10 -15  -3 144.090 26.3600   1
  10 -15  -3 147.030 23.8600   1
 -10  15   3 124.730 19.5600   1
  10 -15   3 200.790 19.9600   1
  10 -15  -3 177.040 18.9400   1
 -10 -15   3 173.040 18.2600   1
 -10 -15   3 133.720 19.2800   1
 -10 -15  -3 136.160 23.6400   1
  14 -12   1 370.960 23.5900   1
 -14  12   1 386.960 25.2700   1
  14 -12  -1 236.150 35.0000   1
 -14 -12   1 327.070 41.8300   1
 -14 -12  -1 251.310 38.7900   1
 -14 -12   1 289.190 26.8600   1
  14 -12  -1 300.110 20.7400   1
 -14 -12  -1 350.680 27.9100   1
   6  -9  -7 4389.80 110.570   1
  -6   9   7 4495.46 99.5200   1
  -6   9   7 3772.26 118.640   1
  -6  -9   7 3392.10 104.690   1
   6  -9   7 4245.42 87.5300   1
  -6  -9  -7 4077.83 133.300   1
 -12  14   2 633.130 35.3600   1
  12 -14   2 565.090 29.0800   1
  12 -14  -2 603.720 39.5300   1
 -12 -14   2 480.140 46.9800   1
 -12 -14  -2 631.340 40.6200   1
 -12 -14   2 553.810 34.6600   1
 -12 -14  -2 678.190 50.7300   1
  12 -14  -2 680.310 35.9000   1
  17   2  -2 147.640 26.7300   1
  17  -2  -2 134.620 22.8600   1
  17   2   2 166.380 31.2100   1
  17  -2   2 103.050 25.9100   1
  17  -2   2 127.220 22.2400   1
  17  -2  -2 137.980 28.4900   1
 -17  -2   2 168.380 21.0800   1
 -17  -2  -2 165.180 24.6000   1
 -17   2  -2 141.690 27.1300   1
  -7   8   7 1327.89 57.1800   1
  -7   8   7 1402.38 58.7400   1
  -7  -8   7 1302.55 54.4800   1
  -7  -8  -7 1304.67 66.3200   1
   7  -8   7 1327.21 55.3800   1
   7  -8  -7 1472.91 65.6000   1
  -7  -8  -7 1396.31 73.8900   1
  16  -7  -2 987.130 57.6600   1
 -16  -7  -2 876.720 59.3700   1
  16   7  -2 919.660 59.4300   1
  16  -7   2 1024.98 43.9500   1
  16  -7  -2 1085.30 48.9000   1
 -16  -7   2 1064.42 51.7700   1
 -16  -7  -2 1023.84 57.1700   1
   2  20   1 443.390 64.5500   1
  -2  20  -1 615.190 56.7800   1
  -2  20   1 451.010 44.8200   1
   2  20  -1 486.440 65.4200   1
   2 -20  -1 508.840 55.0000   1
  -2 -20   1 466.770 38.1900   1
  -2 -20  -1 515.450 46.6100   1
   2 -20  -1 543.130 44.2000   1
  14  10  -3 380.520 36.4200   1
 -14  10   3 550.610 30.7100   1
  14 -10   3 494.050 28.1000   1
  14 -10  -3 483.780 30.1900   1
 -14 -10  -3 562.260 39.7400   1
  14 -10  -3 458.100 40.7100   1
 -14 -10   3 507.960 31.9400   1
 -14 -10  -3 436.410 40.0900   1
  -3 -16   5 9.85000 14.8500   1
  -3 -16  -5 -25.970 26.6000   1
   3 -16   5 21.4400 18.2700   1
  -3 -16  -5 13.9700 21.1300   1
  -3  16   5 -6.8800 21.4400   1
   3  16   5 6.36000 35.1600   1
   3 -16  -5 33.7300 37.0800   1
 -12 -13   3 571.120 36.2800   1
 -12 -13   3 399.380 49.4500   1
 -12 -13  -3 394.560 35.2200   1
  12 -13  -3 528.550 35.4700   1
 -12  13   3 569.970 36.4200   1
 -12 -13  -3 546.090 38.4600   1
  12 -13   3 515.550 27.5400   1
  12 -13  -3 564.270 32.5900   1
 -10 -16   2 177.140 33.9900   1
  10 -16  -2 158.910 18.0400   1
 -10  16   2 109.330 21.8500   1
  10 -16  -2 123.950 19.6400   1
  10 -16   2 144.480 16.7200   1
 -10 -16  -2 158.540 29.4000   1
 -10 -16   2 137.450 27.6800   1
  10 -16   2 152.850 28.0000   1
 -10 -16  -2 108.100 21.4400   1
  -7 -18   2 47.1100 21.1400   1
  -7 -18   2 29.8800 17.8500   1
  -7 -18  -2 9.01000 21.3100   1
   7 -18  -2 6.45000 21.2400   1
  -7  18   2 99.7800 26.0300   1
   7 -18  -2 83.9200 17.9600   1
  -7 -18  -2 28.9000 23.8700   1
   7 -18   2 64.1200 18.8300   1
  -7 -18  -2 74.1900 25.8400   1
  14   3  -5 1488.87 63.9500   1
 -14   3  -5 1374.18 79.6900   1
 -14  -3  -5 1344.85 72.7600   1
 -14  -3   5 1378.95 54.1000   1
 -14   3   5 1412.45 56.2400   1
  14   3   5 1074.81 67.9900   1
  14  -3   5 1261.57 60.2700   1
  14  -3  -5 1387.47 67.1100   1
 -14  -3  -5 1130.05 65.9600   1
   3 -20   0 641.180 35.5700   1
  -3 -20   0 505.240 49.8500   1
  -3  20   0 545.190 48.0800   1
   3 -20   0 596.930 48.0100   1
   3  20   0 475.350 62.7900   1
  -8 -11  -6 1741.19 98.9500   1
  -8 -11   6 1472.08 54.7000   1
   8 -11   6 1863.84 64.9000   1
  -8  11   6 1658.01 67.8300   1
   8 -11  -6 1446.40 69.9600   1
  -8 -11  -6 1326.02 73.3900   1
   8 -11   6 1537.67 65.4700   1
   0  19   3 273.340 30.3800   1
   0 -19  -3 272.480 45.8100   1
   0 -19  -3 275.960 31.9500   1
   0  19  -3 306.160 56.3900   1
   0  19   3 187.300 37.6600   1
   7 -16  -4 317.360 28.8000   1
  -7 -16  -4 355.560 40.0500   1
   7 -16   4 369.190 25.8300   1
  -7  16   4 314.450 30.6200   1
   7 -16  -4 273.620 19.6300   1
  -7 -16   4 270.810 21.7500   1
  -7 -16  -4 324.500 35.6900   1
   4  -5  -8 416.030 31.0500   1
   4   5   8 302.450 30.5800   1
  -4   5   8 424.570 30.8600   1
   4   5   8 486.020 34.6500   1
   4  -5   8 471.280 31.4300   1
  -4   5   8 504.650 33.1500   1
  -4  -5   8 450.500 29.8500   1
  -4  -5  -8 540.100 55.5400   1
  -4  -5  -8 282.320 28.7300   1
  12  -4  -6 479.430 45.2400   1
 -12   4  -6 772.120 62.7800   1
 -12  -4  -6 374.320 38.9100   1
  12   4  -6 603.450 40.4500   1
 -12   4   6 566.950 32.7500   1
  12  -4   6 511.780 36.5200   1
 -12   4   6 630.280 34.4700   1
 -12  -4   6 584.740 31.0400   1
 -12  -4  -6 652.530 63.2800   1
  -9   5   7 432.460 27.2900   1
   9  -5  -7 387.340 29.8100   1
   9   5  -7 400.650 34.4400   1
  -9  -5  -7 329.950 31.8400   1
  -9  -5  -7 470.880 45.5800   1
  -9  -5   7 461.030 30.2300   1
  -9   5   7 431.930 27.8300   1
   9  -5   7 466.010 30.7700   1
 -10   0  -7 434.950 49.7400   1
  10   0  -7 309.510 31.4900   1
 -10   0   7 289.230 21.3700   1
  17  -5  -1 37.3300 21.3400   1
  17  -5   1 53.2400 21.6200   1
  17   5  -1 27.9600 22.5000   1
  17  -5   1 25.4300 20.7400   1
  17  -5  -1 90.4500 19.7300   1
 -17  -5   1 20.6400 16.4600   1
 -17  -5  -1 15.0000 17.9300   1
  17   5   1 27.3200 24.6400   1
 -15  -8   3 1447.92 56.2400   1
  15  -8  -3 1436.31 56.4000   1
  15  -8   3 1260.15 50.6700   1
  15   8  -3 1175.29 67.1800   1
 -15  -8  -3 1390.86 66.3800   1
  15  -8  -3 1340.78 73.1400   1
 -15  -8  -3 1305.74 75.0700   1
  -9  10   6 207.550 40.6300   1
   9 -10   6 154.850 18.1800   1
  -9 -10   6 131.170 17.8000   1
  -9 -10  -6 86.8100 30.6400   1
   9  10  -6 111.290 25.4700   1
   9 -10  -6 190.400 27.4500   1
  -9 -10  -6 165.900 26.9800   1
   9 -10   6 179.530 20.9200   1
  -3  11   7 120.070 27.2800   1
  -3 -11  -7 368.770 45.6400   1
   3  11   7 230.420 28.9300   1
   3 -11  -7 217.620 30.4700   1
  -3 -11  -7 186.270 26.4300   1
  -3 -11   7 215.670 19.5500   1
   3 -11   7 210.220 21.5700   1
  -3  11   7 250.220 25.8700   1
   5 -17   4 209.480 21.0700   1
   5 -17  -4 177.810 17.3800   1
  -5 -17   4 150.470 16.3700   1
  -5 -17  -4 196.670 32.4700   1
   5 -17  -4 220.650 25.1500   1
  -5 -17  -4 190.730 23.8600   1
  -5  17   4 151.750 23.4200   1
   5  17   4 113.020 51.0600   1
  -1 -19  -3 45.9800 31.9000   1
   1 -19  -3 87.9400 32.6400   1
  -1 -19  -3 70.1400 23.2000   1
   1 -19  -3 268.440 69.0200   1
   1  19  -3 94.9800 48.6400   1
   1  19   3 29.3200 38.0700   1
  -1  19  -3 78.8300 46.8300   1
  -1  19   3 104.730 29.4100   1
  -5 -10  -7 1532.47 83.7100   1
  -5 -10   7 1421.90 57.1000   1
  -5  10   7 1274.04 57.0400   1
   5 -10   7 1430.31 56.7000   1
  -5  10   7 1552.22 66.8300   1
   5 -10  -7 1643.17 81.3400   1
  -5 -10  -7 1248.51 80.4300   1
  -3 -14   6 534.800 29.2900   1
   3 -14   6 583.540 31.2200   1
  -3  14   6 587.770 38.2600   1
  -3 -14  -6 702.140 53.4400   1
   3 -14  -6 626.780 44.9700   1
  -3 -14  -6 491.280 51.5300   1
 -10  -1  -7 75.5700 37.4400   1
 -10  -1   7 31.6000 17.8700   1
 -10   1   7 37.3700 17.8300   1
 -10   1   7 65.5700 22.5400   1
  10  -1  -7 69.1000 21.4000   1
  10   1  -7 32.9900 22.8100   1
 -10   1  -7 11.3200 44.5100   1
  -6 -19  -1 50.2400 22.1800   1
  -6 -19   1 50.2400 17.9800   1
   6 -19  -1 41.0800 14.7700   1
   6 -19   1 56.9700 15.9600   1
  -6  19   1 58.4100 21.2900   1
  -6 -19   1 54.9000 26.5400   1
   6 -19  -1 21.3300 20.9100   1
  -6 -19  -1 21.4100 19.1800   1
   6 -19  -1 25.8600 28.2200   1
   6   0  -8 733.370 46.9900   1
  -6   0   8 1146.78 52.0700   1
  -6   0  -8 1457.32 84.8600   1
   6   0   8 1043.08 53.8500   1
  -6   0   8 935.760 44.4900   1
  -8  18   1 235.490 24.6500   1
   8 -18   1 166.170 29.8900   1
   8 -18  -1 191.300 35.1800   1
  -8 -18   1 181.230 34.4500   1
  -8 -18  -1 251.140 22.4400   1
  -8 -18   1 229.390 20.3400   1
   8 -18  -1 220.670 27.2800   1
   8 -18  -1 255.780 20.5700   1
  -8 -18  -1 207.360 30.4800   1
   8 -18   1 300.530 22.7300   1
   8  -7  -7 321.250 31.3300   1
  -8  -7  -7 168.250 24.1400   1
  -8  -7  -7 272.790 44.8300   1
   8  -7   7 251.150 25.3700   1
  -8   7   7 337.400 27.8200   1
  -8  -7   7 242.800 20.7100   1
  -8   7   7 295.400 24.4900   1
  -3   6   8 1918.00 77.0300   1
   3  -6   8 2376.60 85.5000   1
  -3  -6   8 2293.51 79.4700   1
  -3   6   8 2098.02 73.0300   1
   3   6   8 1955.44 74.4300   1
  -3  -6  -8 1794.59 87.9300   1
   3   6   8 1697.73 84.4500   1
   3  -6  -8 1974.14 86.2400   1
  -3  -6  -8 2410.08 125.430   1
  17  -3   2 40.9500 24.1900   1
  17  -3  -2 96.9200 25.3000   1
  17   3   2 77.4900 31.8300   1
 -17  -3   2 61.4500 15.1300   1
 -17  -3  -2 80.7900 23.9200   1
  17   3  -2 100.750 29.6000   1
  17  -3  -2 97.6800 24.6400   1
  17  -3   2 58.9200 24.1800   1
  17   3   2 79.4800 29.8800   1
 -15  -5  -4 298.720 33.6900   1
  15  -5   4 332.190 26.7300   1
 -15  -5  -4 316.530 37.4100   1
  15   5  -4 229.000 29.1200   1
  15  -5  -4 269.050 24.7400   1
 -15  -5   4 328.840 26.1400   1
  15  -5  -4 273.280 25.9000   1
 -15  -5   4 342.310 22.5700   1
   9 -16  -3 164.250 25.4200   1
  -9 -16  -3 66.8600 23.7900   1
  -9  16   3 159.370 20.8100   1
   9 -16   3 135.750 17.9600   1
   9 -16  -3 146.290 16.9700   1
  -9 -16   3 102.630 30.8000   1
  -9 -16   3 184.440 21.9900   1
  -9 -16  -3 167.360 26.9900   1
 -12   9   5 510.680 29.9700   1
 -12  -9  -5 497.870 43.1500   1
  12  -9  -5 538.050 34.3600   1
 -12  -9  -5 631.210 49.9300   1
 -12  -9   5 592.010 32.5600   1
  12  -9   5 507.260 29.1100   1
  12   9  -5 451.350 41.9800   1
   7 -12   6 64.8600 15.6100   1
  -7 -12   6 55.0300 14.7900   1
  -7 -12  -6 46.9800 32.9500   1
   7 -12   6 36.9900 15.6100   1
  -7  12   6 81.0900 21.7300   1
  -7 -12  -6 72.7600 22.4000   1
   7 -12  -6 53.4800 21.8100   1
 -14  -8  -4 272.870 30.8300   1
  14   8  -4 222.940 27.6800   1
  14  -8  -4 270.600 22.0500   1
 -14  -8  -4 330.550 32.2200   1
  14  -8   4 301.540 23.1700   1
 -14  -8   4 300.860 25.0700   1
  14  -8  -4 346.120 57.5900   1
 -14   8   4 280.850 23.8300   1
 -14  -8   4 267.400 22.3000   1
  -6   1   8 -11.880 19.0400   1
  -6  -1   8 27.7900 17.7500   1
  -6  -1  -8 13.6300 45.0900   1
  -6  -1   8 7.10000 13.1700   1
   6  -1  -8 -23.430 20.5300   1
   6   1  -8 -8.0300 20.5100   1
  -6   1   8 20.5600 16.4200   1
   6   1   8 -6.2900 21.2000   1
   6  -1   8 -7.2400 18.0400   1
  13  10  -4 171.130 26.0000   1
  13 -10  -4 202.720 25.6100   1
 -13 -10  -4 179.770 29.5500   1
 -13 -10   4 222.320 21.0900   1
  13 -10  -4 170.220 18.5400   1
  13 -10   4 199.030 17.8400   1
 -13  10   4 207.400 22.3700   1
 -11  -7  -6 32.9800 35.6300   1
  11   7  -6 14.9300 20.6900   1
 -11  -7  -6 -10.790 24.7800   1
  11  -7  -6 29.6300 20.7800   1
 -11  -7   6 46.8000 17.0000   1
  11  -7   6 35.8400 13.8800   1
  11  -7   6 19.4000 16.3200   1
 -11   7   6 36.5900 15.9100   1
 -16  -5  -3 766.540 58.3300   1
  16  -5   3 819.080 41.7000   1
  16  -5  -3 815.530 51.1300   1
  16   5  -3 741.890 45.8400   1
  16  -5  -3 801.820 44.7200   1
 -16  -5   3 734.010 39.1900   1
 -16  -5  -3 676.800 50.0400   1
   0  18   4 159.140 31.0200   1
   0 -18  -4 166.020 28.2600   1
   0  18  -4 203.350 48.1000   1
 -12 -15   0 366.240 30.0300   1
 -12 -15   0 349.340 40.7500   1
  12 -15   0 356.040 24.7500   1
 -12  15   0 389.760 28.4300   1
  12 -15   0 274.330 33.3700   1
 -13 -13  -2 491.620 33.1200   1
 -13 -13   2 400.980 29.6600   1
 -13 -13  -2 410.750 39.4800   1
  13 -13   2 454.170 26.7700   1
 -13  13   2 405.260 28.1400   1
 -13 -13   2 373.260 45.8400   1
  13 -13  -2 534.490 36.6500   1
  13 -13  -2 526.560 30.4800   1
   0  -7   8 -21.390 17.6800   1
   0   7   8 -3.2400 19.9700   1
   0   7   8 5.28000 20.3800   1
   0  -7  -8 -4.6600 21.2000   1
   5  -4   8 2552.25 86.8400   1
  -5   4   8 2553.63 89.9000   1
  -5  -4  -8 2953.41 134.690   1
   5   4   8 2716.44 95.8900   1
  -5  -4   8 2273.63 74.4100   1
  -5   4   8 2719.69 95.5400   1
   5  -4  -8 2347.59 86.3200   1
   6 -15   5 152.490 19.6200   1
  -6  15   5 113.650 20.2000   1
  -6 -15  -5 118.660 26.7600   1
  -6 -15   5 121.150 15.1800   1
   6 -15  -5 77.0300 20.7700   1
  -6 -15  -5 70.0200 25.4900   1
 -13  -7   5 19.2200 15.0900   1
 -13  -7  -5 18.1200 31.8400   1
  13  -7   5 -3.3600 16.4400   1
 -13  -7  -5 6.09000 24.4100   1
  13  -7  -5 -13.290 24.7200   1
  13   7  -5 1.80000 24.1000   1
 -13   7   5 25.5700 17.8900   1
 -11  16   0 9.37000 13.1500   1
  11 -16   0 14.0000 18.1500   1
 -11 -16   0 -1.4900 22.1700   1
  11 -16   0 -14.770 15.5000   1
 -11 -16   0 -22.030 18.3700   1
   1 -18  -4 261.910 28.4200   1
  -1 -18  -4 123.780 27.5100   1
   1  18  -4 170.990 49.2400   1
  -1  18  -4 216.070 44.1200   1
   1  18   4 216.930 37.5700   1
  -1  18   4 213.010 28.5500   1
   1 -18  -4 180.010 19.8300   1
   5 -19  -2 820.660 44.3700   1
   5 -19   2 949.530 42.9800   1
  -5 -19  -2 621.060 61.6900   1
   5 -19  -2 633.570 74.5100   1
  -5 -19   2 514.330 54.9900   1
  -5 -19  -2 707.870 52.3000   1
   5 -19  -2 897.160 56.0300   1
  -5  19   2 626.990 46.3600   1
  -5 -19  -2 692.280 46.5900   1
  -5 -19   2 594.970 34.3100   1
  -1  -7   8 387.130 27.4600   1
   1  -7   8 428.270 29.5500   1
  -1  -7  -8 383.060 36.1800   1
   1  -7  -8 266.260 31.0100   1
  -1  -7  -8 422.180 52.8500   1
   1   7   8 322.700 30.2900   1
  -1   7   8 315.180 36.7800   1
   1   7   8 348.100 28.7700   1
  -1   7   8 299.440 40.8600   1
 -10  -2   7 583.700 36.8900   1
 -10  -2  -7 787.680 60.9000   1
  10  -2  -7 564.680 42.5600   1
  10   2  -7 649.060 44.7800   1
 -10   2  -7 622.730 59.7400   1
 -10   2   7 592.750 36.2000   1
 -10   2   7 605.590 36.6600   1
   3  20   1 16.4100 44.6500   1
   3 -20   1 62.1700 18.6400   1
   3 -20  -1 45.1900 17.1600   1
  -3 -20   1 74.6500 16.3800   1
  -3  20   1 30.2500 22.5600   1
   3 -20  -1 38.9500 25.1900   1
  -3 -20   1 43.1500 23.5800   1
  -3 -20  -1 40.3800 21.7000   1
   3 -20  -1 68.1700 26.3300   1
  -2 -19   3 89.1800 17.1800   1
  -2 -19  -3 60.9700 34.1100   1
  -2  19   3 142.100 27.0000   1
  -2 -19  -3 103.120 24.5500   1
   2 -19   3 162.310 23.9500   1
   2 -19  -3 115.260 20.3700   1
  -2  19  -3 152.700 42.3700   1
   2  19   3 77.8500 39.2100   1
   2  19  -3 126.110 49.3000   1
   2 -19  -3 70.3800 26.4100   1
   6   2   8 1474.20 70.6000   1
   6  -2   8 1684.48 76.9200   1
   6   2  -8 1079.09 60.4000   1
   6  -2  -8 1545.38 75.8700   1
  -6  -2   8 1389.14 61.5800   1
  -6  -2  -8 1648.18 97.2900   1
  -6   2   8 1295.96 68.9200   1
  -6   2   8 1466.35 64.2600   1
 -17  -6   0 768.810 47.7200   1
  17   6   0 687.160 53.3500   1
  17  -6   0 798.140 44.3300   1
  17  -6   0 1020.95 61.4500   1
  14  -4   5 78.4200 21.4100   1
  14   4  -5 61.1300 25.2200   1
 -14   4  -5 24.3400 31.4000   1
  14  -4  -5 44.8200 22.9800   1
 -14  -4  -5 68.9700 23.1900   1
 -14  -4   5 90.8700 16.5000   1
 -14   4   5 94.5900 15.8800   1
 -14  -4  -5 64.9100 27.8400   1
 -15 -11   0 44.6300 26.1900   1
 -15 -11   0 13.2400 17.4700   1
  15 -11   0 86.8700 23.8900   1
  15 -11   0 39.2600 17.2700   1
   9 -17  -2 535.360 30.5000   1
  -9 -17  -2 582.180 41.1700   1
  -9 -17   2 555.230 33.9300   1
   9 -17  -2 585.840 49.3900   1
  -9  17   2 697.470 49.1200   1
   9 -17   2 622.740 34.1800   1
  -9 -17   2 492.300 52.3700   1
  -9 -17  -2 330.980 41.4600   1
  -9 -17  -2 506.650 53.5800   1
  13 -12  -3 160.960 21.9900   1
 -13 -12  -3 97.7000 27.9300   1
 -13 -12  -3 76.2500 23.2800   1
  13 -12   3 92.8400 15.1900   1
 -13  12   3 94.3900 18.2900   1
 -13 -12   3 84.7500 19.4000   1
  13 -12  -3 119.920 18.6700   1
  13  12  -3 105.940 27.6400   1
   9 -13  -5 90.1500 24.9400   1
  -9 -13   5 25.0000 24.4700   1
  -9 -13  -5 59.0600 21.3800   1
  -9  13   5 89.7300 23.5900   1
  -9 -13   5 50.8200 17.4400   1
  -9 -13  -5 124.080 26.9900   1
   9 -13   5 81.7800 16.5900   1
  10 -12  -5 437.850 34.2700   1
 -10 -12  -5 351.510 35.6900   1
  10  12  -5 338.640 43.1100   1
 -10 -12  -5 363.190 39.6200   1
 -10 -12   5 329.200 24.6000   1
 -10  12   5 347.260 25.9800   1
 -10  -9  -6 785.010 62.7600   1
  10   9  -6 673.730 51.5600   1
  10  -9  -6 949.010 53.0900   1
 -10  -9  -6 642.960 59.4300   1
 -10   9   6 821.170 43.2700   1
  10  -9   6 771.760 45.4800   1
 -10  -9   6 605.180 32.8800   1
  13 -14   0 50.5000 19.5400   1
  13 -14   0 55.2200 15.4800   1
 -13  14   0 58.3000 28.1700   1
 -13 -14   0 77.4600 29.3100   1
 -13 -14   0 40.3200 16.2300   1
 -16  -9   0 92.9200 31.5100   1
  16  -9   0 118.170 25.0400   1
 -16  -9   0 71.1500 20.7100   1
  16  -9   0 104.920 19.7800   1
  10 -14   4 707.100 36.9000   1
  10 -14  -4 507.540 29.2400   1
 -10  14   4 801.340 48.2200   1
  10 -14  -4 622.950 39.7600   1
 -10 -14  -4 624.100 52.4200   1
 -10 -14  -4 677.050 46.5600   1
 -10 -14   4 501.690 30.8100   1
 -10 -14   4 512.300 51.7500   1
  -4  16   5 1485.81 71.8500   1
  -4 -16  -5 1331.18 102.570   1
   4 -16   5 1444.03 63.6700   1
  -4 -16  -5 1533.11 97.4700   1
   4 -16  -5 1546.86 79.1500   1
  -4 -16   5 1140.70 52.4300   1
  15 -10   2 9.19000 17.0200   1
 -15 -10  -2 -12.880 28.1100   1
  15 -10  -2 -5.0700 19.4800   1
 -15 -10  -2 -6.5700 23.3400   1
 -15 -10   2 24.2800 17.0100   1
  15  10  -2 -6.0000 22.7400   1
 -11  13   4 70.4400 21.3500   1
 -11 -13  -4 2.55000 29.4900   1
 -11 -13   4 69.0700 16.2600   1
  11 -13  -4 40.1000 13.2100   1
  11 -13   4 44.8900 15.5700   1
  11 -13  -4 67.2600 23.8300   1
 -11 -13  -4 54.3000 24.5100   1
   2 -18  -4 504.610 41.2200   1
   2  18   4 432.360 64.4200   1
  -2  18  -4 652.280 72.6300   1
  -2  18   4 608.470 44.6300   1
   2 -18   4 584.710 34.9900   1
   2 -18  -4 483.640 54.4000   1
  -2 -18  -4 444.970 45.1900   1
  -2 -18  -4 498.770 46.6600   1
   2  18  -4 594.760 82.8100   1
   2  -7   8 1374.00 63.5400   1
  -2  -7   8 1402.30 66.2000   1
   2   7   8 1513.58 74.2400   1
  -2   7   8 1276.39 66.2200   1
   2   7   8 1217.35 69.7900   1
  -2  -7  -8 1538.42 93.0900   1
   2  -7  -8 1035.78 66.8500   1
  -2  -7  -8 1201.92 74.0400   1
  -2   7   8 1441.70 75.0400   1
  -4 -20   0 664.720 44.8600   1
   4 -20   0 720.830 39.4700   1
  -4  20   0 504.510 40.9000   1
   4 -20   0 504.600 47.4700   1
  -4 -20   0 631.550 54.8900   1
 -10 -17   0 17.1800 24.4700   1
  10 -17   0 42.9800 33.7900   1
  10 -17   0 30.9100 13.8800   1
 -10 -17   0 25.6900 20.1100   1
 -12 -15   1 162.780 31.4700   1
 -12 -15  -1 76.9300 27.7900   1
  12 -15  -1 121.370 21.6400   1
  12 -15  -1 119.430 15.9900   1
 -12 -15  -1 106.250 22.6800   1
 -12 -15   1 156.050 19.8400   1
 -12  15   1 109.100 18.9000   1
  12 -15   1 101.970 15.2300   1
 -17  -4  -2 811.400 73.0200   1
 -17  -4   2 933.890 47.7900   1
  17  -4   2 969.500 66.1200   1
  17  -4   2 1066.52 55.9800   1
 -17  -4  -2 971.720 58.0400   1
  17   4  -2 904.090 61.1000   1
  17  -4  -2 879.080 54.4700   1
  17  -4  -2 1042.83 55.3100   1
  11 -16   1 194.030 19.0400   1
  11 -16   1 170.100 46.9100   1
 -11 -16   1 240.130 32.3800   1
 -11 -16  -1 137.590 26.9000   1
  11 -16  -1 188.700 24.2500   1
 -11  16   1 202.910 21.9600   1
  11 -16  -1 161.860 17.4300   1
 -11 -16   1 193.710 20.6100   1
 -11 -16  -1 252.860 24.6400   1
 -12   5  -6 1232.95 94.1800   1
 -12  -5  -6 1022.57 65.3800   1
  12   5  -6 754.050 49.4400   1
 -12  -5  -6 748.310 56.3000   1
  12  -5  -6 1012.00 63.2000   1
 -12  -5   6 964.770 47.5000   1
 -12   5   6 987.930 52.1500   1
  12  -5   6 994.270 51.4700   1
 -12   5   6 919.530 48.3600   1
 -10   3   7 19.6200 14.9000   1
 -10   3   7 -9.0300 14.4400   1
 -10   3  -7 -38.880 37.1200   1
 -10  -3  -7 -13.030 35.7900   1
 -10  -3   7 8.65000 14.4600   1
  10   3  -7 7.14000 22.6200   1
  10  -3  -7 25.7000 19.2600   1
   0  20  -2 1120.00 101.750   1
   0 -20  -2 934.230 73.6200   1
   0  20   2 866.740 76.1600   1
   0 -20  -2 793.310 66.7500   1
  -6  13   6 252.850 25.3500   1
  -6 -13   6 302.410 23.6500   1
   6 -13   6 306.010 23.5100   1
  -6 -13  -6 262.180 35.7200   1
  -6 -13  -6 243.110 30.6600   1
   6 -13  -6 233.100 26.9700   1
  -4 -11   7 76.8500 16.7400   1
  -4 -11  -7 31.2800 38.0200   1
   4 -11   7 55.2300 18.7200   1
  -4  11   7 47.4700 17.4900   1
   4  11   7 54.7000 24.6700   1
   4 -11  -7 36.2300 23.1800   1
  -4 -11  -7 17.9600 24.1500   1
  -4  11   7 125.070 26.7000   1
   6 -18  -3 395.940 27.0000   1
  -6 -18   3 422.700 30.4500   1
   6 -18  -3 279.800 27.4600   1
  -6 -18  -3 250.890 30.2300   1
  -6 -18  -3 193.070 42.9600   1
  -6 -18  -3 371.860 37.4600   1
   6 -18   3 315.870 24.0300   1
  -6  18   3 350.840 36.3900   1
  -6   3   8 745.560 42.2600   1
  -6  -3   8 710.750 41.7700   1
  -6  -3  -8 835.130 68.5000   1
  -6   3   8 641.700 39.9400   1
   6  -3  -8 687.110 41.2800   1
   6   3   8 776.890 49.9300   1
   6  -3   8 740.070 46.2700   1
   4 -14  -6 70.5300 21.8800   1
  -4 -14  -6 45.7300 22.0600   1
  -4 -14   6 140.380 17.1100   1
   4 -14   6 103.050 17.1500   1
  -4 -14  -6 162.060 35.9800   1
   4 -14   6 104.610 15.6900   1
  -4  14   6 184.630 24.0500   1
  -4  -6   8 318.810 22.9600   1
  -4  -6  -8 423.700 50.8500   1
   4  -6   8 441.170 33.6100   1
  -4   6   8 371.770 34.8400   1
   4   6   8 337.310 27.2700   1
   4   6   8 326.380 32.1100   1
  -4   6   8 330.390 25.7900   1
  -4  -6  -8 291.140 35.3800   1
   4  -6  -8 300.880 32.1100   1
   9 -15  -4 821.390 53.0100   1
  -9  15   4 793.780 45.7400   1
   9 -15  -4 635.540 36.8100   1
  -9 -15  -4 717.200 55.5400   1
   9 -15   4 718.680 38.8000   1
  -9 -15   4 554.270 33.2900   1
  -9 -15   4 512.200 51.5100   1
  -9 -15  -4 536.220 42.9700   1
  -8  14   5 128.450 22.7800   1
   8 -14   5 134.020 16.6500   1
  -8 -14   5 111.100 16.3300   1
  -8 -14  -5 176.920 30.2100   1
  -8 -14  -5 76.0200 24.0200   1
   8 -14  -5 160.310 24.9700   1
   9  -6  -7 171.120 24.4500   1
  -9  -6  -7 109.050 25.8000   1
  -9  -6  -7 66.9900 41.6500   1
  -9  -6   7 196.620 19.8900   1
  -9   6   7 194.990 20.0000   1
  -9   6   7 187.030 26.1000   1
  -1  20  -2 77.2300 41.4900   1
  -1 -20  -2 9.31000 24.8000   1
   1  20   2 -19.290 35.2800   1
   1  20  -2 18.7200 47.2700   1
   1 -20  -2 -9.8900 23.4100   1
  -1 -20  -2 -13.760 20.4700   1
   1 -20  -2 -47.000 27.7100   1
  -1  20   2 -2.5300 25.0900   1
  17  -6   1 28.5500 21.6300   1
  17  -6  -1 46.4700 18.4400   1
  17  -6  -1 2.01000 18.6700   1
 -17  -6   1 29.5300 15.2100   1
 -17  -6  -1 53.6700 18.4900   1
  17   6   1 28.1000 26.0700   1
  17   6  -1 21.1800 24.9000   1
  17  -6   1 56.9300 24.8000   1
  -3 -19  -3 714.110 45.2400   1
  -3 -19  -3 687.330 65.7600   1
   3 -19  -3 933.470 63.2300   1
   3  19   3 677.720 81.9300   1
  -3 -19   3 970.710 50.6300   1
  -3  19   3 838.320 55.0900   1
   3 -19   3 1001.38 49.1200   1
   3 -19  -3 845.890 44.4300   1
  -3 -19  -3 995.700 65.0600   1
  11 -11  -5 245.120 25.9300   1
 -11 -11  -5 166.910 27.3200   1
 -11 -11  -5 207.640 32.7200   1
 -11 -11   5 225.520 19.7500   1
  11 -11   5 208.040 18.7000   1
 -11  11   5 259.760 23.7400   1
  11  11  -5 194.090 27.5600   1
 -15 -11  -1 553.730 44.0000   1
 -15 -11   1 540.290 38.6800   1
 -15 -11   1 463.620 54.3200   1
 -15 -11  -1 573.520 51.2200   1
  15 -11  -1 412.880 41.4100   1
  15 -11   1 467.570 29.5600   1
  15 -11  -1 553.310 32.6400   1
   0  12   7 -7.5700 20.9400   1
   0 -12  -7 -20.340 37.8100   1
   0 -12   7 7.84000 17.7700   1
   0  12   7 -27.820 19.6800   1
   0 -12  -7 -14.900 24.6200   1
   5   5   8 66.0800 23.1000   1
   5  -5   8 55.6600 20.8900   1
  -5   5   8 23.9700 15.9300   1
  -5  -5   8 41.9700 18.5900   1
  -5  -5  -8 128.640 39.3800   1
   5  -5  -8 32.6500 22.6300   1
  -5   5   8 41.0400 20.4100   1
   8 -17  -3 941.700 45.5100   1
   8 -17   3 1146.98 53.2900   1
  -8  17   3 986.110 55.9300   1
   8 -17  -3 855.310 56.0500   1
  -8 -17  -3 953.910 65.6700   1
  -8 -17   3 826.470 66.8300   1
  -8 -17  -3 1099.12 71.9400   1
  -8 -17   3 980.810 53.2100   1
  -8 -17  -3 556.240 59.3100   1
  13 -14   1 174.730 19.6900   1
  13 -14  -1 119.730 23.5600   1
 -13 -14   1 188.430 32.2000   1
 -13 -14  -1 126.550 22.8900   1
 -13 -14   1 131.720 19.0900   1
 -13  14   1 160.030 20.1400   1
  13 -14  -1 119.730 17.3200   1
 -13 -14  -1 150.650 30.4900   1
 -15  -6   4 171.770 22.1600   1
 -15  -6  -4 180.480 28.9900   1
  15  -6  -4 150.940 22.6700   1
  15   6  -4 120.160 25.1700   1
  15  -6   4 195.120 21.1700   1
 -15  -6  -4 170.130 30.6400   1
  15  -6  -4 242.210 25.8500   1
 -15  -6   4 183.820 19.5500   1
 -16  -9  -1 855.000 50.1100   1
  16  -9  -1 878.230 58.1200   1
  16  -9   1 856.330 53.9200   1
  16   9  -1 633.030 51.1000   1
  16  -9   1 1210.31 57.9200   1
  16  -9  -1 965.220 47.9700   1
 -16  -9   1 811.780 46.4400   1
 -16  -9  -1 863.150 67.5500   1
  -7 -19   0 732.250 47.3800   1
   7 -19   0 843.820 42.5600   1
  -7 -19   0 671.450 56.6800   1
   7 -19   0 661.640 63.6200   1
  16  -8  -2 231.170 27.9900   1
  16   8  -2 226.920 29.1900   1
  16  -8   2 235.480 20.5400   1
  16  -8  -2 257.810 24.0900   1
 -16  -8   2 263.320 25.4500   1
 -16  -8  -2 209.330 29.3000   1
 -16  -8  -2 251.820 38.8400   1
   1 -12   7 408.050 26.7400   1
  -1  12   7 405.460 31.8500   1
   1  12   7 453.050 36.3900   1
  -1 -12  -7 452.850 41.0900   1
   1 -12  -7 468.770 39.5700   1
   1  12   7 449.940 46.0200   1
  -1  12   7 474.120 37.1900   1
   1 -12  -7 428.350 47.4100   1
  -1 -12  -7 517.800 56.3700   1
  -1 -12   7 491.540 34.9500   1
  12 -12  -4 480.350 39.2900   1
  12  12  -4 360.130 40.0900   1
 -12  12   4 476.280 33.6500   1
  12 -12   4 376.550 25.0400   1
 -12 -12   4 362.440 27.8100   1
  12 -12  -4 476.390 35.3500   1
 -12 -12  -4 663.960 45.3800   1
 -12 -12   4 395.760 27.1100   1
 -12 -12  -4 451.850 42.1200   1
  14 -12  -2 117.150 16.9200   1
 -14 -12  -2 129.030 27.7200   1
  14 -12  -2 107.960 26.0700   1
 -14 -12   2 97.8400 19.1700   1
 -14  12   2 117.390 19.2100   1
  14 -12   2 69.6900 16.0300   1
 -14 -12   2 107.900 27.3200   1
 -14 -12  -2 150.540 24.3700   1
  16  -6  -3 32.4500 21.0000   1
 -16  -6  -3 16.9200 21.3200   1
  16   6  -3 26.2600 22.3700   1
  16  -6  -3 11.8700 23.3000   1
 -16  -6  -3 2.05000 24.2000   1
 -16  -6   3 11.6200 17.5700   1
  16  -6   3 -1.0800 17.2600   1
  -7  -9  -7 381.990 59.4500   1
  -7  -9   7 390.710 28.6200   1
  -7   9   7 426.130 30.6000   1
  -7  -9  -7 357.880 37.7500   1
  -7   9   7 380.670 28.2700   1
   7  -9   7 409.900 28.9900   1
   7  -9  -7 431.790 36.3400   1
  -4 -20  -1 841.670 52.0800   1
   4 -20  -1 871.960 45.3900   1
   4 -20  -1 766.490 65.4000   1
  -4 -20   1 847.830 66.6400   1
  -4 -20  -1 884.090 64.7900   1
   4 -20  -1 775.330 55.1500   1
   4 -20   1 979.350 50.0500   1
  -4 -20   1 737.720 45.6100   1
 -10 -17  -1 5.61000 21.0200   1
  10 -17  -1 10.0600 13.1900   1
  10 -17   1 14.8500 15.3000   1
 -10 -17   1 9.24000 22.1900   1
 -10 -17  -1 40.6900 28.6200   1
  10 -17  -1 37.9800 20.9100   1
  10 -17   1 -24.960 20.3500   1
 -10 -17   1 -22.890 16.0700   1
 -10  17   1 4.91000 18.9100   1
   3 -18   4 780.020 41.8100   1
  -3  18   4 849.350 56.5100   1
   3  18   4 580.520 84.7500   1
  -3 -18  -4 852.230 62.4900   1
  -3 -18  -4 815.080 52.6800   1
   3 -18  -4 718.090 51.5600   1
  -3 -18   4 778.270 39.5400   1
   3 -18  -4 789.690 43.1100   1
  -3  -7  -8 16.6700 22.1700   1
   3   7   8 0.03000 19.0500   1
   3  -7  -8 5.53000 21.8400   1
  -3  -7   8 3.03000 15.8200   1
   3  -7   8 32.7500 19.4300   1
   3   7   8 4.85000 21.0500   1
  -3   7   8 34.0900 21.6100   1
  -3  -7  -8 37.6100 40.8800   1
  -3   7   8 52.1500 19.5400   1
  14   5  -5 302.780 33.6500   1
 -14   5  -5 402.580 45.0700   1
 -14  -5  -5 258.550 29.9800   1
  14  -5  -5 298.160 34.5200   1
 -14  -5  -5 348.920 37.5300   1
 -14  -5   5 396.590 28.5700   1
  14  -5   5 349.230 29.2300   1
  -2 -20  -2 335.040 42.2200   1
   2 -20  -2 380.530 44.2100   1
  -2 -20  -2 522.480 41.2400   1
   2 -20  -2 475.460 42.5200   1
   2  20  -2 490.410 72.3900   1
   2  20   2 472.150 66.2500   1
  -2  20  -2 590.050 55.0900   1
  -2  20   2 412.110 41.1400   1
   2 -20   2 537.610 35.1200   1
   2 -20  -2 472.420 32.6000   1
  -6 -17  -4 73.4600 22.2300   1
  -6 -17  -4 154.700 26.7000   1
   6 -17  -4 119.390 24.8400   1
  -6  17   4 160.160 22.3400   1
   6 -17   4 142.900 20.8000   1
  -6  10   7 938.200 50.9400   1
   6 -10   7 1011.15 52.2800   1
  -6 -10   7 862.530 44.4200   1
  -6 -10  -7 1148.65 74.8100   1
  -6 -10  -7 648.290 66.3000   1
   6 -10  -7 977.660 57.8600   1
  14 -13   0 72.9700 19.4800   1
 -14 -13   0 121.390 27.3900   1
  14 -13   0 110.070 17.1600   1
 -14 -13   0 121.840 22.9100   1
 -18   0   0 373.670 32.0400   1
  18   0   0 371.630 36.7000   1
  18   0   0 299.970 35.8900   1
 -10  -4  -7 763.650 61.1700   1
 -10   4   7 805.630 40.4900   1
  10  -4   7 851.320 49.5500   1
 -10   4   7 751.990 42.3100   1
  10   4  -7 723.040 46.8200   1
  10  -4  -7 753.940 55.6600   1
 -10  -4   7 750.540 39.2200   1
 -10   4  -7 972.170 71.5700   1
   8  -8  -7 210.760 25.1900   1
  -8   8   7 204.680 21.9400   1
   8  -8   7 312.840 26.5900   1
  -8   8   7 226.000 26.2100   1
  -8  -8   7 164.480 19.7600   1
  -8  -8  -7 283.600 37.9500   1
  -8  -8  -7 157.790 24.7800   1
  -2  12   7 124.990 20.5100   1
   2  12   7 156.590 23.3700   1
  -2  12   7 109.010 22.5800   1
   2  12   7 90.0800 23.0400   1
   2 -12  -7 58.8200 26.0400   1
  -2 -12   7 209.320 21.1500   1
  -2 -12  -7 113.150 37.9600   1
  -2 -12  -7 105.440 27.6900   1
   2 -12   7 150.260 20.6800   1
  18   1   0 32.4500 23.7100   1
  18  -1   0 -20.230 22.6900   1
  18  -1   0 -29.500 23.4000   1
 -18  -1   0 -18.400 18.6800   1
 -13   0   6 34.6000 17.0600   1
  13   0  -6 41.3000 21.5300   1
  13   0   6 2.10000 21.6800   1
   6  -4  -8 133.180 24.8200   1
  -6   4   8 149.010 18.5500   1
   6   4   8 138.740 24.8100   1
   6  -4   8 198.530 24.5200   1
  -6   4   8 152.740 20.6500   1
  -6  -4   8 104.570 16.8600   1
  -6  -4  -8 99.3900 40.6100   1
 -11  -8  -6 1096.75 73.1800   1
  11  -8  -6 1354.45 66.0100   1
  11   8  -6 1014.55 64.4500   1
  11  -8   6 975.630 48.6700   1
 -11   8   6 930.080 46.5100   1
 -11  -8  -6 1158.88 78.8700   1
  11  -8   6 1149.69 59.2000   1
 -11  -8   6 822.670 42.1400   1
  15   9  -3 12.2200 22.3500   1
  15  -9  -3 46.2200 23.7400   1
 -15  -9  -3 37.7400 28.2800   1
 -15  -9  -3 20.0900 20.7900   1
 -15  -9   3 13.0300 18.5600   1
  15  -9  -3 10.8200 16.5200   1
 -15   9   3 28.8700 15.9600   1
  15  -9   3 71.3200 20.9200   1
  17  -5  -2 163.140 44.0300   1
 -17  -5  -2 174.440 35.5000   1
  17  -5  -2 231.750 23.9600   1
 -17  -5  -2 145.660 21.9800   1
 -17  -5   2 254.570 23.4000   1
  17  -5   2 218.560 22.7800   1
  17  -5   2 190.710 27.4500   1
  17   5  -2 215.250 28.5300   1
  16   0   4 1167.01 62.2100   1
  16   0  -4 1055.33 59.6900   1
 -16   0  -4 1040.72 68.8100   1
 -16   0   4 1015.20 56.1000   1
 -16   0   4 1082.10 57.7800   1
   0   8   8 616.500 52.0600   1
   0  -8  -8 509.920 37.3600   1
   0  -8   8 654.030 39.2400   1
   0   8   8 649.740 45.2200   1
  13   8  -5 1103.71 71.2200   1
 -13   8   5 1183.64 54.9000   1
  13  -8   5 1314.39 60.4900   1
 -13  -8   5 1247.59 57.0000   1
 -13  -8  -5 1330.32 80.8500   1
 -13  -8  -5 1138.02 74.1400   1
  13  -8  -5 966.550 62.2000   1
 -13  -1   6 1343.57 58.6500   1
  13  -1  -6 1210.59 68.9500   1
 -13   1  -6 1400.10 88.9100   1
 -13   1   6 1454.11 66.1100   1
 -13  -1  -6 1416.58 89.8700   1
  13   1   6 1092.22 63.7100   1
  13   1  -6 1391.35 80.3900   1
  13  -1   6 1287.10 75.6200   1
  -9 -18   0 441.340 35.1200   1
   9 -18   0 374.550 54.9300   1
  -9 -18   0 441.480 55.8300   1
   9 -18   0 565.540 30.6800   1
   0 -15  -6 -75.130 34.9900   1
   0  15   6 -12.730 22.1300   1
   0 -15  -6 19.3600 23.6600   1
   0  15  -6 -14.720 32.1900   1
   0 -15   6 -2.8400 13.4500   1
   0 -15   6 -14.560 15.1400   1
  -6 -19   2 374.200 47.9800   1
   6 -19  -2 363.520 32.3200   1
   6 -19   2 508.320 30.9800   1
   6 -19  -2 496.550 31.1400   1
  -6 -19   2 495.870 36.6300   1
  -6 -19  -2 501.940 38.1300   1
  -6 -19  -2 443.950 42.6000   1
  -6  19   2 440.690 37.4800   1
  -6 -19  -2 310.430 39.1200   1
   6 -19  -2 391.170 50.6900   1
  -7  19   1 39.2900 21.5400   1
   7 -19   1 15.4600 18.3800   1
   7 -19  -1 42.8900 17.6900   1
  -7 -19   1 78.7500 19.6900   1
  -7 -19  -1 57.8000 19.3200   1
   7 -19   1 42.9000 25.9100   1
   7 -19  -1 35.1100 26.3200   1
  -7 -19   1 48.4100 22.5400   1
  -7 -19  -1 24.4500 21.8700   1
  -7   0   8 -3.8000 14.2500   1
  -7   0   8 -18.040 17.1100   1
   7   0  -8 4.28000 18.8400   1
  -7   0  -8 -31.500 41.0900   1
   7   0   8 23.0300 18.3500   1
   8 -18  -2 840.620 53.9900   1
   8 -18   2 1120.79 53.4600   1
  -8  18   2 937.190 54.7200   1
   8 -18  -2 772.180 55.9700   1
  -8 -18  -2 826.400 58.6500   1
  -8 -18  -2 631.300 59.2000   1
  -8 -18   2 998.180 51.1500   1
  -8 -18  -2 992.800 59.7700   1
  -8 -18   2 1041.64 70.5300   1
  16   1   4 224.610 28.4800   1
 -16   1   4 240.030 24.1200   1
 -16   1  -4 266.920 38.1200   1
  16  -1   4 206.270 26.4900   1
  16   1  -4 258.320 26.5300   1
  16  -1  -4 142.820 25.8200   1
 -16  -1  -4 221.270 27.4900   1
 -16  -1  -4 254.260 32.4600   1
 -16  -1   4 236.450 23.6500   1
 -16   1   4 232.210 21.2400   1
 -16  -1   4 258.900 23.7600   1
 -17  -7   0 175.240 22.1500   1
  17   7   0 86.0000 23.3100   1
  17  -7   0 126.250 25.0700   1
  17  -7   0 157.320 22.7800   1
   1   8   8 97.4500 21.9200   1
   1  -8  -8 125.110 25.2700   1
   1   8   8 79.1300 22.2300   1
  -1  -8  -8 98.6800 25.8300   1
  -1  -8  -8 104.170 47.7200   1
  -1  -8   8 112.480 18.5500   1
   1  -8   8 88.2000 18.2600   1
  -1   8   8 90.3300 21.0100   1
  -1   8   8 131.940 23.5000   1
  14 -11   3 2037.67 58.8400   1
 -14 -11  -3 1634.51 85.2700   1
 -14 -11   3 1787.83 78.5900   1
  14 -11  -3 1884.39 63.9300   1
 -14  11   3 2202.34 70.7800   1
  14 -11  -3 1628.70 94.2200   1
  14  11  -3 1462.80 95.9000   1
 -14 -11  -3 1778.98 100.150   1
   0 -17  -5 345.480 33.0900   1
   0  17   5 422.480 35.2600   1
   0  17  -5 408.600 56.4000   1
  14  -9  -4 577.660 34.8000   1
 -14  -9  -4 633.910 46.9500   1
 -14  -9   4 601.270 39.2400   1
 -14  -9   4 572.580 36.5300   1
 -14  -9  -4 521.980 47.6200   1
  14  -9  -4 577.480 44.2200   1
  14  -9   4 693.000 39.3600   1
 -14   9   4 630.660 35.9100   1
  14   9  -4 505.980 44.6100   1
  -5 -16  -5 -4.8400 21.2900   1
  -5 -16   5 5.00000 12.1300   1
   5 -16   5 45.3800 25.1400   1
  -5  16   5 40.4200 20.8000   1
  -5 -16  -5 4.97000 28.6200   1
   5 -16  -5 18.4800 22.8800   1
   8 -16   4 1104.39 51.1900   1
  -8  16   4 1236.01 61.3100   1
  -8 -16  -4 1098.22 69.6500   1
  -8 -16   4 1155.07 57.2800   1
  -8 -16  -4 1198.36 77.7700   1
   8 -16  -4 1296.34 70.8600   1
   1  15  -6 236.290 45.8500   1
  -1 -15  -6 277.230 58.0000   1
   1 -15  -6 301.430 30.2500   1
  -1 -15  -6 330.430 40.5300   1
  -1 -15   6 389.110 27.8400   1
   1 -15   6 324.440 24.9700   1
   1 -15   6 317.970 27.1200   1
  -1  15   6 358.630 36.4300   1
   1  15   6 323.400 37.1100   1
  -7   1  -8 921.130 66.1100   1
   7  -1  -8 807.040 51.4500   1
   7  -1   8 920.710 50.0500   1
   7   1  -8 828.440 53.3800   1
  -7   1   8 796.320 48.6500   1
   7   1   8 941.620 52.8100   1
  -7   1   8 873.010 42.9100   1
  -7  -1   8 826.230 43.1400   1
  -7  -1  -8 997.100 78.3400   1
 -12   6   6 123.050 18.6900   1
 -12  -6  -6 84.7300 24.5100   1
  12  -6  -6 166.160 25.0600   1
  12   6  -6 103.930 23.8300   1
 -12   6  -6 143.340 42.2100   1
 -12  -6  -6 188.860 32.8300   1
 -12  -6   6 133.300 18.4300   1
 -12   6   6 136.270 17.5600   1
  12  -6   6 133.000 18.9800   1
   5 -20   0 307.140 44.9800   1
  -5  20   0 328.460 33.8300   1
   5 -20   0 382.130 28.1200   1
  -5 -20   0 384.560 32.6400   1
  18   2   0 20.9500 29.7300   1
  18  -2   0 30.3100 26.2700   1
  18  -2   0 16.1500 23.9000   1
  18   2   0 4.71000 22.3300   1
 -18  -2   0 7.62000 17.6400   1
  -7 -15  -5 143.200 26.2800   1
   7 -15   5 134.020 16.5800   1
   7 -15  -5 156.820 24.1500   1
  -7  15   5 199.230 26.5600   1
  -7 -15  -5 150.270 28.8200   1
  -7 -15   5 127.830 16.5900   1
  -1 -17  -5 33.0500 24.9900   1
   1  17   5 38.2700 28.4300   1
   1 -17  -5 -0.1100 27.1800   1
   1  17  -5 10.6800 46.3600   1
  -1  17  -5 53.6400 35.0900   1
  -1 -17   5 32.8900 13.4900   1
  -1  17   5 15.1900 25.9600   1
   1 -17   5 55.7400 18.1900   1
   4 -19  -3 270.700 23.6600   1
  -4 -19  -3 273.580 27.8600   1
   4 -19   3 273.870 24.7400   1
  -4 -19  -3 238.140 28.2000   1
  -4  19   3 214.580 26.2400   1
  -4 -19  -3 151.960 35.3100   1
   4 -19  -3 241.430 28.8500   1
   4  19   3 254.710 58.7200   1
  -4 -19   3 230.090 20.2900   1
 -12 -10   5 463.150 43.8400   1
  12 -10   5 484.780 28.8800   1
 -12  10   5 495.300 31.7400   1
  12  10  -5 505.470 44.3100   1
  12 -10  -5 491.120 35.7700   1
 -12 -10  -5 348.800 41.8100   1
 -12 -10  -5 480.330 44.1700   1
 -13  -2   6 580.970 32.4100   1
 -13   2   6 690.780 39.6400   1
  13   2   6 448.410 38.9200   1
  13  -2   6 510.820 38.2100   1
  13   2  -6 535.730 40.6900   1
 -13   2  -6 709.360 57.5900   1
 -13  -2  -6 713.800 57.7000   1
  13  -2  -6 642.380 46.7900   1
  14 -13  -1 70.5100 23.0400   1
 -14  13   1 19.7600 15.8400   1
  14 -13   1 44.7900 16.5800   1
  14 -13  -1 34.3500 15.3100   1
 -14 -13   1 15.3200 16.6600   1
 -14 -13  -1 38.3800 20.0800   1
 -14 -13  -1 6.72000 32.5400   1
 -14 -13   1 45.3500 26.2700   1
  17   0   3 -1.3900 27.4400   1
 -17   0   3 3.25000 15.9600   1
 -17   0  -3 -2.3400 26.6400   1
  17   0  -3 -16.090 23.3700   1
 -17   0  -3 -50.350 26.9400   1
  -9 -11  -6 111.860 27.2000   1
   9 -11  -6 91.7000 21.2100   1
  -9  11   6 137.890 18.9600   1
   9 -11   6 132.680 17.3300   1
  -9 -11   6 109.890 15.8200   1
  -9 -11  -6 142.200 32.8100   1
 -16  -2   4 853.460 46.6300   1
 -16   2   4 774.690 44.6900   1
 -16  -2  -4 626.640 54.5200   1
  16  -2  -4 726.700 46.8400   1
  16  -2  -4 733.690 53.3100   1
  16   2   4 604.380 45.4900   1
  16  -2   4 821.660 49.2600   1
  16   2  -4 809.540 49.3700   1
 -16  -2   4 792.920 47.3000   1
 -16   2  -4 609.490 51.3600   1
 -16  -2  -4 782.010 60.4600   1
  -3  20   2 894.430 59.6200   1
   3  20   2 777.250 91.3400   1
   3 -20  -2 947.390 71.6200   1
  -3 -20  -2 720.440 65.8700   1
   3 -20  -2 755.750 72.7900   1
  -3 -20   2 829.030 47.6700   1
  -3 -20  -2 779.310 52.2600   1
   3 -20  -2 1043.92 51.5300   1
   3 -20   2 971.600 48.3600   1
 -18   0   1 669.660 41.5600   1
  18   0  -1 701.830 49.4200   1
  18   0   1 597.540 42.1600   1
  18   0  -1 751.220 51.3700   1
  18   0   1 668.930 53.2200   1
 -18   0  -1 596.140 45.7000   1
  -5 -11   7 235.750 19.8900   1
  -5 -11  -7 241.160 42.1000   1
   5 -11   7 278.350 25.0100   1
  -5  11   7 297.480 29.6600   1
   5 -11  -7 178.680 25.1600   1
  -5 -11  -7 135.880 28.1500   1
  -8 -12  -6 511.550 49.0800   1
   8 -12  -6 565.920 42.7100   1
  -8  12   6 561.910 37.0000   1
  -8 -12  -6 557.370 51.3300   1
  -8 -12   6 460.790 29.3700   1
   8 -12   6 527.170 31.5200   1
  17   1  -3 374.260 35.5000   1
  17   1   3 440.900 37.5000   1
 -17  -1   3 394.600 29.3400   1
 -17  -1  -3 439.770 43.4400   1
 -17   1  -3 392.700 39.2000   1
 -17   1  -3 411.880 68.2700   1
  17  -1  -3 419.840 38.4100   1
 -17  -1  -3 359.740 42.8000   1
  17  -1  -3 368.260 32.1000   1
  17  -1   3 360.640 32.4700   1
   5 -14  -6 292.690 30.9900   1
  -5  14   6 242.730 27.6900   1
   5 -14   6 289.180 22.9100   1
  -5 -14   6 264.480 21.4100   1
  -5 -14  -6 333.220 33.8800   1
  -5 -14  -6 282.830 41.0200   1
  -7   2   8 86.5000 15.5700   1
  -7  -2   8 85.6600 18.6600   1
  -7  -2  -8 154.780 51.2200   1
   7  -2   8 101.310 22.6500   1
   7   2   8 82.8900 20.0700   1
  -7   2   8 55.9400 17.7600   1
   7   2  -8 114.130 23.2300   1
   7  -2  -8 87.9500 22.0400   1
  18   1   1 -17.050 21.6900   1
  18  -1  -1 5.25000 21.0500   1
  18   1  -1 -13.820 19.4500   1
  18  -1   1 6.58000 26.4700   1
  18   1  -1 -18.220 29.3000   1
 -18  -1   1 -16.740 16.7300   1
 -18  -1  -1 -9.1900 18.0900   1
  18  -1   1 5.77000 23.2100   1
  18  -1  -1 -13.780 22.2300   1
  18   1   1 -40.680 27.4100   1
  -5   6   8 222.680 22.5000   1
   5  -6   8 179.980 22.2100   1
  -5  -6   8 130.920 17.2100   1
  -5   6   8 209.760 22.3600   1
   5   6   8 137.030 22.2000   1
   5   6   8 156.240 25.1400   1
   5  -6  -8 182.210 25.9300   1
  -5  -6  -8 133.420 23.1800   1
  -5  -6  -8 154.620 40.1800   1
   2   8   8 375.150 31.7200   1
  -2  -8   8 564.140 55.4000   1
   2  -8   8 506.310 33.0200   1
  -2  -8  -8 506.190 58.4500   1
  -2   8   8 554.260 39.0400   1
   2   8   8 432.540 36.0200   1
  -2  -8  -8 424.650 40.6800   1
   2  -8  -8 369.780 41.2700   1
  -2   8   8 474.070 37.8400   1
  13 -11  -4 14.9000 15.0900   1
  13 -11   4 -9.0500 16.6600   1
  13  11  -4 28.4100 25.5700   1
 -13 -11  -4 -28.530 22.4600   1
 -13 -11   4 1.53000 16.8500   1
 -13 -11   4 0.70000 13.9200   1
  13 -11  -4 -22.780 18.6100   1
   2 -15   6 131.350 17.3300   1
  -2 -15  -6 142.100 27.7700   1
   2 -15  -6 168.780 27.2300   1
   2  15  -6 115.110 45.9200   1
  -2 -15  -6 217.040 38.0200   1
  -2 -15   6 181.910 18.8200   1
   2  15   6 149.770 30.6200   1
  -2  15   6 223.380 28.8400   1
   2 -15   6 166.100 17.4100   1
  -3 -12  -7 302.580 44.6200   1
  -3 -12  -7 385.610 45.1500   1
   3 -12  -7 327.500 31.0700   1
   3  12   7 376.750 38.5500   1
  -3  12   7 360.120 36.3300   1
   3 -12   7 363.600 29.2800   1
  -3 -12   7 308.060 22.8500   1
  11 -15  -3 374.630 27.5700   1
 -11  15   3 426.040 32.1200   1
  11 -15  -3 321.470 29.7700   1
  11 -15   3 430.600 28.4400   1
 -11 -15  -3 300.870 33.6800   1
 -11 -15   3 217.670 33.4100   1
 -11 -15  -3 289.220 37.5700   1
 -11 -15   3 352.770 26.6900   1
  -4 -18  -4 82.8200 23.5800   1
   4 -18  -4 62.5400 15.5500   1
   4 -18  -4 109.010 24.8500   1
   4  18   4 55.4800 46.4600   1
  -4  18   4 103.910 25.9700   1
   4 -18   4 97.9100 20.9100   1
  -4 -18   4 90.4000 16.5800   1
  -4 -18  -4 73.2000 28.3800   1
  -4  -7  -8 755.600 64.7500   1
  -4  -7   8 689.730 40.0700   1
  -4   7   8 690.050 41.0700   1
   4   7   8 645.830 44.2700   1
  -4   7   8 826.790 53.6000   1
   4   7   8 623.830 50.4100   1
   4  -7  -8 694.570 50.9500   1
  -4  -7  -8 600.780 54.2500   1
   4  -7   8 784.410 44.7100   1
  -9 -18   1 173.140 22.6400   1
  -9 -18  -1 187.590 29.3500   1
   9 -18   1 67.6500 26.0900   1
  -9 -18   1 139.850 25.9800   1
   9 -18  -1 146.100 23.7700   1
  -9  18   1 115.670 21.6500   1
  -9 -18  -1 180.400 21.4800   1
   9 -18   1 180.130 18.8000   1
   9 -18  -1 119.100 16.6500   1
   9  -7   7 22.2100 18.3800   1
  -9  -7   7 32.2300 16.6800   1
  -9  -7  -7 27.0100 31.9800   1
  -9   7   7 26.6800 15.9500   1
   9   7  -7 26.3600 21.7600   1
  -9  -7  -7 7.48000 24.5700   1
   9  -7  -7 18.4900 20.2700   1
  -9   7   7 30.6200 17.4600   1
 -17  -7  -1 92.7600 31.7000   1
  17   7  -1 66.0500 25.0200   1
  17  -7   1 82.4700 18.7600   1
  17  -7  -1 108.360 18.7900   1
 -17  -7   1 64.1700 18.4100   1
 -17  -7  -1 95.6300 21.6700   1
  17  -7  -1 66.0600 22.8700   1
  17  -7   1 63.9100 24.0200   1
  -2 -17  -5 27.6700 31.7600   1
  -2 -17  -5 45.5900 22.0600   1
   2 -17   5 44.7800 20.0800   1
  -2  17   5 90.8800 25.6500   1
   2  17  -5 33.4200 43.9300   1
   2 -17  -5 3.91000 20.5100   1
  -2 -17   5 60.2100 13.1700   1
  18  -3   0 79.3800 22.8800   1
  18   3   0 59.2100 23.0100   1
  18  -3   0 74.9700 26.3200   1
 -18  -3   0 53.7200 21.8700   1
 -10   5   7 197.570 18.9500   1
  10  -5   7 230.190 24.0100   1
 -10   5   7 275.870 21.3900   1
 -10  -5   7 256.510 21.3300   1
 -10  -5  -7 200.210 44.2500   1
  10   5  -7 181.180 24.3100   1
  10  -5  -7 199.830 22.7900   1
 -12 -14  -3 95.0600 31.2400   1
  12 -14  -3 99.0600 23.6600   1
 -12  14   3 81.5600 20.7600   1
 -12 -14  -3 57.2100 26.4200   1
 -12 -14   3 68.7500 28.6600   1
 -12 -14   3 92.3300 21.0400   1
  12 -14   3 99.9100 16.8400   1
  12 -14  -3 99.4200 16.8000   1
 -17  -2  -3 9.27000 26.6600   1
  17  -2  -3 -27.240 22.0200   1
  17   2  -3 0.30000 21.5200   1
  17  -2   3 -13.060 24.1800   1
  17  -2   3 -4.9000 22.5200   1
  17  -2  -3 -27.490 24.6700   1
  17   2   3 -19.120 24.5600   1
 -17  -2   3 4.14000 14.6700   1
 -17  -2  -3 6.12000 24.5700   1
 -17   2  -3 32.3000 25.2600   1
  12 -15  -2 445.340 35.8900   1
 -12 -15   2 363.010 46.2600   1
 -12 -15  -2 511.470 35.8000   1
 -12 -15   2 460.740 31.5100   1
 -12  15   2 594.920 35.0000   1
  12 -15  -2 611.410 31.5600   1
  12 -15   2 474.990 25.9700   1
 -12 -15  -2 497.320 44.0100   1
  15  -7  -4 124.000 20.5900   1
 -15  -7   4 100.640 17.7800   1
 -15  -7  -4 111.390 28.3000   1
 -15  -7  -4 89.0700 28.9300   1
 -15  -7   4 93.4600 24.3100   1
  15  -7  -4 120.590 23.0500   1
  15   7  -4 77.9700 27.3100   1
  15  -7   4 136.340 18.5700   1
  10 -10  -6 505.230 34.5700   1
 -10 -10  -6 360.760 35.1100   1
 -10 -10  -6 409.280 40.0500   1
 -10 -10   6 338.470 22.4900   1
  10 -10   6 457.530 29.1500   1
 -10  10   6 528.410 32.0500   1
  10  10  -6 384.070 35.2100   1
   5 -20  -1 272.750 35.3500   1
  -5 -20   1 291.660 40.7700   1
  -5 -20  -1 316.450 37.7400   1
  -5 -20  -1 394.900 35.0300   1
  -5 -20   1 325.610 27.0300   1
   5 -20  -1 399.450 27.1100   1
   5 -20   1 452.850 29.0800   1
  -5  20   1 346.320 31.6300   1
   5 -20  -1 310.560 31.4700   1
  18  -2  -1 724.710 43.5700   1
  18  -2   1 747.140 42.5000   1
 -18  -2  -1 745.860 50.9800   1
 -18  -2   1 705.060 42.1000   1
  18   2   1 607.260 43.5500   1
  18  -2  -1 787.980 44.7100   1
  18   2   1 541.460 44.3600   1
  18  -2   1 616.910 45.5700   1
  18   2  -1 689.060 48.0600   1
  14   6  -5 34.4200 24.6200   1
 -14  -6  -5 6.21000 23.2200   1
  14  -6  -5 5.43000 19.9300   1
 -14  -6  -5 27.1200 27.9600   1
 -14  -6   5 18.7400 15.1400   1
  14  -6   5 -40.910 16.0800   1
 -14   6   5 48.1500 17.2100   1
  16 -10   0 153.340 23.2900   1
 -16 -10   0 136.370 33.3100   1
  16 -10   0 165.480 19.0400   1
 -16 -10   0 221.710 21.9100   1
  13  -3  -6 223.800 26.8200   1
 -13   3  -6 236.470 36.6400   1
 -13  -3   6 134.560 18.5100   1
 -13   3   6 165.270 19.8000   1
  13  -3   6 133.120 24.5700   1
  13   3  -6 215.960 24.6400   1
  11 -16   2 130.280 16.0500   1
  11 -16  -2 128.180 17.0300   1
 -11  16   2 184.770 23.3300   1
 -11 -16   2 168.140 21.8900   1
 -11 -16  -2 145.670 25.5300   1
  11 -16  -2 133.890 23.8000   1
 -11 -16  -2 114.620 30.6200   1
 -11 -16   2 157.000 31.6800   1
  11 -16   2 71.5600 27.9200   1
  -6   5   8 2467.20 69.8100   1
  -6  -5  -8 3069.92 126.340   1
   6  -5  -8 2696.26 80.9900   1
   6  -5   8 2477.24 64.9800   1
  -6   5   8 2340.73 75.5200   1
  -6  -5   8 2073.46 64.5600   1
  16  -7  -3 411.410 35.2000   1
 -16  -7  -3 476.880 39.5200   1
 -16  -7   3 401.550 26.4300   1
  16  -7  -3 443.020 32.1600   1
  16  -7   3 400.560 27.7600   1
  16   7  -3 362.580 36.3300   1
 -16  -7  -3 437.700 39.7800   1
 -16  -3   4 375.340 24.7300   1
  16  -3  -4 441.760 34.9100   1
  16   3   4 274.750 37.2300   1
 -16   3   4 377.400 24.2900   1
 -16  -3   4 374.340 26.6700   1
 -16  -3  -4 393.070 39.0200   1
 -16   3  -4 347.500 44.2000   1
  16   3  -4 363.950 33.4500   1
  16  -3  -4 366.190 31.8900   1
  16  -3   4 325.860 30.1700   1
 -16  -3  -4 334.380 38.0200   1
 -10  16   3 1675.57 63.3000   1
 -10 -16  -3 1543.24 80.8400   1
  10 -16   3 1668.44 56.1400   1
  10 -16  -3 1620.70 55.8300   1
 -10 -16   3 1725.24 57.7200   1
 -10 -16   3 1503.28 86.4000   1
 -10 -16  -3 1472.17 80.0000   1
  10 -16  -3 1259.61 62.0000   1
   7 -13  -6 1539.98 69.8400   1
  -7 -13   6 1195.50 45.5000   1
  -7 -13  -6 1347.37 75.6200   1
  -7 -13  -6 1139.07 64.7000   1
   7 -13   6 1499.34 50.7300   1
  -7  13   6 1496.36 57.7500   1
  -7 -18  -3 622.760 44.8600   1
  -7 -18  -3 348.370 46.9200   1
  -7 -18   3 542.150 51.8600   1
  -7 -18  -3 474.760 41.5800   1
   7 -18  -3 609.710 47.3100   1
  -7  18   3 759.410 47.8100   1
   7 -18   3 656.910 32.4100   1
   7 -18  -3 640.420 33.2300   1
  -7 -18   3 494.240 30.9500   1
   7  -3   8 1309.73 53.3200   1
  -7   3   8 1346.04 53.7200   1
  -7  -3   8 1390.70 50.7300   1
   7  -3  -8 1228.06 50.8100   1
  -7   3   8 1066.36 46.3600   1
  -7  -3  -8 1451.80 82.2400   1
   0  21   0 15.9900 46.0100   1
   0 -21   0 9.70000 24.5300   1
 -11   0  -7 26.6800 33.4700   1
 -11   0   7 -0.5100 14.0000   1
  11   0  -7 1.96000 22.7400   1
 -15   0  -5 6.42000 27.8900   1
 -15   0   5 4.76000 14.2400   1
  15   0   5 42.0500 22.5600   1
  15   0  -5 -35.050 21.0300   1
 -17  -6  -2 439.140 35.8500   1
 -17  -6   2 471.520 31.3000   1
  17  -6  -2 524.130 37.1000   1
  17  -6   2 549.550 33.1700   1
  17   6  -2 409.850 41.7700   1
  17  -6  -2 620.450 59.6600   1
 -17  -6  -2 506.870 52.3500   1
 -15 -11  -2 79.4200 27.3800   1
  15 -11  -2 47.6700 24.3900   1
  15  11  -2 37.3900 26.8700   1
 -15  11   2 13.3200 14.9500   1
  15 -11  -2 6.67000 16.9000   1
  15 -11   2 55.9000 16.9900   1
 -15 -11   2 17.5300 19.8600   1
 -15 -11  -2 20.1700 20.3500   1
 -15 -12   0 612.420 52.4300   1
 -15 -12   0 653.470 38.8800   1
  15 -12   0 800.180 34.8500   1
  15 -12   0 584.610 46.3900   1
 -11  -1   7 641.670 32.9500   1
 -11   1   7 623.240 30.6400   1
  11   1  -7 853.800 50.2200   1
  11  -1  -7 653.040 44.5200   1
 -11  -1  -7 922.060 65.3400   1
 -11   1  -7 836.060 68.9600   1
  15  -1  -5 60.5700 24.7800   1
 -15   1  -5 67.9000 33.7100   1
 -15  -1  -5 102.710 34.2000   1
 -15   1   5 62.0500 16.6800   1
  15   1   5 46.1300 27.7300   1
  15  -1   5 39.5600 24.8200   1
  15   1  -5 58.1700 24.1700   1
 -15  -1   5 64.2100 17.8800   1
  -1  21   0 521.290 58.5100   1
  -1  21   0 479.690 45.8200   1
   1  21   0 512.070 75.6600   1
   1 -21   0 488.860 45.8700   1
  -1 -21   0 439.990 54.2900   1
   3  -8   8 1426.76 55.6300   1
  -3  -8  -8 1166.02 65.0400   1
  -3   8   8 1361.33 59.8900   1
   3   8   8 1261.16 60.2700   1
   3  -8  -8 1095.51 63.8300   1
   3   8   8 1135.20 64.9800   1
  -3   8   8 1157.73 50.7000   1
  -3  -8   8 1310.20 48.8400   1
  -3  -8  -8 1768.42 108.950   1
  13 -14  -2 171.920 25.5000   1
 -13 -14  -2 138.200 25.2900   1
 -13 -14   2 154.310 20.6200   1
 -13  14   2 203.750 22.4600   1
  13 -14   2 194.820 18.6000   1
 -13 -14   2 198.290 31.0700   1
 -13 -14  -2 132.790 26.4200   1
 -16  -9   2 62.1400 16.8600   1
 -16  -9  -2 78.1400 23.7500   1
  16   9  -2 39.3300 26.6700   1
 -16  -9  -2 18.5700 25.6400   1
  16  -9  -2 86.2000 23.9200   1
  16  -9   2 92.3000 19.2400   1
  16  -9  -2 97.3300 21.5000   1
  -3 -15  -6 15.4300 31.2500   1
  -3 -15  -6 -4.3600 21.1000   1
   3  15  -6 26.1400 44.2900   1
   3 -15   6 -6.3000 14.0500   1
  -3 -15   6 -10.320 14.9900   1
   3 -15  -6 -8.4800 22.2100   1
 -17  -3  -3 451.630 38.6200   1
 -17  -3   3 418.080 28.3200   1
  17   3   3 460.230 42.1100   1
  17  -3  -3 546.530 37.7900   1
  17  -3   3 567.070 36.1900   1
  17   3  -3 519.710 37.1100   1
  17  -3  -3 534.990 41.3100   1
 -17  -3  -3 412.240 49.6400   1
  18  -3   1 -36.400 25.2000   1
  18  -3  -1 -15.570 19.4600   1
 -18  -3  -1 10.6600 21.1600   1
 -18  -3   1 -14.060 17.9700   1
  18  -3   1 38.7700 22.5900   1
  18   3   1 -9.8200 20.8600   1
  18   3  -1 13.6800 20.8000   1
  -4 -20  -2 24.2200 19.8800   1
  -4 -20  -2 -12.920 23.1600   1
   4 -20  -2 46.1500 22.8100   1
   4 -20   2 27.0100 18.2600   1
  -4  20   2 22.7200 23.4200   1
   4  20   2 48.5900 41.6600   1
  -4 -20  -2 62.0500 25.6300   1
  -4 -20   2 23.0800 16.3000   1
   4 -20  -2 54.2900 18.7100   1
   4 -20  -2 64.3000 29.0600   1
  -3  17   5 2425.74 85.6600   1
   3 -17   5 2438.51 72.3700   1
  -3 -17  -5 2715.11 117.030   1
  -3 -17  -5 1921.66 94.7600   1
   3 -17  -5 2484.88 87.1600   1
  -3 -17   5 2124.97 65.5600   1
 -10 -17  -2 204.840 30.3100   1
 -10 -17   2 156.470 29.9000   1
 -10 -17   2 241.890 24.3700   1
  10 -17  -2 191.820 18.6700   1
 -10  17   2 252.040 28.5100   1
  10 -17   2 252.600 21.5500   1
  10 -17  -2 175.420 27.9300   1
 -10 -17  -2 249.430 26.3600   1
  10 -17   2 152.750 26.8100   1
  13 -13   3 458.090 24.6900   1
 -13  13   3 370.870 27.5600   1
 -13 -13  -3 337.240 37.7600   1
  13 -13  -3 253.110 24.9300   1
 -13 -13  -3 321.320 31.5400   1
 -13 -13   3 372.330 26.1900   1
  13 -13  -3 381.990 24.5200   1
 -13 -13   3 346.050 44.5800   1
 -10 -13  -5 284.010 38.2300   1
  10 -13  -5 254.260 28.7900   1
 -10 -13  -5 320.960 32.1400   1
 -10 -13   5 270.990 23.2500   1
  10 -13   5 364.130 24.4100   1
 -10  13   5 343.210 26.0600   1
 -16 -10  -1 540.390 34.3500   1
  16 -10  -1 616.460 52.3600   1
  16 -10   1 618.070 31.0800   1
 -16 -10  -1 611.030 51.9400   1
  16 -10  -1 670.220 34.6900   1
 -16 -10   1 596.780 33.9100   1
  16  10  -1 630.520 50.7400   1
 -11   2  -7 338.250 43.3700   1
 -11  -2  -7 360.110 44.4000   1
 -11  -2   7 278.470 22.3300   1
 -11   2   7 273.300 22.1900   1
 -11   2   7 248.110 38.3100   1
  11   2  -7 308.060 33.6200   1
  11  -2  -7 308.560 28.3200   1
  18  -4   0 0.66000 20.0500   1
  18   4   0 58.3300 25.3100   1
  18  -4   0 9.74000 22.2200   1
 -18  -4   0 -5.3900 18.6900   1
  15   2   5 361.050 39.4900   1
 -15  -2   5 431.200 26.7000   1
 -15   2  -5 363.950 43.5700   1
  15  -2   5 344.550 31.9100   1
  15   2  -5 350.470 30.0400   1
 -15  -2  -5 418.400 40.1500   1
  15  -2  -5 426.280 36.1700   1
 -15   2   5 395.860 26.8700   1
  -7 -17  -4 3762.89 121.670   1
   7 -17  -4 3133.46 91.4800   1
  -7 -17  -4 3053.10 99.5700   1
  -7  17   4 3857.56 100.380   1
  -5 -19   3 691.950 39.7300   1
  -5 -19  -3 632.720 45.3300   1
  -5 -19  -3 560.640 48.5100   1
  -5 -19  -3 353.840 50.7600   1
   5 -19  -3 579.290 44.3800   1
  -5  19   3 703.530 43.4900   1
   5 -19   3 784.870 37.2900   1
   5 -19  -3 552.370 28.9600   1
   7 -10   7 443.610 32.3000   1
  -7 -10   7 447.800 34.1100   1
  -7 -10  -7 485.820 45.5300   1
  -7 -10  -7 621.180 41.7100   1
   7 -10  -7 463.860 37.9700   1
  -7  10   7 525.900 36.9900   1
   8 -19   0 124.750 19.5800   1
  -8 -19   0 165.400 29.4300   1
   8 -19   0 115.720 28.3200   1
  -8 -19   0 145.680 21.1800   1
  -4  12   7 550.640 41.1800   1
  -4 -12  -7 467.380 36.9900   1
   4  12   7 489.830 42.0200   1
  -4 -12  -7 583.270 49.2200   1
  -4 -12   7 414.700 27.7300   1
   4 -12   7 495.250 30.8600   1
 -12  -7  -6 1256.70 70.0600   1
 -12  -7  -6 1655.91 88.9800   1
  12  -7  -6 1251.32 69.4400   1
  12   7  -6 1375.43 69.2800   1
 -12   7   6 1550.35 55.8400   1
  12  -7   6 1816.84 62.5000   1
 -12  -7   6 1384.58 47.2300   1
  12  -7   6 1568.06 62.1500   1
 -13   4  -6 1076.90 72.1700   1
 -13  -4  -6 1211.98 68.2100   1
  13  -4   6 810.600 43.7500   1
  13  -4  -6 1097.45 57.9800   1
 -13   4   6 1031.18 43.3500   1
 -13   4   6 1149.26 45.1000   1
  13   4  -6 1116.48 59.5200   1
 -13  -4   6 1058.45 44.8300   1
   2 -21   0 14.7000 24.6200   1
   2  21   0 -8.9900 52.4800   1
  -2  21   0 0.83000 23.5900   1
  -2 -21   0 -7.7500 22.8300   1
  -9 -14   5 52.6000 17.2000   1
   9 -14   5 57.6700 17.1000   1
  -9 -14  -5 60.3700 27.0900   1
  -9 -14  -5 61.8000 25.9800   1
  -9  14   5 87.2200 21.8600   1
   9 -14  -5 113.450 24.5600   1
  -8  -9   7 1312.77 48.0000   1
  -8  -9  -7 1113.20 55.0100   1
  -8  -9  -7 1750.06 155.490   1
   8  -9   7 1725.47 65.8700   1
   8  -9  -7 1469.91 66.0100   1
  -8   9   7 1334.72 54.3300   1
 -12 -16   0 223.800 36.8000   1
  12 -16   0 232.340 19.3600   1
 -12 -16   0 234.130 25.0200   1
   0 -21  -1 752.580 56.6200   1
   0 -21  -1 790.500 66.7300   1
   0  21   1 993.450 90.2200   1
   0  21  -1 1048.74 77.2300   1
 -16  -4  -4 163.880 26.6300   1
  16  -4  -4 206.080 25.3500   1
 -16  -4  -4 234.420 30.2000   1
 -16  -4   4 119.920 20.1700   1
 -16  -4   4 134.450 17.3700   1
  16  -4  -4 178.880 26.0900   1
  16  -4   4 153.290 23.6400   1
  16   4  -4 156.380 28.6600   1
  17   8   0 555.580 48.7000   1
  17  -8   0 712.810 48.0200   1
 -17  -8   0 626.530 36.4200   1
  17  -8   0 715.400 35.9600   1
   6 -16  -5 520.580 41.2500   1
  -6 -16  -5 453.390 38.1200   1
  -6 -16   5 570.340 30.2800   1
   6 -16   5 527.790 29.0700   1
  -6 -16  -5 464.010 49.1400   1
  -6  16   5 528.810 35.0900   1
 -11 -12  -5 146.040 28.5600   1
  11 -12  -5 98.4400 22.0800   1
  11  12  -5 101.350 25.6000   1
 -11 -12  -5 107.550 24.1400   1
 -11  12   5 131.390 20.8700   1
  11 -12   5 161.800 20.0000   1
 -11 -12   5 113.350 17.2300   1
  11   9  -6 298.060 33.0600   1
 -11  -9   6 271.160 19.6700   1
  11  -9   6 277.430 25.7400   1
  11  -9   6 383.920 24.3300   1
 -11   9   6 290.520 25.4700   1
  11  -9  -6 321.210 28.4400   1
 -11  -9  -6 321.920 33.1000   1
 -11  -9  -6 407.040 44.5100   1
  -7   4   8 275.240 24.8800   1
   7  -4  -8 362.290 28.9800   1
  -7  -4  -8 399.210 57.2100   1
  -7  -4   8 313.580 26.1800   1
  -7   4   8 291.480 24.0900   1
   7  -4   8 308.370 26.1800   1
  -6 -20   0 223.500 24.5000   1
  -6 -20   0 231.370 36.1000   1
   6 -20   0 212.670 20.1000   1
   6 -20   0 122.530 30.4100   1
 -15 -12  -1 370.410 32.0100   1
  15 -12  -1 289.940 21.2800   1
 -15 -12   1 262.200 41.3300   1
 -15 -12   1 371.590 26.2300   1
 -15 -12  -1 290.970 38.8900   1
  15 -12  -1 223.310 29.4800   1
  15 -12   1 293.720 22.2700   1
   0   9   8 -14.170 16.8100   1
   0   9   8 3.43000 18.1400   1
   0  -9  -8 10.6300 24.1200   1
  -9 -17  -3 534.770 39.1500   1
  -9  17   3 464.670 33.7100   1
  -9 -17   3 393.060 45.2000   1
  -9 -17   3 435.340 31.1900   1
   9 -17  -3 377.530 24.0500   1
   9 -17   3 528.890 26.9600   1
   9 -17  -3 382.870 35.3000   1
  -9 -17  -3 417.810 40.6700   1
 -11 -14   4 1621.59 98.1500   1
 -11 -14  -4 1839.07 81.9000   1
 -11 -14  -4 1727.23 79.0700   1
 -11 -14   4 1563.37 59.1500   1
  11 -14  -4 1896.43 76.4300   1
 -11 -14   4 1875.39 63.6800   1
 -11  14   4 1995.16 67.4200   1
  -1  21   1 218.510 28.2500   1
  -1 -21  -1 270.670 39.3900   1
   1 -21  -1 246.680 37.3100   1
   1 -21  -1 213.890 32.8000   1
  -1  21   1 297.080 41.7600   1
  -1  21  -1 337.210 49.4700   1
   1  21   1 194.180 47.3300   1
   1  21  -1 345.990 78.8700   1
 -13  -9  -5 145.160 37.0700   1
 -13  -9   5 115.050 17.7500   1
 -13   9   5 107.340 18.8400   1
  13   9  -5 129.690 44.0200   1
  13  -9   5 84.9200 18.5000   1
 -13  -9  -5 82.5500 23.8700   1
  13  -9  -5 120.610 22.0300   1
   5  18   4 208.760 60.3300   1
  -5 -18  -4 339.550 36.4500   1
  -5 -18   4 353.620 24.5000   1
   5 -18   4 393.570 23.9300   1
  -5  18   4 462.550 35.3400   1
   5 -18  -4 368.910 33.0500   1
  -5 -18  -4 306.640 33.7300   1
   7 -19   2 1188.93 48.7200   1
   7 -19  -2 1064.57 43.6500   1
  -7 -19  -2 608.620 53.6000   1
  -7 -19   2 1064.82 46.9800   1
  -7 -19   2 816.520 62.5800   1
  -7 -19  -2 754.570 51.7300   1
   7 -19  -2 843.930 56.2700   1
  -7 -19  -2 1033.47 59.1700   1
  -7  19   2 1058.85 61.5400   1
  13 -15   0 1462.72 50.4600   1
 -13 -15   0 1453.32 63.6500   1
 -13 -15   0 1183.11 73.4100   1
   5   7   8 201.100 22.8800   1
   5  -7   8 263.240 25.3600   1
  -5  -7  -8 287.080 46.8100   1
  -5   7   8 251.990 24.2100   1
   5   7   8 231.470 26.6900   1
  -5   7   8 233.320 21.6100   1
  -5  -7   8 236.920 21.9700   1
  -5  -7  -8 213.950 33.7800   1
   5  -7  -8 242.010 31.6400   1
  -1  -9   8 111.800 20.8000   1
   1  -9   8 87.5700 16.9200   1
  -1   9   8 154.910 20.2700   1
   1   9   8 139.830 23.1100   1
  -1   9   8 87.8100 22.6100   1
   1   9   8 103.480 23.6200   1
   1  -9  -8 61.1500 21.2400   1
  -1  -9  -8 120.880 24.5100   1
  -1  -9  -8 126.530 47.3300   1
 -10 -15   4 67.5500 27.2300   1
  10 -15  -4 39.3300 18.9700   1
  10 -15   4 89.8900 16.3200   1
 -10 -15   4 87.3000 16.1000   1
 -10 -15   4 53.1200 20.1600   1
 -10 -15  -4 52.6000 26.9600   1
 -10  15   4 59.8900 20.5000   1
 -10 -15  -4 51.1300 26.6600   1
  10  -6   7 319.120 28.4100   1
 -10   6   7 242.360 24.9800   1
  10   6  -7 242.220 27.7500   1
 -10  -6  -7 216.040 30.7400   1
  10  -6  -7 260.090 28.0800   1
 -10  -6  -7 196.540 36.6100   1
 -10  -6   7 264.880 20.9100   1
 -10   6   7 255.420 23.0100   1
 -11 -17   0 86.7200 22.3600   1
 -11 -17   0 84.5800 26.7900   1
  11 -17   0 97.5300 15.6700   1
  -6 -11  -7 215.380 36.9800   1
  -6 -11  -7 271.510 39.5800   1
  -6 -11   7 153.480 17.7300   1
   6 -11  -7 218.630 28.1000   1
  -6  11   7 200.480 22.6300   1
   6 -11   7 186.560 19.4100   1
 -15 -10  -3 898.790 52.8300   1
  15 -10  -3 843.940 54.5200   1
  15  10  -3 717.850 55.1600   1
 -15  10   3 893.230 38.6500   1
  15 -10   3 918.190 39.8200   1
 -15 -10   3 818.720 40.8900   1
 -15 -10  -3 779.420 59.4600   1
  15 -10  -3 970.830 47.9100   1
   0  13   7 220.720 27.9600   1
   0  13   7 170.380 27.4000   1
   0 -13  -7 259.760 29.8700   1
   0 -13  -7 335.280 46.8200   1
   0 -13   7 235.640 19.9000   1
  -6 -14   6 434.300 27.4300   1
  -6 -14  -6 588.250 51.6600   1
  -6 -14  -6 572.680 43.9400   1
   6 -14  -6 717.650 54.8000   1
  -6  14   6 632.570 36.8100   1
   6 -14   6 642.470 31.4000   1
  11   3  -7 700.450 46.2400   1
 -11   3   7 769.240 37.3900   1
 -11  -3   7 683.730 31.4500   1
 -11  -3  -7 871.480 63.9700   1
 -11   3   7 711.280 35.6800   1
 -11   3  -7 816.850 69.8700   1
  11  -3  -7 642.360 44.7900   1
  15   3  -5 101.300 26.9800   1
  15  -3  -5 128.710 22.4800   1
 -15  -3  -5 73.2000 23.7900   1
 -15   3  -5 95.9400 37.8000   1
 -15  -3  -5 123.470 31.1300   1
 -15  -3   5 81.5700 15.9700   1
 -15   3   5 112.010 15.8800   1
  15  -3   5 117.150 24.6600   1
  17   4  -3 451.590 36.0600   1
 -17  -4  -3 504.740 53.0600   1
 -17  -4   3 472.420 30.9600   1
  17  -4  -3 545.230 38.4400   1
 -17  -4  -3 531.420 51.2300   1
  17  -4   3 512.880 33.0000   1
  17  -4  -3 523.590 35.3800   1
  -6   6   8 16.1000 19.1200   1
  -6  -6   8 4.77000 17.8700   1
  -6  -6  -8 -16.790 40.8900   1
   6  -6   8 -5.4600 15.9700   1
  -6   6   8 81.2800 61.9000   1
   6  -6  -8 17.3700 22.2700   1
 -18  -4  -1 696.880 42.4400   1
  18   4  -1 614.180 51.6100   1
  18  -4   1 852.640 51.5100   1
  18  -4  -1 732.120 49.3700   1
  18  -4   1 767.170 41.2800   1
  18   4   1 553.890 50.1100   1
  18  -4  -1 768.980 42.7600   1
 -18  -4   1 702.380 39.4400   1
   1 -13  -7 233.060 30.1500   1
  -1 -13  -7 208.940 46.8800   1
  -1 -13  -7 222.730 25.6200   1
   1 -13  -7 216.200 40.4900   1
  14 -10  -4 411.400 30.4900   1
 -14 -10   4 396.050 26.7000   1
 -14 -10  -4 318.140 39.2300   1
  14 -10   4 389.020 24.5400   1
 -12 -13  -4 3895.38 107.440   1
   8 -19   1 55.3100 22.3400   1
   8 -19  -1 85.3900 28.1200   1
   8 -19   1 105.860 19.0200   1
  14 -13  -2 185.700 17.6900   1
  14 -13   2 227.800 20.2500   1
  -8   0  -8 402.420 47.5500   1
   8   0  -8 380.260 36.5300   1
   0  20  -3 4.81000 39.9600   1
   0 -20  -3 -1.1200 38.7800   1
  -4  -8  -8 -0.8400 35.8200   1
   2  21   1 772.880 89.9700   1
   2 -21   1 879.620 41.9800   1
   2 -21  -1 771.830 36.3000   1
   2  21  -1 766.970 74.4400   1
   0  19  -4 -4.6400 44.7300   1
  -1  20  -3 162.990 39.0100   1
   1  20   3 120.030 38.0000   1
   1  20  -3 290.220 52.1600   1
   3  21   0 248.040 60.5700   1
;
_shelx_hkl_checksum              26704
_olex2_submission_original_sample_id '2014lhb054b, lhb4_050_01'
_olex2_submission_special_instructions 'No special instructions were received'
loop_
_space_group_symop_operation_xyz
'x, y, z'
'-x, -y, z+1/2'
'-x+1/2, y+1/2, z+1/2'
'x+1/2, -y+1/2, z'
loop_
_atom_site_label
_atom_site_type_symbol
_atom_site_fract_x
_atom_site_fract_y
_atom_site_fract_z
_atom_site_U_iso_or_equiv
_atom_site_adp_type
_atom_site_occupancy
_atom_site_site_symmetry_order
_atom_site_calc_flag
_atom_site_refinement_flags_posn
_atom_site_refinement_flags_adp
_atom_site_refinement_flags_occupancy
_atom_site_disorder_assembly
_atom_site_disorder_group
C1 C 0.42089(15) 0.90723(15) 0.1104(5) 0.0196(4) Uani 1 1 d . . . . .
C2 C 0.35909(17) 0.83114(15) 0.1058(5) 0.0208(5) Uani 1 1 d . . . . .
C3 C 0.2677(2) 0.83188(18) 0.1771(4) 0.0226(5) Uani 1 1 d . . . . .
C4 C 0.2122(2) 0.76207(18) 0.1746(4) 0.0228(5) Uani 1 1 d . . . . .
C5 C 0.24531(17) 0.68841(16) 0.1020(5) 0.0221(5) Uani 1 1 d . . . . .
C6 C 0.18469(17) 0.61164(15) 0.1015(5) 0.0221(5) Uani 1 1 d . . . . .
C7 C 0.33733(19) 0.68761(16) 0.0330(4) 0.0220(5) Uani 1 1 d . . . . .
C8 C 0.39250(19) 0.75743(17) 0.0324(4) 0.0214(5) Uani 1 1 d . . . . .
Ca1 Ca 0.43129(3) 0.96948(3) 0.61280(9) 0.01892(14) Uani 1 1 d . . . . .
F1 F 0.23114(12) 0.90132(10) 0.2496(3) 0.0264(4) Uani 1 1 d . . . . .
F2 F 0.12394(12) 0.76737(11) 0.2443(3) 0.0279(4) Uani 1 1 d . . . . .
F3 F 0.37551(11) 0.61711(10) -0.0308(3) 0.0265(4) Uani 1 1 d . . . . .
F4 F 0.48097(11) 0.75264(10) -0.0374(3) 0.0258(4) Uani 1 1 d . . . . .
N11 N 0.27131(18) 0.84888(16) 0.6602(4) 0.0271(5) Uani 1 1 d . . . . .
O1 O 0.45002(14) 0.93487(13) -0.0494(3) 0.0227(4) Uani 1 1 d . . . . .
O1W O 0.56232(12) 0.87517(12) 0.6090(4) 0.0254(4) Uani 1 1 d . . . . .
H1WA H 0.5960 0.8804 0.4977 0.038 Uiso 1 1 d GR . . . .
H1WB H 0.6015 0.8844 0.7105 0.038 Uiso 1 1 d GR . . . .
O2 O 0.44135(14) 0.93656(14) 0.2726(3) 0.0232(5) Uani 1 1 d . . . . .
O3 O 0.15338(15) 0.58776(13) 0.2626(3) 0.0262(4) Uani 1 1 d . . . . .
O4 O 0.17047(16) 0.57706(14) -0.0585(3) 0.0280(5) Uani 1 1 d . . . . .
O11 O 0.25171(17) 0.92079(14) 0.7045(4) 0.0349(5) Uani 1 1 d . . . . .
O12 O 0.21513(16) 0.79210(15) 0.6679(4) 0.0356(5) Uani 1 1 d . . . . .
O13 O 0.35605(13) 0.83550(12) 0.6023(4) 0.0271(4) Uani 1 1 d . . . . .
C101 C 0.5005(2) 0.6569(2) 0.5613(5) 0.0369(8) Uani 1 1 d . . . . .
H101 H 0.5482 0.6964 0.5841 0.044 Uiso 1 1 calc R . . . .
C102 C 0.5233(3) 0.5758(2) 0.5334(6) 0.0418(8) Uani 1 1 d . . . . .
H102 H 0.5871 0.5587 0.5374 0.050 Uiso 1 1 calc R . . . .
C103 C 0.4521(3) 0.5195(2) 0.4993(6) 0.0388(8) Uani 1 1 d . . . . .
H103 H 0.4668 0.4636 0.4800 0.047 Uiso 1 1 calc R . . . .
C104 C 0.3592(2) 0.5456(2) 0.4937(5) 0.0344(7) Uani 1 1 d . . . . .
H104 H 0.3099 0.5079 0.4686 0.041 Uiso 1 1 calc R . . . .
C105 C 0.3396(2) 0.6266(2) 0.5249(5) 0.0324(6) Uani 1 1 d . . . . .
H105 H 0.2763 0.6451 0.5245 0.039 Uiso 1 1 calc R . . . .
N101 N 0.4093(2) 0.67909(17) 0.5556(4) 0.0321(6) Uani 1 1 d . . . . .
H10A H 0.394(3) 0.734(3) 0.580(8) 0.051(12) Uiso 1 1 d . . . . .
loop_
_atom_site_aniso_label
_atom_site_aniso_U_11
_atom_site_aniso_U_22
_atom_site_aniso_U_33
_atom_site_aniso_U_23
_atom_site_aniso_U_13
_atom_site_aniso_U_12
C1 0.0189(10) 0.0208(10) 0.0192(11) -0.0010(13) 0.0002(11) 0.0008(8)
C2 0.0216(10) 0.0248(11) 0.0160(11) 0.0013(11) -0.0006(12) -0.0023(9)
C3 0.0252(13) 0.0239(12) 0.0186(11) -0.0007(10) -0.0002(10) 0.0017(10)
C4 0.0185(12) 0.0305(14) 0.0194(12) 0.0003(10) 0.0001(9) -0.0023(10)
C5 0.0225(11) 0.0274(12) 0.0166(11) 0.0010(12) -0.0018(11) -0.0042(9)
C6 0.0202(10) 0.0238(11) 0.0224(12) 0.0005(12) -0.0004(12) -0.0022(8)
C7 0.0228(12) 0.0241(12) 0.0192(11) -0.0006(10) 0.0009(10) 0.0009(10)
C8 0.0185(11) 0.0283(13) 0.0174(12) 0.0006(11) -0.0001(10) -0.0013(10)
Ca1 0.0190(2) 0.0211(2) 0.0167(2) -0.0002(2) 0.0003(2) 0.00010(16)
F1 0.0249(8) 0.0256(8) 0.0288(9) -0.0045(7) 0.0036(7) 0.0008(6)
F2 0.0195(8) 0.0329(9) 0.0313(9) -0.0050(7) 0.0053(7) -0.0037(7)
F3 0.0260(8) 0.0239(8) 0.0295(9) -0.0033(6) 0.0024(7) -0.0005(6)
F4 0.0194(8) 0.0294(8) 0.0286(9) -0.0025(7) 0.0043(7) -0.0015(6)
N11 0.0284(12) 0.0297(12) 0.0231(12) 0.0010(9) -0.0031(9) -0.0017(10)
O1 0.0245(9) 0.0262(11) 0.0176(10) 0.0003(8) 0.0004(8) -0.0043(8)
O1W 0.0244(8) 0.0327(9) 0.0192(8) 0.0018(10) 0.0015(9) 0.0042(7)
O2 0.0245(10) 0.0260(11) 0.0190(11) -0.0008(8) 0.0001(8) -0.0027(7)
O3 0.0271(10) 0.0275(10) 0.0240(10) -0.0019(8) 0.0043(8) -0.0052(8)
O4 0.0320(11) 0.0302(11) 0.0217(10) -0.0004(8) -0.0030(9) -0.0070(8)
O11 0.0370(12) 0.0320(11) 0.0357(13) -0.0051(9) -0.0033(10) 0.0061(9)
O12 0.0267(10) 0.0374(12) 0.0426(14) 0.0030(10) 0.0001(9) -0.0072(9)
O13 0.0236(8) 0.0302(9) 0.0275(10) 0.0001(9) 0.0018(10) -0.0036(7)
C101 0.0338(16) 0.0496(19) 0.0274(17) -0.0012(13) 0.0035(12) -0.0128(14)
C102 0.0308(16) 0.061(2) 0.0336(16) -0.0011(17) 0.0031(14) 0.0073(15)
C103 0.0503(19) 0.0334(16) 0.0328(18) -0.0014(14) -0.0005(16) 0.0099(14)
C104 0.0388(17) 0.0368(16) 0.0275(16) 0.0014(13) -0.0057(13) -0.0066(13)
C105 0.0325(15) 0.0388(16) 0.0261(14) 0.0029(13) -0.0049(13) 0.0010(12)
N101 0.0382(13) 0.0327(13) 0.0254(13) -0.0003(11) 0.0011(10) -0.0006(11)
loop_
_atom_type_symbol
_atom_type_description
_atom_type_scat_dispersion_real
_atom_type_scat_dispersion_imag
_atom_type_scat_source
C C 0.0033 0.0016 'International Tables Vol C Tables 4.2.6.8 and 6.1.1.4'
H H 0.0000 0.0000 'International Tables Vol C Tables 4.2.6.8 and 6.1.1.4'
Ca Ca 0.2262 0.3064 'International Tables Vol C Tables 4.2.6.8 and 6.1.1.4'
F F 0.0171 0.0103 'International Tables Vol C Tables 4.2.6.8 and 6.1.1.4'
N N 0.0061 0.0033 'International Tables Vol C Tables 4.2.6.8 and 6.1.1.4'
O O 0.0106 0.0060 'International Tables Vol C Tables 4.2.6.8 and 6.1.1.4'
loop_
_geom_angle_atom_site_label_1
_geom_angle_atom_site_label_2
_geom_angle_atom_site_label_3
_geom_angle
_geom_angle_site_symmetry_1
_geom_angle_site_symmetry_3
C2 C1 Ca1 169.00(16) . 2_674
O1 C1 C2 117.9(3) . .
O1 C1 Ca1 61.08(13) . 2_674
O2 C1 C2 117.9(3) . .
O2 C1 Ca1 63.80(13) . 2_674
O2 C1 O1 124.1(2) . .
C3 C2 C1 121.7(2) . .
C3 C2 C8 117.0(2) . .
C8 C2 C1 121.3(2) . .
C2 C3 C4 121.4(3) . .
F1 C3 C2 119.9(2) . .
F1 C3 C4 118.7(2) . .
C5 C4 C3 121.8(3) . .
F2 C4 C3 118.2(3) . .
F2 C4 C5 120.0(2) . .
C4 C5 C6 121.7(2) . .
C4 C5 C7 116.7(2) . .
C7 C5 C6 121.6(2) . .
C5 C6 Ca1 178.1(2) . 3_544
O3 C6 C5 117.2(3) . .
O3 C6 Ca1 61.03(13) . 3_544
O4 C6 C5 117.8(3) . .
O4 C6 Ca1 63.92(13) . 3_544
O4 C6 O3 124.9(2) . .
C8 C7 C5 121.7(2) . .
F3 C7 C5 119.8(2) . .
F3 C7 C8 118.5(2) . .
C7 C8 C2 121.4(2) . .
F4 C8 C2 119.8(2) . .
F4 C8 C7 118.8(2) . .
C1 Ca1 N11 173.51(8) 2_675 .
C6 Ca1 C1 81.50(7) 3 2_675
C6 Ca1 N11 95.74(7) 3 .
O1 Ca1 C1 95.11(9) 1_556 2_675
O1 Ca1 C1 25.42(9) 2_675 2_675
O1 Ca1 C6 82.57(7) 2_675 3
O1 Ca1 C6 106.47(9) 1_556 3
O1 Ca1 N11 160.34(7) 2_675 .
O1 Ca1 N11 79.98(7) 1_556 .
O1 Ca1 O1 119.37(6) 1_556 2_675
O1 Ca1 O1W 76.92(8) 1_556 .
O1 Ca1 O2 70.06(7) 1_556 2_675
O1 Ca1 O2 50.47(6) 2_675 2_675
O1 Ca1 O3 80.87(8) 1_556 3
O1 Ca1 O4 131.82(7) 1_556 3
O1 Ca1 O4 75.74(8) 2_675 3
O1 Ca1 O11 79.31(7) 1_556 .
O1 Ca1 O11 152.96(7) 2_675 .
O1 Ca1 O13 82.21(8) 1_556 .
O1W Ca1 C1 83.46(7) . 2_675
O1W Ca1 C6 164.82(7) . 3
O1W Ca1 N11 99.43(7) . .
O1W Ca1 O1 82.95(7) . 2_675
O1W Ca1 O2 81.16(7) . 2_675
O1W Ca1 O3 150.40(8) . 3
O1W Ca1 O4 150.25(8) . 3
O1W Ca1 O11 122.22(7) . .
O1W Ca1 O13 76.36(7) . .
O2 Ca1 C1 25.24(9) 2_675 2_675
O2 Ca1 C1 96.16(9) . 2_675
O2 Ca1 C6 101.07(9) . 3
O2 Ca1 C6 86.11(7) 2_675 3
O2 Ca1 N11 90.13(7) . .
O2 Ca1 N11 149.16(7) 2_675 .
O2 Ca1 O1 71.12(7) . 2_675
O2 Ca1 O1 151.47(6) . 1_556
O2 Ca1 O1W 78.44(8) . .
O2 Ca1 O2 119.82(6) . 2_675
O2 Ca1 O3 127.00(8) . 3
O2 Ca1 O4 75.17(7) . 3
O2 Ca1 O11 135.97(7) 2_675 .
O2 Ca1 O11 102.25(7) . .
O2 Ca1 O13 78.19(8) . .
O3 Ca1 C1 79.26(7) 3 2_675
O3 Ca1 C6 25.96(8) 3 3
O3 Ca1 N11 95.68(7) 3 .
O3 Ca1 O1 91.24(7) 3 2_675
O3 Ca1 O2 72.97(7) 3 2_675
O3 Ca1 O4 51.91(6) 3 3
O3 Ca1 O11 71.54(7) 3 .
O4 Ca1 C1 85.93(8) 3 2_675
O4 Ca1 C6 25.95(8) 3 3
O4 Ca1 N11 94.16(7) 3 .
O4 Ca1 O2 100.26(7) 3 2_675
O4 Ca1 O11 77.22(7) 3 .
O11 Ca1 C1 150.77(7) . 2_675
O11 Ca1 C6 72.87(7) . 3
O11 Ca1 N11 24.30(7) . .
O13 Ca1 C1 159.74(7) . 2_675
O13 Ca1 C6 118.58(7) . 3
O13 Ca1 N11 24.30(7) . .
O13 Ca1 O1 145.80(7) . 2_675
O13 Ca1 O2 147.57(7) . 2_675
O13 Ca1 O3 119.78(8) . 3
O13 Ca1 O4 110.88(8) . 3
O13 Ca1 O11 48.61(7) . .
O11 N11 Ca1 65.09(16) . .
O11 N11 O13 116.4(2) . .
O12 N11 Ca1 170.9(2) . .
O12 N11 O11 124.0(3) . .
O12 N11 O13 119.6(2) . .
O13 N11 Ca1 51.30(13) . .
C1 O1 Ca1 93.51(16) . 2_674
C1 O1 Ca1 152.91(18) . 1_554
Ca1 O1 Ca1 110.33(8) 1_554 2_674
Ca1 O1W H1WA 110.9 . .
Ca1 O1W H1WB 111.1 . .
H1WA O1W H1WB 107.7 . .
C1 O2 Ca1 90.95(16) . 2_674
C1 O2 Ca1 160.16(18) . .
Ca1 O2 Ca1 108.37(8) . 2_674
C6 O3 Ca1 93.01(16) . 3_544
C6 O4 Ca1 90.13(16) . 3_544
N11 O11 Ca1 90.61(17) . .
N11 O13 Ca1 104.39(16) . .
C102 C101 H101 120.6 . .
N101 C101 H101 120.6 . .
N101 C101 C102 118.8(3) . .
C101 C102 H102 120.4 . .
C101 C102 C103 119.3(3) . .
C103 C102 H102 120.4 . .
C102 C103 H103 120.2 . .
C104 C103 C102 119.6(3) . .
C104 C103 H103 120.2 . .
C103 C104 H104 120.4 . .
C105 C104 C103 119.1(3) . .
C105 C104 H104 120.4 . .
C104 C105 H105 120.1 . .
N101 C105 C104 119.9(3) . .
N101 C105 H105 120.1 . .
C101 N101 H10A 118(3) . .
C105 N101 C101 123.3(3) . .
C105 N101 H10A 118(3) . .
loop_
_geom_bond_atom_site_label_1
_geom_bond_atom_site_label_2
_geom_bond_distance
_geom_bond_site_symmetry_2
C1 C2 1.526(3) .
C1 Ca1 2.918(2) 2_674
C1 O1 1.254(4) .
C1 O2 1.244(4) .
C2 C3 1.390(4) .
C2 C8 1.392(4) .
C3 C4 1.390(4) .
C3 F1 1.346(3) .
C4 C5 1.388(4) .
C4 F2 1.347(3) .
C5 C6 1.526(3) .
C5 C7 1.393(4) .
C6 Ca1 2.856(2) 3_544
C6 O3 1.252(4) .
C6 O4 1.250(4) .
C7 C8 1.388(4) .
C7 F3 1.349(3) .
C8 F4 1.350(3) .
Ca1 C1 2.918(2) 2_675
Ca1 C6 2.856(2) 3
Ca1 N11 3.033(3) .
Ca1 O1 2.558(2) 2_675
Ca1 O1 2.395(2) 1_556
Ca1 O1W 2.4228(18) .
Ca1 O2 2.395(2) .
Ca1 O2 2.618(2) 2_675
Ca1 O3 2.502(2) 3
Ca1 O4 2.566(2) 3
Ca1 O11 2.751(3) .
Ca1 O13 2.444(2) .
N11 O11 1.248(3) .
N11 O12 1.228(3) .
N11 O13 1.289(3) .
O1 Ca1 2.395(2) 1_554
O1 Ca1 2.558(2) 2_674
O1W H1WA 0.9040 .
O1W H1WB 0.9040 .
O2 Ca1 2.618(2) 2_674
O3 Ca1 2.502(2) 3_544
O4 Ca1 2.566(2) 3_544
C101 H101 0.9500 .
C101 C102 1.382(5) .
C101 N101 1.349(4) .
C102 H102 0.9500 .
C102 C103 1.391(6) .
C103 H103 0.9500 .
C103 C104 1.391(5) .
C104 H104 0.9500 .
C104 C105 1.372(5) .
C105 H105 0.9500 .
C105 N101 1.331(4) .
N101 H10A 0.94(5) .
loop_
_geom_hbond_atom_site_label_D
_geom_hbond_atom_site_label_H
_geom_hbond_atom_site_label_A
_geom_hbond_distance_DH
_geom_hbond_distance_HA
_geom_hbond_distance_DA
_geom_hbond_angle_DHA
_geom_hbond_site_symmetry_A
O1W H1WA O3 0.90 1.88 2.769(3) 168.1 4_565
O1W H1WB O4 0.90 1.97 2.857(3) 168.6 4_566
N101 H10A O13 0.94(5) 1.76(5) 2.692(4) 173(5) .
loop_
_geom_torsion_atom_site_label_1
_geom_torsion_atom_site_label_2
_geom_torsion_atom_site_label_3
_geom_torsion_atom_site_label_4
_geom_torsion
_geom_torsion_site_symmetry_1
_geom_torsion_site_symmetry_2
_geom_torsion_site_symmetry_3
_geom_torsion_site_symmetry_4
C1 C2 C3 C4 -179.2(3) . . . .
C1 C2 C3 F1 1.1(4) . . . .
C1 C2 C8 C7 178.2(3) . . . .
C1 C2 C8 F4 -0.4(4) . . . .
C2 C1 O1 Ca1 -167.55(18) . . . 2_674
C2 C1 O1 Ca1 40.3(5) . . . 1_554
C2 C1 O2 Ca1 -25.1(7) . . . .
C2 C1 O2 Ca1 167.80(18) . . . 2_674
C2 C3 C4 C5 0.3(4) . . . .
C2 C3 C4 F2 -179.4(3) . . . .
C3 C2 C8 C7 -0.8(4) . . . .
C3 C2 C8 F4 -179.5(2) . . . .
C3 C4 C5 C6 179.3(3) . . . .
C3 C4 C5 C7 0.5(4) . . . .
C4 C5 C6 O3 -57.6(4) . . . .
C4 C5 C6 O4 122.8(3) . . . .
C4 C5 C7 C8 -1.5(4) . . . .
C4 C5 C7 F3 176.8(3) . . . .
C5 C6 O3 Ca1 179.25(19) . . . 3_544
C5 C6 O4 Ca1 -179.3(2) . . . 3_544
C5 C7 C8 C2 1.7(4) . . . .
C5 C7 C8 F4 -179.6(3) . . . .
C6 C5 C7 C8 179.7(3) . . . .
C6 C5 C7 F3 -2.0(4) . . . .
C7 C5 C6 O3 121.1(3) . . . .
C7 C5 C6 O4 -58.5(4) . . . .
C8 C2 C3 C4 -0.2(4) . . . .
C8 C2 C3 F1 -179.8(2) . . . .
Ca1 C1 C2 C3 159.1(10) 2_674 . . .
Ca1 C1 C2 C8 -19.9(14) 2_674 . . .
Ca1 C1 O1 Ca1 -152.1(4) 2_674 . . 1_554
Ca1 C1 O2 Ca1 167.1(6) 2_674 . . .
F1 C3 C4 C5 180.0(3) . . . .
F1 C3 C4 F2 0.3(4) . . . .
F2 C4 C5 C6 -1.1(4) . . . .
F2 C4 C5 C7 -179.8(2) . . . .
F3 C7 C8 C2 -176.6(3) . . . .
F3 C7 C8 F4 2.1(4) . . . .
O1 C1 C2 C3 -119.2(3) . . . .
O1 C1 C2 C8 61.8(4) . . . .
O1 C1 O2 Ca1 157.0(5) . . . .
O1 C1 O2 Ca1 -10.1(2) . . . 2_674
O2 C1 C2 C3 62.8(4) . . . .
O2 C1 C2 C8 -116.2(3) . . . .
O2 C1 O1 Ca1 10.3(3) . . . 2_674
O2 C1 O1 Ca1 -141.8(3) . . . 1_554
O3 C6 O4 Ca1 1.2(3) . . . 3_544
O4 C6 O3 Ca1 -1.2(3) . . . 3_544
O11 N11 O13 Ca1 -0.6(3) . . . .
O12 N11 O11 Ca1 -179.1(3) . . . .
O12 N11 O13 Ca1 179.0(2) . . . .
O13 N11 O11 Ca1 0.5(2) . . . .
C101 C102 C103 C104 0.1(5) . . . .
C102 C101 N101 C105 0.2(5) . . . .
C102 C103 C104 C105 -0.9(5) . . . .
C103 C104 C105 N101 1.5(5) . . . .
C104 C105 N101 C101 -1.1(5) . . . .
N101 C101 C102 C103 0.3(5) . . . .
