#------------------------------------------------------------------------------
#$Date: 2015-07-16 18:05:34 +0300 (Thu, 16 Jul 2015) $
#$Revision: 152130 $
#$URL: svn://www.crystallography.net/cod/cif/7/11/75/7117546.cif $
#------------------------------------------------------------------------------
#
# This file is available in the Crystallography Open Database (COD),
# http://www.crystallography.net/
#
# All data on this site have been placed in the public domain by the
# contributors.
#
data_7117546
loop_
_publ_author_name
'L. H. Blair'
'A. Colakel'
'R. M. Vrcelj'
'I. Sinclair'
'S. J. Coles'
_publ_section_title
;
 Metal-organic fireworks: MOFs as integrated structural scaffolds for
 pyrotechnic materials
;
_journal_name_full               Chem.Commun.
_journal_page_first              12185
_journal_paper_doi               10.1039/C5cc04174K
_journal_volume                  51
_journal_year                    2015
_chemical_absolute_configuration ad
_chemical_formula_moiety         'C8 H2 F4 N O8 Sr, C5 H6 N'
_chemical_formula_sum            'C13 H8 F4 N2 O8 Sr'
_chemical_formula_weight         483.83
_chemical_name_systematic
;
 ?
;
_space_group_crystal_system      orthorhombic
_space_group_IT_number           33
_space_group_name_Hall           'P 2c -2n'
_space_group_name_H-M_alt        'P n a 21'
_symmetry_space_group_name_Hall  'P 2c -2n'
_symmetry_space_group_name_H-M   'P n a 21'
_atom_sites_solution_hydrogens   mixed
_atom_sites_solution_primary     iterative
_audit_creation_date             2015-01-03
_audit_creation_method
;
Olex2 1.2
(compiled 2014.12.26 svn.r3119 for OlexSys, GUI svn.r4975)
;
_audit_update_record
;
2015-01-30 deposited with the CCDC.
2015-06-23 downloaded from the CCDC.
;
_cell_angle_alpha                90
_cell_angle_beta                 90
_cell_angle_gamma                90
_cell_formula_units_Z            4
_cell_length_a                   14.2686(10)
_cell_length_b                   16.7326(11)
_cell_length_c                   7.0181(5)
_cell_measurement_reflns_used    0
_cell_measurement_temperature    100(2)
_cell_measurement_theta_max      27.5
_cell_measurement_theta_min      2.4
_cell_volume                     1675.6(2)
_computing_cell_refinement
'CrystalClear-SM Expert 3.1 b27 (Rigaku, 2013)'
_computing_data_collection
'CrystalClear-SM Expert 3.1 b27 (Rigaku, 2013)'
_computing_data_reduction
'CrystalClear-SM Expert 3.1 b27 (Rigaku, 2013)'
_computing_molecular_graphics    'Olex2 (Dolomanov et al., 2009)'
_computing_publication_material  'Olex2 (Dolomanov et al., 2009)'
_computing_structure_refinement  'ShelXL (Sheldrick, 2008)'
_computing_structure_solution
;
Superflip (Palatinus & Chapuis, 2007;Palatinus & van der Lee, 2008;
Palatinus et al., 2012)
;
_diffrn_ambient_temperature      100(2)
_diffrn_detector                 'CCD area detector'
_diffrn_detector_area_resol_mean 28.5714
_diffrn_detector_type            'Rigaku HG Saturn724+ (2x2 bin mode)'
_diffrn_measured_fraction_theta_full 0.983
_diffrn_measured_fraction_theta_max 0.986
_diffrn_measurement_details
;
scan:
    Number of images: 218
               Slice: -87.0000 - 22.0000
         Image width: 0.5000
            Exp time: 40.0000
       Rotation axis: Omega
               Omega: 0.0000
               Kappa: -72.0000
                 Phi: -180.0000
                 XTD: 44.8672
              2theta: -17.0328
scan:
    Number of images: 190
               Slice: -22.0000 - 73.0000
         Image width: 0.5000
            Exp time: 40.0000
       Rotation axis: Omega
               Omega: 0.0000
               Kappa: 54.0000
                 Phi: -60.0000
                 XTD: 44.8672
              2theta: -17.0328
scan:
    Number of images: 172
               Slice: -64.0000 - 22.0000
         Image width: 0.5000
            Exp time: 40.0000
       Rotation axis: Omega
               Omega: 0.0000
               Kappa: -72.0000
                 Phi: 0.0000
                 XTD: 44.8672
              2theta: -17.0328
scan:
    Number of images: 86
               Slice: -16.0000 - 27.0000
         Image width: 0.5000
            Exp time: 40.0000
       Rotation axis: Omega
               Omega: 0.0000
               Kappa: 72.0000
                 Phi: 60.0000
                 XTD: 44.8672
              2theta: -17.0328
scan:
    Number of images: 70
               Slice: -27.0000 - 8.0000
         Image width: 0.5000
            Exp time: 40.0000
       Rotation axis: Omega
               Omega: 0.0000
               Kappa: 72.0000
                 Phi: 90.0000
                 XTD: 44.8672
              2theta: -17.0328
scan:
    Number of images: 78
               Slice: 4.0000 - 43.0000
         Image width: 0.5000
            Exp time: 40.0000
       Rotation axis: Omega
               Omega: 0.0000
               Kappa: 0.0000
                 Phi: 90.0000
                 XTD: 44.8672
              2theta: -17.0328
scan:
    Number of images: 30
               Slice: -41.0000 - -26.0000
         Image width: 0.5000
            Exp time: 40.0000
       Rotation axis: Omega
               Omega: 0.0000
               Kappa: 36.0000
                 Phi: -180.0000
                 XTD: 44.8672
              2theta: -17.0328
scan:
    Number of images: 200
               Slice: -27.0000 - 73.0000
         Image width: 0.5000
            Exp time: 40.0000
       Rotation axis: Omega
               Omega: 0.0000
               Kappa: 72.0000
                 Phi: 30.0000
                 XTD: 44.8672
              2theta: -17.0328
scan:
    Number of images: 62
               Slice: -66.0000 - -35.0000
         Image width: 0.5000
            Exp time: 40.0000
       Rotation axis: Omega
               Omega: 0.0000
               Kappa: -72.0000
                 Phi: -90.0000
                 XTD: 44.8672
              2theta: -17.0328
;
_diffrn_measurement_device       'four-circle \k diffractometer'
_diffrn_measurement_device_type  'Rigaku AFC12 (Right)'
_diffrn_measurement_method       'profile data from \w-scans'
_diffrn_measurement_specimen_support 'MiTeGen MicroMesh'
_diffrn_orient_matrix_type       d*Trek
_diffrn_orient_matrix_UB_11      0.129455
_diffrn_orient_matrix_UB_12      -0.054461
_diffrn_orient_matrix_UB_13      -0.024053
_diffrn_orient_matrix_UB_21      -0.003826
_diffrn_orient_matrix_UB_22      -0.035681
_diffrn_orient_matrix_UB_23      0.060199
_diffrn_orient_matrix_UB_31      -0.024757
_diffrn_orient_matrix_UB_32      -0.046088
_diffrn_orient_matrix_UB_33      -0.028891
_diffrn_radiation_collimation    0.3
_diffrn_radiation_monochromator  'Confocal mirrors, HF Varimax'
_diffrn_radiation_probe          x-ray
_diffrn_radiation_type           MoK\a
_diffrn_radiation_wavelength     0.71075
_diffrn_reflns_av_R_equivalents  0.0589
_diffrn_reflns_av_unetI/netI     0.0314
_diffrn_reflns_laue_measured_fraction_full 0.983
_diffrn_reflns_laue_measured_fraction_max 0.986
_diffrn_reflns_limit_h_max       18
_diffrn_reflns_limit_h_min       -17
_diffrn_reflns_limit_k_max       20
_diffrn_reflns_limit_k_min       -21
_diffrn_reflns_limit_l_max       9
_diffrn_reflns_limit_l_min       -9
_diffrn_reflns_number            17674
_diffrn_reflns_point_group_measured_fraction_full 0.987
_diffrn_reflns_point_group_measured_fraction_max 0.989
_diffrn_reflns_theta_full        25.242
_diffrn_reflns_theta_max         27.529
_diffrn_reflns_theta_min         2.822
_diffrn_source                   'Rotating Anode'
_diffrn_source_current           55.0
_diffrn_source_power             2.475
_diffrn_source_target            Mo
_diffrn_source_type              'Rotating Anode'
_diffrn_source_voltage           45.0
_exptl_absorpt_coefficient_mu    3.309
_exptl_absorpt_correction_T_max  1.000
_exptl_absorpt_correction_T_min  0.794
_exptl_absorpt_correction_type   multi-scan
_exptl_absorpt_process_details
'CrystalClear-SM Expert 3.1 b27 (Rigaku, 2013)'
_exptl_crystal_colour            colourless
_exptl_crystal_colour_primary    colourless
_exptl_crystal_density_diffrn    1.918
_exptl_crystal_description       Plate
_exptl_crystal_F_000             952
_exptl_crystal_size_max          0.11
_exptl_crystal_size_mid          0.04
_exptl_crystal_size_min          0.03
_refine_diff_density_max         0.659
_refine_diff_density_min         -0.489
_refine_diff_density_rms         0.106
_refine_ls_abs_structure_details
;
 Flack x determined using 1612 quotients [(I+)-(I-)]/[(I+)+(I-)]
 (Parsons and Flack (2004), Acta Cryst. A60, s61).
;
_refine_ls_abs_structure_Flack   0.011(7)
_refine_ls_extinction_coef       .
_refine_ls_extinction_method     none
_refine_ls_goodness_of_fit_ref   1.030
_refine_ls_hydrogen_treatment    constr
_refine_ls_matrix_type           full
_refine_ls_number_parameters     257
_refine_ls_number_reflns         3743
_refine_ls_number_restraints     1
_refine_ls_restrained_S_all      1.030
_refine_ls_R_factor_all          0.0377
_refine_ls_R_factor_gt           0.0372
_refine_ls_shift/su_max          0.001
_refine_ls_shift/su_mean         0.000
_refine_ls_structure_factor_coef Fsqd
_refine_ls_weighting_details
'w=1/[\s^2^(Fo^2^)+(0.0845P)^2^+0.0518P] where P=(Fo^2^+2Fc^2^)/3'
_refine_ls_weighting_scheme      calc
_refine_ls_wR_factor_gt          0.1031
_refine_ls_wR_factor_ref         0.1038
_reflns_Friedel_coverage         0.854
_reflns_friedel_fraction_full    0.993
_reflns_friedel_fraction_max     0.993
_reflns_number_gt                3662
_reflns_number_total             3743
_reflns_threshold_expression     'I > 2\s(I)'
_cod_data_source_file            c5cc04174k2.cif
_cod_data_source_block           sr_fbdc_2
_cod_database_code               7117546
_shelxl_version_number           2013-3
_shelx_space_group_comment
;
The symmetry employed for this shelxl refinement is uniquely defined
by the following loop, which should always be used as a source of
symmetry information in preference to the above space-group names.
They are only intended as comments.
;
_olex2_refinement_description
;
1. Twinned data refinement
 Scales: 0.54532 0.45468
2. Fixed Uiso
 At 1.2 times of:
  All C(H) groups, All N(H) groups
 At 1.5 times of:
  All O(H,H) groups
3.a Free rotating group:
 O1W(H1WA,H1WB)
3.b Aromatic/amide H refined with riding coordinates:
 N101(H101), C101(H10A), C102(H102), C103(H103), C104(H104), C105(H105)
;
_shelx_res_file
;
TITL 2014lhb055
CELL 0.71075 14.2686 16.7326 7.0181 90 90 90
ZERR 4 0.001 0.0011 0.0005 0 0 0
LATT -1
SYMM -X,-Y,0.5+Z
SYMM 0.5-X,0.5+Y,0.5+Z
SYMM 0.5+X,0.5-Y,+Z

SFAC C H F N O Sr
UNIT 52 32 16 8 32 4
EQIV $1 0.5+X,1.5-Y,-1+Z
EQIV $2 0.5+X,1.5-Y,+Z
EQIV $3 0.5-X,-0.5+Y,0.5+Z

L.S. 7 0 0
PLAN  20
TEMP -173(2)
HTAB O1W O3_$1
HTAB O1W O4_$2
HTAB N101 O13_$3
MORE -1
BOND $H
CONF
fmap 2 53
acta
TWIN -1 0 0 0 1 0 0 0 -1 2
REM <HKL>C:/Users/lhb1u10/Desktop/My%20Structures/2014lhb055_%20Sr%20fBDC/Sr_f
REM BDC.hkl</HKL>

WGHT    0.084500    0.051800
BASF   0.45468
FVAR       1.53291
SR1   6    0.427254    0.532095   -0.033140    11.00000    0.01747    0.01453 =
         0.01650   -0.00011   -0.00011   -0.00002
F1    3    0.480532    0.744895    0.616912    11.00000    0.01906    0.02631 =
         0.03302   -0.00349   -0.00627    0.00189
F2    3    0.375750    0.877509    0.612061    11.00000    0.02957    0.01675 =
         0.03734   -0.00614   -0.00535   -0.00049
F4    3    0.127031    0.732590    0.332298    11.00000    0.02072    0.03128 =
         0.03871   -0.00721   -0.00790    0.00391
F5    3    0.233308    0.601041    0.328391    11.00000    0.02905    0.02059 =
         0.03632   -0.00564   -0.00577   -0.00108
O1    5    0.439960    0.565322    0.311927    11.00000    0.02516    0.02195 =
         0.02055   -0.00039    0.00000    0.00623
AFIX   6
O1W   5    0.568708    0.627087   -0.028854    11.00000    0.02653    0.03280 =
         0.02201    0.00000   -0.00159   -0.00795
H1WA  2    0.604028    0.628434   -0.126304    11.00000   -1.50000
H1WB  2    0.601840    0.620858    0.070644    11.00000   -1.50000
AFIX   0
O2    5    0.448285    0.568249    0.625700    11.00000    0.02884    0.02366 =
         0.01899    0.00300   -0.00028    0.00617
O3    5    0.171947    0.916504    0.631483    11.00000    0.03493    0.02772 =
         0.02327   -0.00256    0.00119    0.01025
O4    5    0.160460    0.909132    0.316360    11.00000    0.02611    0.02440 =
         0.02774   -0.00137   -0.00309    0.00665
O11   5    0.211796    0.713972   -0.091410    11.00000    0.02824    0.03282 =
         0.05829    0.00349   -0.00106    0.01081
O12   5    0.249939    0.588320   -0.123477    11.00000    0.02761    0.02914 =
         0.03895   -0.00222   -0.00150   -0.00150
O13   5    0.352147    0.673430   -0.025218    11.00000    0.02576    0.02219 =
         0.03158   -0.00188   -0.00317    0.00228
N11   4    0.268617    0.659055   -0.081632    11.00000    0.02299    0.02688 =
         0.02958    0.00370    0.00123    0.00534
C1    1    0.419998    0.594266    0.468970    11.00000    0.02158    0.01629 =
         0.01905    0.00040    0.00021    0.00217
C2    1    0.359829    0.669086    0.472206    11.00000    0.02404    0.01790 =
         0.01953    0.00165    0.00166    0.00512
C3    1    0.392501    0.740364    0.546008    11.00000    0.01832    0.02293 =
         0.02279   -0.00040   -0.00095    0.00219
C4    1    0.338273    0.808893    0.545782    11.00000    0.02336    0.01578 =
         0.02349   -0.00081   -0.00058   -0.00051
C5    1    0.247387    0.808936    0.475654    11.00000    0.02106    0.02093 =
         0.02190   -0.00025    0.00383    0.00410
C6    1    0.187676    0.884190    0.475603    11.00000    0.01981    0.02046 =
         0.02428    0.00273    0.00117    0.00548
C7    1    0.214440    0.736964    0.401301    11.00000    0.01654    0.02351 =
         0.02676   -0.00108   -0.00206    0.00342
C8    1    0.269592    0.668705    0.400609    11.00000    0.02526    0.01760 =
         0.02303   -0.00288    0.00135    0.00089

N101  4    0.091179    0.325111    0.523691    11.00000    0.04497    0.03113 =
         0.03009    0.00094    0.00042    0.00176
AFIX  43
H101  2    0.108371    0.275386    0.502573    11.00000   -1.20000
AFIX   0
C101  1    0.156550    0.378593    0.560205    11.00000    0.03014    0.04359 =
         0.03173   -0.00004   -0.00574    0.00611
AFIX  43
H10A  2    0.220450    0.362732    0.564164    11.00000   -1.20000
AFIX   0
C102  1    0.133423    0.456197    0.592238    11.00000    0.04315    0.03620 =
         0.03835   -0.00069   -0.00964   -0.00648
AFIX  43
H102  2    0.180614    0.494430    0.620672    11.00000   -1.20000
AFIX   0
C103  1    0.040141    0.478885    0.582920    11.00000    0.05189    0.03399 =
         0.04091   -0.00197   -0.00177    0.01231
AFIX  43
H103  2    0.022608    0.532969    0.603537    11.00000   -1.20000
AFIX   0
C104  1   -0.027130    0.421699    0.543180    11.00000    0.02674    0.08221 =
         0.04013    0.00002    0.00175    0.01392
AFIX  43
H104  2   -0.091357    0.436122    0.533702    11.00000   -1.20000
AFIX   0
C105  1    0.000692    0.342844    0.517343    11.00000    0.04186    0.05312 =
         0.03451   -0.00237    0.00303   -0.02203
AFIX  43
H105  2   -0.044529    0.302200    0.495427    11.00000   -1.20000
AFIX   0
HKLF 4

REM  2014lhb055
REM R1 =  0.0372 for    3662 Fo > 4sig(Fo)  and  0.0377 for all    3743 data
REM    257 parameters refined using      1 restraints

END

WGHT      0.0845      0.0518

REM Highest difference peak  0.659,  deepest hole -0.489,  1-sigma level  0.106
Q1    1   0.5102  0.5337 -0.0367  11.00000  0.05    0.66
Q2    1   0.4770  0.5369  0.1293  11.00000  0.05    0.63
Q3    1   0.3439  0.5406 -0.0333  11.00000  0.05    0.61
Q4    1   0.4269  0.4740 -0.1172  11.00000  0.05    0.56
Q5    1   0.3798  0.5345  0.1221  11.00000  0.05    0.56
Q6    1   0.4805  0.5388 -0.1954  11.00000  0.05    0.54
Q7    1   0.3821  0.5310 -0.1850  11.00000  0.05    0.54
Q8    1   0.4302  0.4755  0.0512  11.00000  0.05    0.53
Q9    1   0.4366  0.5962  0.0459  11.00000  0.05    0.53
Q10   1   0.4095  0.5961  0.0389  11.00000  0.05    0.49
Q11   1   0.4188  0.5944 -0.1149  11.00000  0.05    0.48
Q12   1  -0.0397  0.3837  0.4721  11.00000  0.05    0.43
Q13   1   0.1926  0.4365  0.4604  11.00000  0.05    0.40
Q14   1   0.4367  0.5265  0.5772  11.00000  0.05    0.37
Q15   1   0.1687  0.9543  0.5753  11.00000  0.05    0.37
Q16   1   0.4356  0.6130  0.7192  11.00000  0.05    0.37
Q17   1   0.3402  0.5245  0.2062  11.00000  0.05    0.36
Q18   1   0.3440  0.5237  0.7322  11.00000  0.05    0.33
Q19   1   0.4390  0.5315  0.3551  11.00000  0.05    0.32
Q20   1   0.0750  0.9605  0.2203  11.00000  0.05    0.32
;
_shelx_res_checksum              97047
_shelx_hkl_file
;
   1   2   0 2926.47 56.8100   1
  -1  -2   0 3349.62 71.4900   1
  -1   2   0 3501.07 82.2700   1
  -1   2   0 3245.34 86.9100   1
  -1  -2   0 3411.78 64.3700   1
   1  -2   0 3356.26 68.3000   1
   1  -2   0 3503.06 63.9300   1
   2   0   0 1016.99 35.5300   1
  -2   0   0 1048.94 42.5600   1
   2   0   0 1341.79 42.2800   1
  -2   0   0 1210.10 38.8300   1
   2   0   0 1216.85 39.6500   1
   0   0   1 12.0000 17.8300   1
   0   0   1 12.1400 8.59000   1
   0   0  -1 15.5600 9.61000   1
   0   0  -1 12.0700 10.2200   1
   0   0  -1 41.6700 11.2100   1
   0   0   1 18.0300 10.9200   1
   0   0   1 15.1900 8.54000   1
   0   0   1 15.2000 9.56000   1
   0   0  -1 8.25000 11.7500   1
   0   1   1 1624.95 45.9600   1
   0   1   1 1383.01 41.2800   1
   0   1  -1 1396.58 36.8900   1
   0   1   1 1401.82 39.0700   1
   0  -1  -1 1516.06 44.1600   1
   0   1   1 1218.41 43.9800   1
   0   1   1 1491.28 47.3900   1
   0  -1   1 1254.74 51.1900   1
   1   0  -1 19.1100 11.7600   1
  -1   0  -1 13.9700 8.16000   1
   1   0  -1 11.1600 6.89000   1
  -1   0   1 16.3600 9.30000   1
  -1   0   1 18.9400 11.1700   1
  -1   0   1 14.4500 11.6700   1
  -1   0  -1 16.1300 12.6600   1
   1   0  -1 21.9900 13.0200   1
   1   0   1 19.9700 11.8500   1
   1   0   1 17.6100 11.0700   1
  -1   0  -1 18.1500 11.0600   1
  -1   0   1 16.7900 13.6000   1
   1   0  -1 20.1500 13.6800   1
  -1   0   1 14.3100 10.6900   1
  -1  -1   1 13220.8 118.410   1
  -1   1   1 13573.0 139.970   1
  -1   1  -1 12627.4 168.790   1
  -1  -1   1 13682.3 151.210   1
   1  -1   1 12536.3 147.110   1
   1  -1  -1 13968.9 147.240   1
   1   1  -1 13656.2 146.210   1
  -1   1  -1 14202.3 131.310   1
  -1   1   1 14065.7 163.130   1
   1  -1   1 13824.6 130.290   1
  -1   1   1 14443.1 144.250   1
  -1   1   1 14434.2 151.510   1
  -1  -1   1 13123.4 133.390   1
   1  -1   1 13336.0 125.400   1
   1  -1  -1 14161.1 146.600   1
  -1  -1  -1 13564.0 131.340   1
   1   1   1 13339.0 133.660   1
   0   3   0 24.9700 20.5100   1
   0   3   0 11.6600 10.7400   1
   0  -3   0 9.21000 22.9700   1
   0   3   0 9.86000 11.8100   1
   0  -3   0 14.3100 13.6600   1
   0  -3   0 20.9800 19.6300   1
   2  -2   0 44232.7 241.840   1
  -2   2   0 44723.7 281.930   1
  -2   2   0 45608.8 302.130   1
   0  -2   1 21.7800 12.0100   1
   0  -2   1 16.4600 18.0200   1
   0   2   1 17.7600 12.9600   1
   0  -2  -1 16.3800 9.23000   1
   0   2   1 15.5400 12.5500   1
   0  -2  -1 13.2300 14.1800   1
   0  -2   1 15.7300 16.8700   1
   0  -2  -1 18.7100 9.98000   1
   0  -2  -1 11.3700 9.99000   1
   0   2   1 19.4200 17.6800   1
  -1   3   0 23098.9 213.910   1
   1   3   0 21886.3 155.180   1
  -1   3   0 22956.8 197.500   1
   1  -3   0 21673.1 183.330   1
   1  -2   1 3069.74 58.6000   1
  -1   2  -1 2935.43 57.1100   1
  -1   2   1 3017.12 68.4000   1
   1  -2  -1 3127.09 59.5800   1
   1   2  -1 2852.95 64.9000   1
  -1   2   1 2691.16 57.4600   1
   1  -2  -1 2821.82 64.7900   1
  -1   2   1 3126.38 66.7700   1
  -1   2   1 2816.45 67.7400   1
   1  -2  -1 2813.04 59.6200   1
   1  -2  -1 3024.82 65.9600   1
  -1   2  -1 2723.26 62.8800   1
   1   2   1 3099.91 74.9700   1
  -1  -2  -1 2720.28 55.8000   1
   1  -2  -1 2596.99 57.5800   1
  -1   2   1 2943.68 67.6500   1
   1  -2   1 3146.70 81.1700   1
  -1   2  -1 3133.70 88.3200   1
   1   2  -1 2872.19 55.1400   1
  -1  -2  -1 3208.09 69.0300   1
  -1  -2   1 3069.94 76.7500   1
   2   0   1 28759.3 187.250   1
  -2   0   1 30172.3 198.460   1
  -2   0   1 30520.6 210.520   1
  -2   0  -1 31496.8 351.450   1
  -2  -1  -1 6700.67 97.6800   1
  -2   1  -1 6961.88 102.720   1
   2   1  -1 7402.10 91.0400   1
  -2   1  -1 7417.29 103.930   1
  -2   1   1 6938.99 102.130   1
  -2  -1   1 6955.55 88.1700   1
   2  -1   1 6772.78 96.8400   1
  -2   1   1 7690.11 110.450   1
   2   1  -1 7493.66 111.900   1
   2   1   1 7346.87 100.140   1
   2  -1  -1 6472.35 81.2500   1
   2   1   1 7080.16 88.7000   1
  -3   0   0 4.56000 14.1000   1
   3   0   0 6.50000 9.51000   1
   3   0   0 -0.9600 10.6800   1
  -3   0   0 0.08000 12.2700   1
   3   0   0 16.5800 16.4400   1
   3  -1   0 53.1600 11.6000   1
   3  -1   0 60.3700 13.3800   1
  -3  -1   0 71.9500 14.6900   1
   3   1   0 66.4700 15.4000   1
   3  -1   0 57.9200 14.5100   1
  -3  -1   0 56.2300 14.0400   1
  -3   1   0 58.9500 14.8800   1
  -3   1   0 55.4400 13.2400   1
   2  -3   0 13749.5 120.600   1
  -2   3   0 13177.1 144.600   1
   2  -3   0 12801.1 134.180   1
  -2   3   0 13526.5 178.290   1
   2  -3   0 13121.6 130.180   1
  -2   3   0 12846.8 146.850   1
  -2  -3   0 12512.0 137.610   1
   2  -3   0 12416.1 111.360   1
   2  -2  -1 33061.2 201.800   1
  -2   2  -1 31968.6 264.850   1
  -2  -2  -1 32262.8 191.560   1
  -2   2   1 33824.2 202.510   1
  -2   2   1 32128.8 212.710   1
   2  -2   1 31119.9 202.950   1
  -2   2   1 31810.1 227.380   1
   2   2  -1 32929.7 181.980   1
  -2  -2   1 31789.9 188.080   1
  -2  -2  -1 34038.8 242.210   1
  -2  -2  -1 32865.4 227.090   1
   2  -2  -1 32250.0 172.640   1
   2  -2   1 34033.4 261.380   1
  -2   2   1 31757.9 208.910   1
  -2  -2   1 32110.7 197.160   1
   0  -4   0 2590.20 75.0700   1
   0   4   0 2273.90 51.2800   1
   0   4   0 1622.48 132.890   1
   0  -4   0 2836.73 84.9300   1
   0   4   0 2715.34 70.5600   1
   1   3   1 1296.71 36.9200   1
  -1   3   1 1655.31 70.3000   1
   1  -3  -1 1574.99 50.1300   1
   1  -3  -1 1485.22 38.6300   1
   1  -3  -1 1394.76 45.2200   1
   1  -3   1 1201.50 53.2900   1
   1  -3   1 1431.73 55.5300   1
  -1   3   1 1404.38 50.4700   1
  -1  -3   1 1555.78 44.4800   1
   1  -3   1 1359.05 40.2800   1
   1  -3  -1 1449.71 43.1600   1
  -1   3  -1 1616.15 58.0500   1
   1   3   1 1299.02 37.9900   1
  -1  -3   1 1484.00 50.8400   1
   1  -3  -1 1733.65 57.2900   1
  -1   3   1 1241.65 42.3900   1
   1   3   1 1507.49 47.1300   1
  -1   3   1 1307.28 40.0500   1
   1   3  -1 1319.20 36.5100   1
   1  -3  -1 1210.04 33.9000   1
   3  -2   0 1427.34 44.4200   1
  -3   2   0 1000.31 48.9400   1
   3   2   0 1526.20 44.6900   1
   3  -2   0 1397.20 43.3300   1
  -3  -2   0 1352.54 51.8400   1
   3  -2   0 1419.21 44.4700   1
  -3   2   0 1544.02 50.9100   1
  -1  -4   0 217.760 16.9400   1
   1  -4   0 232.420 17.2000   1
   1  -4   0 138.510 13.7100   1
   1  -4   0 232.110 25.4700   1
  -1   4   0 139.350 15.4300   1
  -1  -4   0 266.080 26.1800   1
  -1   4   0 228.860 22.1200   1
   1  -4   0 214.760 22.3000   1
   1   4   0 230.890 18.3400   1
   1  -4   0 206.970 15.3300   1
  -1   4   0 224.870 25.7400   1
   1  -4   0 276.770 28.0200   1
  -3   0  -1 2.64000 12.4600   1
   3   0  -1 12.4200 14.0900   1
  -3   0   1 13.1600 13.7500   1
   3   0  -1 13.3600 11.3800   1
   3   0  -1 7.20000 12.1400   1
  -3   0   1 15.9300 13.4500   1
  -3   0  -1 13.0600 11.9900   1
   3   0   1 17.2500 14.3400   1
  -3   0   1 11.4000 14.0200   1
  -3   1   1 2856.27 65.6000   1
  -3  -1  -1 2884.93 74.7000   1
   3   1   1 2688.59 62.3000   1
   3   1  -1 3090.11 59.1000   1
  -3  -1   1 3023.77 62.5100   1
  -3  -1   1 3022.76 66.7900   1
   3  -1  -1 2904.23 60.6700   1
  -3   1   1 2632.22 53.6400   1
   3   1   1 2840.50 62.7000   1
  -3   1   1 3107.25 72.7000   1
  -3  -1  -1 2747.75 66.5700   1
   3  -1   1 2709.46 57.8800   1
   3   1  -1 3185.13 62.2900   1
  -3  -1   1 2923.38 64.1600   1
   3   1  -1 2853.18 60.0500   1
   3  -1  -1 2558.73 56.0800   1
   3   1   1 2902.77 59.7900   1
   2  -3   1 11702.8 148.030   1
  -2   3   1 12719.9 150.130   1
  -2  -3  -1 12562.9 117.450   1
  -2   3   1 12415.7 135.360   1
   2   3   1 11789.5 140.280   1
  -2   3  -1 11848.1 138.130   1
  -2   3   1 13589.9 130.100   1
  -2   3   1 12361.7 131.780   1
   2  -3  -1 12810.5 119.000   1
  -2  -3   1 12389.6 115.450   1
   2   3  -1 12661.9 113.430   1
   2  -3   1 13205.9 136.570   1
  -2   3   1 12089.6 128.400   1
   2  -3  -1 12454.4 139.850   1
   3  -3   0 2852.25 53.9400   1
  -3   3   0 2894.69 63.8200   1
   3  -3   0 3410.82 68.5100   1
  -3  -3   0 3319.92 75.1400   1
   3   3   0 2943.68 54.4300   1
  -3   3   0 3301.52 77.5000   1
  -3   3   0 3399.62 95.6900   1
  -2   4   0 28056.1 199.840   1
   2  -4   0 27579.3 183.250   1
   2  -4   0 29979.2 280.930   1
  -2   4   0 28589.6 210.820   1
   2   4   0 28055.1 159.560   1
  -2   4   0 29321.4 239.480   1
   0  -4   1 9.17000 9.51000   1
   0   4   1 6.77000 15.4100   1
   0  -4  -1 2.57000 13.4200   1
   0   4   1 7.38000 14.0600   1
   0  -4  -1 6.66000 8.42000   1
   0   4   1 0.97000 12.4200   1
   0   4  -1 2.50000 10.8500   1
   0  -4  -1 9.11000 16.0300   1
   0  -4   1 7.98000 25.0800   1
   4   0   0 2384.93 52.6000   1
   4   0   0 2705.01 53.1900   1
  -4   0   0 2263.66 55.3300   1
  -4   0   0 2478.15 57.3200   1
   4   0   0 2571.80 58.1900   1
  -3   2   1 566.520 31.7700   1
   3  -2  -1 595.700 28.9200   1
  -3   2   1 513.250 28.0900   1
  -3   2   1 535.280 29.4400   1
   3  -2  -1 508.290 25.6500   1
   3   2  -1 458.750 23.3500   1
  -3   2   1 474.140 24.2000   1
   3   2  -1 537.040 25.3200   1
  -3  -2  -1 487.860 25.7300   1
   3  -2  -1 615.180 32.1400   1
  -3   2   1 489.330 27.2000   1
   3  -2   1 462.280 26.2300   1
  -3  -2   1 701.700 36.0700   1
   3   2   1 546.810 27.4900   1
  -3  -2  -1 480.550 26.0900   1
  -3  -2   1 470.030 23.5000   1
   3   2   1 576.650 31.0600   1
  -3  -2  -1 642.540 31.7900   1
   3  -2   1 659.620 34.4400   1
  -4  -1   0 16398.0 147.360   1
  -4  -1   0 15035.8 143.900   1
   4   1   0 14948.4 134.070   1
   4  -1   0 15828.8 134.870   1
  -4   1   0 15484.6 153.230   1
   1  -4  -1 1248.61 43.1400   1
  -1   4   1 1278.37 46.1000   1
  -1  -4   1 946.140 60.9300   1
   1   4   1 1224.37 41.0700   1
   1   4  -1 1115.00 34.5100   1
   1   4   1 1479.63 50.9500   1
  -1   4   1 1242.08 50.8000   1
  -1  -4  -1 1326.00 40.3800   1
   1   4   1 1050.82 32.3400   1
   1  -4  -1 1174.63 38.7900   1
  -1   4  -1 1154.57 52.2600   1
  -1   4   1 1127.53 46.4700   1
  -1  -4   1 1073.51 33.6800   1
   1  -4   1 1283.09 51.6600   1
   1  -4  -1 1185.18 41.1900   1
   1  -4  -1 1287.98 36.3100   1
  -1   4  -1 1276.33 49.7100   1
   1  -4  -1 1278.14 44.6100   1
   1  -4   1 1323.26 43.5700   1
   1  -4   1 955.440 62.1100   1
   1  -4  -1 1157.02 33.2100   1
   1   4  -1 1046.25 80.3200   1
   0   1   2 14.4100 13.8800   1
   0  -1   2 5.59000 10.5700   1
   0   1   2 8.52000 15.0100   1
   0   1   2 14.0900 12.7000   1
   0   1  -2 14.0300 14.1600   1
   0  -1   2 15.7000 12.8800   1
   0  -1  -2 8.48000 12.5700   1
   0   1   2 12.9800 13.0900   1
   0  -1  -2 16.8700 14.6100   1
   0  -1   2 18.8200 13.7200   1
   0   1   2 14.9500 16.2900   1
   0   1   2 12.2000 11.7900   1
   0   1  -2 16.1100 14.2200   1
   0   1   2 13.2200 11.1300   1
  -1   0   2 8.98000 12.6700   1
   1   0  -2 10.1200 12.5300   1
  -1   0  -2 11.1000 16.3400   1
  -1   0   2 16.2200 15.4900   1
   1   0   2 12.1000 10.7600   1
  -1   0  -2 10.9200 11.2500   1
  -1   0   2 42.0200 13.4900   1
   1   0  -2 17.0300 13.6100   1
   1   0  -2 9.84000 17.5300   1
  -1   0   2 1.49000 14.9800   1
  -1   0   2 11.7400 8.45000   1
   1   0  -2 13.4900 9.38000   1
   1   0   2 12.4500 11.2300   1
  -1   0  -2 8.76000 16.6100   1
   1   0   2 12.5600 11.3300   1
  -1   0   2 12.0900 11.3400   1
   1   0  -2 7.86000 13.7100   1
   0   5   0 -3.6400 15.2400   1
   0  -5   0 17.9100 21.7800   1
   0   5   0 1.82000 12.5100   1
   0  -5   0 -2.4100 9.33000   1
   0   5   0 4.28000 8.97000   1
   0  -5   0 0.34000 15.2100   1
  -1  -1   2 34269.7 320.950   1
   1  -1   2 37116.0 216.720   1
  -1  -1   2 35345.6 214.450   1
  -1   1   2 36295.3 236.070   1
  -1  -1  -2 33961.3 359.270   1
   1  -1   2 36580.9 250.350   1
   1   1   2 35769.6 223.460   1
  -1  -1   2 36865.1 231.600   1
   1  -1  -2 35233.1 220.130   1
   1  -1  -2 35693.9 212.450   1
  -1  -1   2 36536.6 213.740   1
  -1   1   2 37612.8 221.540   1
   4  -2   0 1163.46 39.9900   1
   4  -2   0 987.110 32.8000   1
  -4   2   0 1012.55 48.4500   1
  -4  -2   0 1187.57 47.4900   1
   4  -2   0 966.040 33.5900   1
  -4   2   0 1027.28 40.0200   1
   4   2   0 1080.64 37.2400   1
  -4  -2   0 999.530 39.9500   1
   1   5   0 1304.04 37.7200   1
  -1  -5   0 1377.18 45.1300   1
  -1   5   0 1492.10 67.3200   1
  -1   5   0 1251.77 44.9600   1
   1  -5   0 1314.38 36.7000   1
   1  -5   0 1345.54 39.8800   1
   1  -5   0 1470.41 47.0900   1
   1  -5   0 1346.63 44.7000   1
  -1   5   0 1094.13 37.7500   1
  -1  -5   0 1097.15 34.8800   1
   0  -2   2 2075.82 53.9500   1
   0  -2  -2 1863.92 53.6400   1
   0   2   2 2002.34 50.5200   1
   0  -2  -2 1754.54 43.2000   1
   0  -2   2 1889.12 48.5600   1
   3  -3  -1 46329.7 232.670   1
  -3   3   1 48097.1 323.260   1
   3  -3   1 46474.5 236.090   1
   3   3   1 47197.4 285.410   1
   3   3  -1 47932.2 257.470   1
  -2  -4  -1 15740.8 137.770   1
   2  -4  -1 15761.4 139.270   1
  -2   4   1 15562.8 175.960   1
  -2   4  -1 15215.4 218.890   1
  -2  -4   1 17443.1 147.860   1
   2   4   1 15539.3 135.340   1
  -2  -4  -1 15566.1 135.590   1
   2   4  -1 15679.1 149.370   1
   2  -4  -1 16942.6 152.330   1
   2  -4  -1 15744.2 131.610   1
  -2   4  -1 17024.5 183.520   1
  -2   4   1 15851.0 168.260   1
  -2   4   1 17394.8 182.790   1
   2  -4   1 15999.7 138.490   1
  -4   0   1 763.570 36.6000   1
  -4   0   1 620.830 29.3400   1
  -4   0   1 702.340 25.8400   1
   4   0  -1 838.430 30.6200   1
   4   0  -1 888.990 32.3200   1
   4   0  -1 984.970 32.6000   1
   4   0   1 741.780 30.0200   1
  -4   0  -1 718.670 44.3300   1
  -4   0  -1 813.530 37.6300   1
   1  -2  -2 45709.9 255.120   1
   1  -2   2 46608.2 230.280   1
   1   2   2 48344.8 389.230   1
  -1  -2   2 47395.5 263.930   1
  -1   2   2 47105.3 285.620   1
   1   2  -2 46739.2 227.440   1
   1  -2   2 46503.0 288.000   1
   1   2  -2 46954.8 281.460   1
  -1  -2   2 47052.5 269.780   1
   2   0   2 54479.3 258.840   1
   2   0  -2 54792.2 303.000   1
  -2   0   2 56980.7 274.320   1
   3   4   0 35102.0 195.550   1
   3  -4   0 35552.4 219.160   1
  -3   4   0 33689.6 181.620   1
  -4  -1   1 1609.97 45.6800   1
  -4  -1   1 1586.03 36.5300   1
  -4   1   1 2021.02 49.0800   1
   4   1  -1 1703.62 42.7600   1
   4  -1  -1 1676.62 44.8800   1
   4  -1  -1 1769.81 44.7200   1
  -4   1   1 1796.91 53.4400   1
   4   1   1 2040.61 49.8400   1
  -4  -1   1 1493.02 44.6100   1
  -4   1  -1 1960.45 66.0900   1
   4  -1   1 2072.44 51.7000   1
  -4  -1  -1 1968.20 58.3800   1
  -4   1   1 2001.42 59.4500   1
   4  -1  -1 1885.52 49.2600   1
   4   1  -1 2033.56 49.5800   1
   2  -1   2 40843.5 233.540   1
  -2   1   2 39015.2 244.630   1
  -2   1   2 40071.6 243.040   1
  -2  -1   2 40658.0 236.670   1
  -2  -1   2 41810.4 249.640   1
   2  -1  -2 39194.9 246.840   1
   2  -1  -2 39193.0 277.300   1
  -2   1  -2 40028.9 243.440   1
  -2   1   2 41152.2 245.730   1
  -2   1  -2 40805.8 302.120   1
   2  -5   0 3178.92 71.1100   1
   2  -5   0 3342.41 62.2400   1
  -2  -5   0 3363.09 65.1000   1
  -2   5   0 3249.30 74.6900   1
   2  -5   0 3345.38 66.3000   1
  -2   5   0 2929.37 86.8200   1
   0   5   1 486.470 30.7200   1
   0  -5  -1 447.780 26.6700   1
   0   5   1 403.510 19.8600   1
   0  -5   1 575.820 40.0000   1
   0  -5  -1 493.010 33.9700   1
   0  -5  -1 589.500 31.7700   1
   0  -5   1 436.060 20.6900   1
   0   5   1 603.000 35.7000   1
   0  -5   1 283.050 26.1400   1
  -4   3   0 26065.2 217.790   1
  -4   3   0 26895.7 226.160   1
   4   3   0 26145.0 174.050   1
   4  -3   0 24971.9 167.920   1
  -4   3   0 26218.3 212.080   1
  -4  -2   1 10336.1 103.650   1
  -4  -2  -1 10103.3 129.330   1
  -4   2   1 9933.96 125.320   1
  -4  -2   1 10823.0 121.510   1
  -4  -2  -1 9841.62 125.140   1
  -4   2   1 11380.8 135.230   1
  -4   2  -1 9814.33 128.960   1
   4   2  -1 10177.2 108.110   1
  -4  -2   1 11098.1 124.100   1
  -4   2   1 9591.61 127.130   1
  -4   2   1 9889.56 118.390   1
  -4  -2  -1 10601.4 145.660   1
   4  -2   1 11021.8 115.970   1
   4  -2  -1 10311.9 113.140   1
   4   2  -1 10466.8 109.830   1
   0   3   2 18.1400 12.1200   1
   0  -3   2 12.3700 10.6800   1
   0   3   2 42.1000 19.1000   1
   0  -3  -2 10.1800 7.84000   1
   0  -3   2 14.6300 10.6600   1
   0   3   2 13.4500 7.67000   1
   0  -3  -2 21.6700 18.1200   1
   0  -3   2 24.0800 23.5200   1
   0   3   2 23.4100 18.2100   1
   0  -3   2 18.5800 13.7500   1
   0  -3  -2 22.4100 13.4200   1
   0  -3   2 14.9600 10.5400   1
   0  -3  -2 24.3000 17.4800   1
   1   5   1 3369.14 85.2700   1
   1  -5  -1 2954.13 68.3900   1
  -1   5  -1 2860.02 93.1100   1
   1  -5   1 2514.16 64.8700   1
  -1  -5   1 3005.05 60.6900   1
   1  -5  -1 2774.88 57.6500   1
   1   5   1 2562.67 63.7300   1
   1   5  -1 2527.59 52.0600   1
  -1  -5  -1 2852.88 56.8200   1
  -1  -5  -1 3318.62 71.0600   1
  -1   5   1 2960.24 90.7900   1
   1  -5  -1 2783.19 63.3100   1
  -1   5   1 2955.93 68.1300   1
   2   2   2 32855.7 257.240   1
   2  -2   2 34659.5 233.260   1
  -2   2  -2 31599.8 276.800   1
   2  -2   2 33209.6 206.360   1
   2  -2  -2 31912.4 219.830   1
   2  -2   2 31881.0 322.750   1
  -2   2   2 32497.0 217.750   1
  -1   3  -2 7522.74 101.620   1
  -1   3   2 7412.35 105.750   1
   1  -3  -2 8506.73 125.160   1
   1   3   2 7857.49 95.8700   1
  -1  -3   2 8851.69 106.390   1
  -1  -3  -2 7711.72 228.850   1
  -1   3   2 8027.35 114.240   1
  -1   3   2 7482.26 107.160   1
  -1  -3   2 8012.50 100.760   1
  -1   3   2 8640.71 109.890   1
  -1  -3   2 7926.87 102.200   1
  -1   3  -2 8321.63 151.020   1
   1   3  -2 7843.24 102.090   1
  -1  -3  -2 7870.68 87.7800   1
   1  -3   2 8838.18 108.820   1
   3  -4  -1 5462.16 89.5100   1
   3  -4  -1 5179.08 80.1600   1
  -3   4   1 5190.20 99.2700   1
   3  -4   1 4911.67 101.450   1
  -3   4   1 5636.97 116.960   1
   3  -4  -1 5754.80 85.9300   1
  -3   4   1 5811.95 116.430   1
   3   4   1 4896.54 91.9800   1
   3   4  -1 5713.28 91.7800   1
  -3  -4   1 4830.17 78.1300   1
   3   4   1 4712.01 65.9500   1
  -3  -4  -1 5430.68 88.7700   1
  -3  -4   1 4915.17 68.3400   1
  -3   4   1 5215.31 74.8000   1
   3   4  -1 4847.20 78.5200   1
   3  -4  -1 5056.00 83.7600   1
  -3   4   1 5542.45 87.2300   1
  -3   4   1 4959.41 94.7800   1
   5   0   0 14.4400 14.9200   1
  -5   0   0 -1.7700 12.4000   1
  -5   0   0 5.34000 11.4400   1
   5   0   0 16.3900 12.4700   1
   3   0  -2 13.3000 13.8600   1
  -3   0   2 27.6600 15.2700   1
   3   0  -2 23.2600 19.1300   1
  -3   0   2 19.2100 13.8000   1
  -3   0  -2 9.97000 11.9200   1
  -3   0   2 20.5800 10.7200   1
  -3   0  -2 13.8200 10.7200   1
  -3   0   2 43.4000 13.4600   1
  -3   0   2 22.6400 12.8600   1
   3   0   2 11.1300 8.64000   1
   3   0   2 24.1000 14.6400   1
  -3   0  -2 10.0400 11.7800   1
   3   0  -2 27.9200 9.83000   1
  -5   1   0 12887.3 162.520   1
   5   1   0 14303.7 125.690   1
   5  -1   0 12540.2 178.880   1
   0   6   0 11782.4 112.360   1
   0  -6   0 11401.3 149.690   1
   0  -6   0 13113.6 127.640   1
  -3  -1   2 253.630 19.1700   1
  -3   1   2 312.400 24.2500   1
   3   1  -2 303.610 22.2700   1
   3  -1  -2 314.250 22.9100   1
  -3   1   2 262.020 20.7400   1
  -3   1  -2 243.970 21.7500   1
  -3   1   2 248.650 20.2500   1
   3   1  -2 409.530 33.6900   1
  -3  -1   2 301.150 24.4200   1
   3  -1  -2 258.470 22.4100   1
  -3   1   2 282.180 22.7400   1
   3  -1   2 177.220 26.9100   1
  -3  -1  -2 220.920 19.2600   1
   3   1   2 201.380 19.1200   1
  -3   1  -2 119.660 20.1700   1
  -3   1   2 353.330 23.6300   1
   3   1   2 285.330 21.9000   1
   3  -1   2 339.430 23.2100   1
  -3  -1  -2 260.260 20.5700   1
  -3   1  -2 236.280 21.6300   1
   3   1  -2 251.530 17.6100   1
  -3  -1   2 293.160 18.4300   1
   3  -1  -2 262.770 18.8800   1
   3   1   2 259.520 18.9800   1
  -2  -5   1 701.470 27.3200   1
   2   5  -1 473.990 51.5600   1
  -2   5   1 620.800 26.4900   1
   2  -5  -1 787.020 28.5600   1
  -2  -5  -1 649.120 26.1400   1
  -2  -5   1 661.540 31.4100   1
   2   5  -1 739.920 31.5200   1
  -2   5  -1 904.450 56.3100   1
  -2   5   1 506.100 30.7800   1
   2  -5  -1 688.290 29.0300   1
   2   5   1 682.740 35.2200   1
   2  -5   1 789.930 31.7400   1
   2  -5  -1 656.640 39.8300   1
   2  -5  -1 537.240 29.2000   1
  -2   5   1 672.220 40.6000   1
  -2   5  -1 760.140 35.2200   1
   2  -5   1 710.210 32.7300   1
  -2   5   1 587.400 31.9200   1
  -4   3   1 3530.18 86.9300   1
   4  -3  -1 3360.33 68.0800   1
   4   3  -1 3349.82 63.6500   1
  -4   3   1 2994.09 59.0200   1
  -4  -3  -1 3471.52 72.7100   1
  -4  -3  -1 3697.86 77.3900   1
  -4  -3  -1 3778.15 73.3200   1
  -4   3   1 3605.93 88.0700   1
   4  -3  -1 3742.29 65.8300   1
  -4   3   1 3124.73 75.2100   1
   4   3  -1 3223.58 59.1000   1
  -4   3  -1 2967.80 68.9800   1
   4  -3   1 3452.02 64.4300   1
  -4   3   1 3323.28 78.3500   1
  -4  -3   1 3835.43 76.4600   1
  -2   3   2 3770.69 79.2000   1
   2  -3  -2 3754.31 59.2400   1
  -2   3   2 3207.00 69.8300   1
   2  -3   2 3856.10 76.3800   1
  -2   3  -2 4007.95 110.080   1
   2   3  -2 3866.69 66.6600   1
  -2  -3   2 3938.36 73.8300   1
  -2  -3   2 3791.74 66.5700   1
  -2  -3  -2 3324.98 60.2300   1
  -2  -3  -2 3272.93 61.1500   1
  -2  -3   2 3191.02 66.5500   1
  -2   3   2 3922.53 79.7900   1
   2   3  -2 3849.16 88.3800   1
  -2   3   2 3660.60 74.9500   1
   2  -3  -2 3919.03 80.4800   1
   2   3   2 4092.00 99.2000   1
   2  -3  -2 3873.83 66.0100   1
  -2  -3  -2 3250.19 89.4500   1
   2  -3  -2 4005.66 79.7500   1
   3  -5   0 2956.04 65.7900   1
  -3   5   0 2525.19 76.6000   1
  -3   5   0 2976.48 82.3900   1
  -3  -5   0 2566.13 55.7900   1
  -3   5   0 2560.21 68.7000   1
   3  -5   0 2352.89 52.2100   1
   3  -5   0 2861.46 54.8600   1
   3  -5   0 2933.24 67.3100   1
  -3   5   0 2499.86 51.1200   1
   3   5   0 2493.49 51.1800   1
   4  -4   0 72.2400 20.0500   1
  -4   4   0 71.2100 16.9700   1
   4   4   0 65.7700 14.3700   1
  -4  -4   0 68.1100 16.3500   1
   4  -4   0 44.3300 10.6000   1
  -4   4   0 51.6700 9.84000   1
  -4   4   0 40.4500 13.6100   1
  -4   4   0 41.2300 13.8800   1
   4  -4   0 62.4800 17.3100   1
  -5   2   0 67586.5 333.450   1
   5  -2   0 64181.0 373.920   1
   0  -4   2 992.750 37.8500   1
   0   4   2 1064.25 42.9000   1
   0  -4   2 1021.72 46.5500   1
   0  -4   2 910.890 35.8600   1
   0  -4  -2 1074.92 36.4000   1
   0   4   2 1114.55 44.0500   1
   0   4   2 1289.56 49.9400   1
   0   4   2 848.680 33.1300   1
   0  -4   2 1095.45 37.2400   1
   0  -4   2 1234.69 51.6900   1
   0  -4  -2 777.110 41.3300   1
   0  -4  -2 1117.49 39.7800   1
   3  -2  -2 3705.45 65.1500   1
   3   2   2 3677.30 68.7000   1
  -3   2   2 4070.19 79.9800   1
  -3  -2  -2 4112.45 88.2800   1
  -3   2   2 4067.09 75.4700   1
  -3   2  -2 3939.41 95.2000   1
   3   2  -2 4251.83 86.0100   1
   3  -2  -2 4291.28 79.8800   1
  -3  -2   2 4222.19 83.1500   1
  -3   2   2 3451.14 78.1700   1
  -3   2   2 4518.59 85.2900   1
  -3  -2   2 3690.56 61.1800   1
  -3  -2   2 3828.15 67.5300   1
   3   2  -2 3894.28 71.6500   1
   3  -2   2 3892.14 70.3600   1
  -3  -2  -2 3600.93 87.2900   1
   3   2   2 3869.59 97.9800   1
   3   2   2 4062.08 79.6600   1
   3  -2  -2 4082.17 71.0300   1
  -3   2   2 4403.61 74.5500   1
  -5   0   1 3.96000 13.3800   1
  -5   0   1 7.03000 12.7100   1
   5   0   1 10.2800 15.6800   1
  -5   0  -1 8.12000 13.7900   1
   5   0  -1 5.45000 13.5900   1
  -5   0   1 10.3900 12.3200   1
   5   0  -1 11.9400 13.3400   1
   5   0  -1 -6.9700 14.5200   1
  -5   0  -1 2.36000 8.81000   1
   1   4   2 945.310 37.5500   1
   1   4  -2 859.900 40.5300   1
  -1  -4   2 1000.87 33.2600   1
   1  -4  -2 897.220 36.7400   1
  -1   4   2 1062.71 61.6100   1
   1  -4   2 1108.50 42.7400   1
  -1   4  -2 1031.09 53.4200   1
  -1  -4  -2 709.710 64.2200   1
   1  -4   2 998.570 30.9400   1
   1   4  -2 1087.43 35.7300   1
   1   4   2 823.420 42.4300   1
  -1  -4  -2 898.310 38.0100   1
  -1  -4   2 885.840 35.8500   1
   1  -4  -2 1211.67 47.7100   1
   1  -4  -2 1191.10 38.5800   1
  -1   4   2 1158.97 46.4600   1
   1   4   2 1164.40 49.9000   1
  -1   4   2 1219.58 51.1100   1
   1  -4  -2 1040.04 41.4700   1
   1  -4   2 1123.07 36.3800   1
   1  -4  -2 1177.88 34.2500   1
  -5  -1   1 2720.52 66.0400   1
   5   1   1 2556.16 53.2700   1
   5  -1  -1 2413.60 51.8700   1
   5  -1  -1 2591.76 54.8700   1
  -5  -1  -1 2602.24 61.5500   1
   5   1  -1 2682.89 56.8400   1
  -5   1   1 2453.89 49.6300   1
  -5  -1   1 2227.81 43.1700   1
  -5  -1   1 2072.11 50.7600   1
   5   1  -1 2276.55 47.7200   1
  -5   1  -1 2118.81 59.1800   1
  -5  -1  -1 2215.57 60.2900   1
  -5   1   1 2455.76 64.3200   1
  -5   1   1 2540.40 63.4400   1
  -2  -6   0 221.570 26.2500   1
  -2   6   0 195.200 23.3600   1
   2  -6   0 230.060 24.0300   1
   2  -6   0 218.250 21.4300   1
   2   6   0 198.680 16.7800   1
   2  -6   0 230.500 18.9500   1
  -2   6   0 219.750 16.5000   1
  -2  -6   0 258.480 18.6400   1
   2  -6   0 111.560 21.2400   1
   2   6   0 289.510 21.3900   1
  -2   6   0 278.130 30.1100   1
   2  -6   0 358.600 32.4300   1
   0   6   1 1.35000 14.5500   1
   0   6  -1 -3.6900 12.0700   1
   0  -6  -1 11.1500 11.3500   1
   0  -6  -1 4.21000 19.8100   1
   0   6   1 18.4800 14.1300   1
   0  -6   1 3.74000 22.3400   1
   0  -6   1 -2.3100 7.63000   1
   0  -6   1 -0.2800 16.5900   1
   0  -6  -1 -8.0900 19.9500   1
   1  -6  -1 8367.09 186.220   1
   1  -6   1 9437.00 116.980   1
   1   6   1 8378.76 115.510   1
   1  -6  -1 8571.29 94.2700   1
   1  -6   1 8543.57 133.260   1
  -1   6   1 7783.20 157.060   1
  -1   6  -1 8328.32 148.650   1
  -1   6   1 8545.77 127.620   1
   1   6   1 8978.61 132.200   1
   1  -6   1 8885.84 106.870   1
   1  -6   1 8205.47 92.3900   1
  -1  -6   1 8538.32 102.050   1
  -1  -6  -1 8993.74 97.4400   1
   3   5   1 4573.98 86.2500   1
   3   5  -1 4324.65 68.9900   1
  -3   5   1 3998.33 87.1300   1
   3  -5   1 4531.70 79.3800   1
  -3   5  -1 4160.60 104.070   1
   3   5   1 4680.40 93.4900   1
  -3   5   1 4123.30 91.9600   1
   3  -5  -1 4893.11 76.0800   1
  -3  -5  -1 4233.41 73.5200   1
  -3  -5   1 4381.07 75.3900   1
  -3  -5   1 5098.04 82.1900   1
  -3   5   1 4362.92 90.8500   1
  -3   5  -1 4843.88 98.7900   1
   3  -5  -1 4425.02 74.0600   1
  -3   5   1 4354.35 90.6500   1
   3  -5  -1 4613.83 69.5100   1
   3   5  -1 4300.66 69.6200   1
  -3   5   1 4607.21 76.3500   1
  -3  -5   1 4412.35 79.6900   1
   5  -3   0 8433.28 94.4600   1
   5  -3   0 9361.45 110.360   1
  -5   3   0 8086.38 118.680   1
   5   3   0 9480.33 122.080   1
   5   3   0 8751.70 105.330   1
  -4  -4   1 48480.0 267.370   1
   4   4  -1 46633.1 220.670   1
  -4   4   1 45259.4 276.170   1
  -4   4   1 48988.9 349.240   1
  -4   4  -1 45864.0 417.920   1
  -4   4   1 46365.1 274.320   1
   4  -4  -1 46669.8 229.200   1
   5   2  -1 10832.9 116.440   1
   5   2   1 10934.2 105.890   1
  -5   2   1 11215.0 105.980   1
   5  -2  -1 11034.0 119.340   1
  -5   2   1 11962.1 141.610   1
   5  -2  -1 11547.4 117.770   1
  -5   2   1 11144.6 155.970   1
  -5   2  -1 10384.7 173.540   1
  -5  -2  -1 11756.5 151.720   1
   5  -2   1 11905.3 133.650   1
  -5   2  -1 10988.2 150.310   1
   3  -3  -2 7673.08 92.8600   1
  -3   3   2 7846.90 129.320   1
  -3   3  -2 6981.52 95.7600   1
   3  -3  -2 7987.21 104.920   1
  -3   3   2 7240.95 116.330   1
  -3  -3   2 7274.92 99.5200   1
  -3  -3  -2 7339.87 104.250   1
   3   3   2 7138.66 107.740   1
   3  -3  -2 7412.09 123.630   1
  -3  -3  -2 7516.81 119.130   1
  -3   3   2 7044.35 107.930   1
   3  -3   2 7457.57 97.8300   1
  -3   3  -2 6960.44 125.570   1
  -3  -3   2 7841.70 98.5500   1
  -3  -3   2 7509.99 93.1700   1
  -3   3   2 7328.89 102.460   1
   3  -3  -2 7565.55 113.850   1
   3   3  -2 7015.44 112.940   1
  -2  -4  -2 951.770 38.9200   1
   2   4   2 988.750 35.8900   1
  -2   4   2 1010.36 45.1100   1
  -2   4   2 1102.00 40.2000   1
  -2  -4  -2 942.560 35.2500   1
   2  -4  -2 1043.49 39.5100   1
  -2   4   2 1164.83 49.2400   1
   2   4   2 977.130 40.4900   1
   2   4   2 989.170 38.7300   1
   2  -4  -2 1017.09 37.3800   1
  -2   4  -2 853.930 36.5100   1
  -2   4   2 1041.50 38.3900   1
  -2   4  -2 872.940 32.4600   1
   2  -4  -2 1049.81 32.6000   1
   2  -4  -2 824.520 38.5300   1
   2  -4   2 1076.19 47.2100   1
  -2  -4   2 1101.54 37.8600   1
   2  -4  -2 1277.37 59.4700   1
  -2   4   2 1011.57 46.2900   1
   2  -4   2 1035.61 40.9200   1
  -2   4  -2 771.330 43.4700   1
   2   4  -2 925.780 33.4500   1
   4   0  -2 8676.83 97.1800   1
  -4   0  -2 9285.49 129.810   1
  -4   0   2 9072.21 115.080   1
   4   0   2 9639.38 108.670   1
   4   1  -2 606.330 26.5700   1
  -4  -1   2 520.130 28.0200   1
  -4   1   2 514.760 30.9100   1
  -4  -1  -2 573.710 38.7000   1
   4  -1   2 349.660 35.7300   1
   4   1   2 394.130 33.0200   1
   4   1  -2 563.230 29.7600   1
  -4  -1   2 545.950 25.7900   1
   4   1   2 508.270 25.8600   1
  -4  -1   2 529.920 29.4500   1
  -4   1   2 513.070 25.5400   1
   4  -1  -2 621.190 28.9100   1
  -4   1   2 529.120 29.3100   1
   4  -1  -2 553.970 30.9300   1
  -4   1   2 480.050 27.7100   1
  -4   1  -2 446.800 23.2600   1
  -4   1   2 451.400 26.8200   1
   4   1  -2 537.000 27.7100   1
   4  -1  -2 609.910 31.5900   1
   4   1   2 563.410 27.2700   1
   4  -1   2 525.940 27.3200   1
  -4  -1  -2 459.730 26.3500   1
  -4   1  -2 429.570 28.7100   1
   4   5   0 97331.1 322.080   1
   2  -6  -1 7975.52 116.420   1
  -2  -6   1 7961.42 100.870   1
  -2  -6  -1 7256.19 99.5300   1
   2   6   1 7896.95 96.3300   1
  -2   6   1 8627.86 144.100   1
   2  -6   1 7920.94 110.580   1
   2  -6   1 8194.08 98.4600   1
   2   6   1 7485.35 104.190   1
   2  -6  -1 7613.50 95.9800   1
  -2   6   1 8093.73 159.320   1
   0  -5   2 2.07000 10.7500   1
   0   5   2 2.69000 8.13000   1
   0  -5  -2 3.68000 9.33000   1
   0   5   2 5.83000 19.5100   1
   0  -5   2 -3.7300 14.2500   1
   0  -5  -2 -0.2700 14.5600   1
   0  -5  -2 -3.7000 13.2000   1
   0  -5   2 -1.6600 9.35000   1
   0   5   2 8.11000 17.4600   1
   0  -5  -2 3.94000 10.0600   1
   0  -5   2 -2.5400 24.2400   1
   0  -5  -2 2.58000 16.8900   1
  -3   6   0 67371.5 382.040   1
   3   6   0 66120.1 265.290   1
   4   2   2 1718.43 44.2000   1
  -4   2   2 1511.44 51.0100   1
  -4  -2  -2 1574.20 59.8000   1
   4  -2   2 1755.19 46.5300   1
   4   2  -2 1628.62 42.0100   1
  -4  -2   2 1809.49 46.7700   1
   4   2   2 2053.99 54.1100   1
   4  -2  -2 1816.77 49.1800   1
  -4  -2   2 1813.65 45.2000   1
  -4   2   2 1680.91 44.7500   1
   4   2  -2 1932.74 56.4600   1
   4  -2  -2 1785.61 51.3600   1
  -4   2  -2 1669.42 60.6700   1
  -4   2   2 1793.66 55.5400   1
  -4  -2   2 1886.67 61.8500   1
   4  -2  -2 1902.83 47.7900   1
  -4   2   2 1788.24 55.2900   1
  -4  -2  -2 1645.20 52.7000   1
   4   2   2 1727.91 53.3400   1
  -4   2   2 1866.82 54.8900   1
   0  -7   0 -0.3200 24.8500   1
   0   7   0 23.1600 15.0100   1
   0  -7   0 24.7800 18.4100   1
   0   7   0 14.5200 6.93000   1
   0  -7   0 13.7700 11.1500   1
   0   7   0 3.41000 12.7700   1
  -5   3   1 15393.7 168.350   1
  -5  -3  -1 15604.2 161.080   1
  -5  -3   1 14205.0 124.840   1
  -5  -3   1 15729.4 152.270   1
   5   3   1 14536.5 128.450   1
  -5   3  -1 14122.6 184.760   1
   5  -3   1 14420.0 131.410   1
  -1  -5  -2 3315.46 85.7200   1
   1   5   2 3808.29 98.0500   1
  -1   5   2 3803.78 71.8300   1
  -1  -5   2 3966.47 77.5400   1
   1   5   2 4154.73 83.0000   1
   1  -5  -2 3759.02 68.1000   1
   1   5  -2 3986.68 75.3700   1
  -1  -5   2 3524.50 57.7900   1
   1  -5  -2 4238.86 86.3800   1
  -1   5   2 2963.07 116.790   1
  -1  -5  -2 3048.59 121.760   1
  -1   5  -2 3541.10 104.340   1
  -1  -5   2 4236.28 98.9800   1
   1  -5   2 3589.92 61.9400   1
  -1   5   2 3452.43 82.3100   1
  -6   0   0 32144.9 242.470   1
   6   0   0 34982.8 210.500   1
   1  -7   0 1544.57 70.6700   1
  -1   7   0 1304.47 62.6000   1
  -1  -7   0 1438.73 53.4800   1
   1  -7   0 1385.83 41.0200   1
   1   7   0 1270.04 39.8200   1
   1  -7   0 1307.14 67.6400   1
   1  -7   0 1764.09 46.4800   1
  -1   7   0 1766.53 59.7800   1
   1   7   0 1111.77 50.0400   1
   5  -4   0 88576.5 328.560   1
   6   1   0 3961.00 73.2500   1
   6   1   0 3562.55 64.1400   1
   6  -1   0 3830.01 74.9600   1
  -3  -4   2 15620.0 129.170   1
  -3   4  -2 15065.9 142.960   1
  -3  -4   2 15230.9 126.850   1
  -3   4   2 14929.2 127.000   1
   3  -4   2 15627.8 177.930   1
   3   4  -2 15802.2 130.210   1
  -3   4  -2 14593.5 198.090   1
   3  -4   2 16253.4 150.210   1
  -3   4   2 15034.3 149.730   1
   3   4   2 16094.2 165.920   1
   3   4   2 16669.3 171.980   1
   3  -4  -2 15651.9 137.630   1
  -3  -4  -2 16252.7 136.650   1
   3  -4  -2 14968.5 146.280   1
  -3   4   2 16504.7 163.840   1
  -3  -4  -2 14948.4 155.750   1
   0   0   3 9.98000 20.7800   1
   0   0  -3 18.5900 16.2000   1
   0   0   3 11.4000 8.98000   1
   0   0   3 15.2000 11.7100   1
   0   0  -3 15.3300 15.4100   1
   0   0   3 18.5600 10.2500   1
   0   0  -3 16.3400 15.6400   1
   0   0   3 20.6500 17.8600   1
   0   0   3 18.3200 14.4300   1
   0   1   3 40462.7 252.060   1
   0   1   3 40312.7 308.040   1
   0   1   3 40424.6 266.780   1
   0  -1   3 39511.3 242.470   1
   1   0   3 6.79000 12.5300   1
  -1   0   3 7.48000 14.5700   1
   1   0   3 7.73000 11.7500   1
   1   0  -3 -5.9900 14.5400   1
  -1   0   3 4.43000 7.98000   1
  -1   0   3 15.9800 16.7600   1
   1   0  -3 14.9500 13.0400   1
  -1   0  -3 13.0400 14.7000   1
  -1   0  -3 8.74000 13.8000   1
  -1   0   3 8.11000 14.5000   1
   1   0  -3 -0.5300 10.6100   1
  -1   0  -3 16.8400 14.4100   1
  -1   0   3 8.38000 9.17000   1
   1   0  -3 13.5800 14.1100   1
  -1   0  -3 5.08000 12.7600   1
  -1   0   3 7.31000 14.1000   1
   1   0   3 3.57000 10.1700   1
  -4   5   1 5513.96 114.380   1
   4  -5   1 6281.90 92.1800   1
  -4  -5  -1 6015.12 87.2000   1
  -4  -5  -1 6088.36 97.6600   1
   4   5  -1 5514.14 81.6900   1
   4  -5  -1 5320.01 98.4400   1
   4  -5  -1 5358.45 89.4500   1
  -4   5  -1 5468.86 103.830   1
   4  -5   1 5561.41 93.5200   1
   4   5  -1 5332.87 76.3200   1
   4   5   1 5200.81 77.8200   1
  -4   5  -1 5085.11 110.370   1
   2  -5  -2 6749.89 99.1100   1
  -2   5   2 6951.14 129.280   1
   2   5   2 6576.11 106.490   1
   2  -5  -2 6427.69 104.380   1
  -2   5   2 6284.66 113.030   1
   2  -5   2 6942.40 106.730   1
  -2   5  -2 6473.01 137.440   1
  -2  -5   2 6894.03 96.2300   1
   2   5  -2 6264.52 135.470   1
   2  -5  -2 6631.76 90.6200   1
  -2   5   2 6100.79 92.6200   1
  -6  -2   0 21281.6 186.980   1
  -6  -2   0 20360.1 180.140   1
   1   1   3 7018.00 101.130   1
  -1   1  -3 7759.31 100.790   1
  -1  -1   3 7728.44 110.840   1
  -1  -1  -3 7671.06 93.8400   1
  -1   1   3 7297.38 133.390   1
   1   1   3 7820.39 121.340   1
  -1   1  -3 7983.32 93.2500   1
  -1  -1   3 8312.39 107.360   1
  -1  -1  -3 7675.47 95.3100   1
  -1   1   3 7431.80 94.0500   1
   1  -1   3 7620.76 101.990   1
   1   1  -3 7188.40 107.460   1
   1  -1  -3 7368.75 107.700   1
  -1   1   3 7076.13 100.020   1
   1   1  -3 8103.37 97.2800   1
  -1   1  -3 7692.18 105.540   1
  -1  -1   3 7938.86 106.170   1
  -1  -1  -3 7352.72 99.7200   1
   1  -1   3 7939.43 109.450   1
   1   1   3 7328.70 115.720   1
  -1   1   3 7468.88 99.8700   1
  -1  -1   3 7675.06 153.450   1
   1  -1   3 7615.46 113.020   1
   4  -3  -2 1573.01 46.7900   1
  -4  -3   2 1328.19 39.1500   1
   4   3   2 1229.84 34.8500   1
  -4  -3   2 1201.01 39.7000   1
   4   3  -2 1446.81 38.6500   1
  -4   3  -2 1263.73 50.4900   1
   4  -3   2 1317.50 41.4200   1
  -4   3   2 1100.68 44.2400   1
  -4  -3  -2 1330.82 49.3400   1
  -4   3   2 1242.48 42.5800   1
   4  -3   2 1097.48 75.8400   1
   4   3   2 1076.62 39.3600   1
  -4   3   2 1097.10 47.9200   1
  -4  -3   2 1179.04 43.8600   1
  -4   3   2 1204.05 50.4400   1
   4  -3  -2 1356.59 39.8100   1
  -4   3   2 1102.94 37.0400   1
  -4   3   2 1106.96 42.1600   1
   4  -3  -2 1453.19 37.7300   1
   4  -3  -2 1445.32 50.4000   1
   4   3  -2 1496.01 52.8000   1
   3  -6  -1 214.640 18.9500   1
   3  -6   1 245.800 25.4400   1
  -3   6   1 195.830 22.2300   1
  -3   6  -1 189.660 25.3000   1
   3   6  -1 188.450 17.2600   1
   3   6   1 286.930 23.4000   1
  -3  -6   1 211.060 18.6000   1
  -3  -6  -1 239.470 23.0500   1
   3  -6   1 217.620 22.3500   1
  -3  -6  -1 213.320 22.5200   1
  -3   6   1 156.440 20.1800   1
   3   6   1 183.430 21.6600   1
   3  -6  -1 208.040 16.9600   1
   3  -6  -1 206.470 19.4900   1
  -3   6   1 218.110 20.6100   1
   3   6  -1 195.220 20.0200   1
  -3   6   1 234.830 19.4300   1
   3  -6   1 196.800 22.1500   1
   3  -6  -1 183.590 21.2500   1
  -3   6  -1 152.080 18.5200   1
   3  -6  -1 209.960 22.2000   1
  -3   6   1 144.610 19.2300   1
  -3  -6  -1 183.680 18.3100   1
  -2  -7   0 63921.6 269.700   1
  -2   7   0 64867.4 386.990   1
   0   2   3 4.52000 13.1100   1
   0  -2  -3 2.99000 16.3900   1
   0   2   3 2.11000 12.9700   1
   0   2   3 -1.6500 11.2000   1
   0  -2   3 -1.4100 10.0300   1
   0  -2  -3 11.5900 13.9100   1
   0   2   3 5.63000 12.6700   1
   0  -2  -3 10.7500 17.0800   1
   0   2   3 4.99000 17.7300   1
   0  -2   3 1.50000 10.9500   1
   0   2   3 3.49000 11.0800   1
  -6   0  -1 640.240 35.3300   1
   6   0  -1 939.220 33.4400   1
  -6   0   1 720.510 25.8900   1
   6   0  -1 862.250 34.3500   1
   6   0  -1 927.980 33.9800   1
   6   0   1 822.390 30.1900   1
  -6   0   1 812.020 34.0900   1
  -6   0  -1 643.020 45.4700   1
  -6   0   1 681.250 30.4000   1
  -1  -7  -1 721.000 37.7400   1
   1  -7  -1 569.240 29.1400   1
   1   7   1 622.650 34.2500   1
   1  -7  -1 717.800 35.2800   1
   1  -7   1 683.490 31.3900   1
   1  -7  -1 692.540 26.7000   1
  -1   7   1 475.720 31.4800   1
   1  -7  -1 533.980 40.1700   1
   1  -7  -1 745.700 34.6900   1
   1  -7   1 689.450 36.6700   1
  -1   7   1 531.070 42.3100   1
  -1  -7  -1 598.040 42.9000   1
  -1   7  -1 660.550 46.6100   1
  -1  -7   1 671.580 43.6500   1
   1   7  -1 603.220 26.1100   1
   1  -7   1 587.270 25.4400   1
   1   7   1 689.990 38.8600   1
  -1   7   1 606.470 36.7200   1
  -1  -7  -1 516.770 22.4600   1
  -1  -7   1 701.640 32.4700   1
   1  -7  -1 516.240 21.6800   1
   1   7   1 519.330 19.8200   1
   1  -7   1 712.730 32.3600   1
  -1  -7   1 568.130 28.8600   1
   1   7   1 461.680 29.0200   1
   5  -4  -1 6601.13 90.9700   1
   5  -4   1 5845.13 103.170   1
  -5   4   1 6366.18 119.140   1
  -5   4   1 6044.93 114.670   1
   5  -4   1 6703.91 87.4500   1
  -5   4   1 5906.49 109.550   1
   5   4  -1 6238.21 82.3200   1
  -5  -4   1 7051.02 89.6600   1
  -5   4   1 6832.15 124.030   1
   5  -4  -1 6224.53 88.2000   1
  -5  -4   1 7192.71 104.770   1
  -5  -4  -1 6363.02 109.440   1
   5   4  -1 6323.37 97.9200   1
  -5   4   1 6866.03 95.8700   1
  -6   1   1 2559.83 71.2200   1
  -6  -1  -1 2240.32 62.3700   1
  -6   1  -1 2386.59 77.4200   1
   6   1  -1 2527.46 57.5500   1
   6   1   1 2750.32 59.6800   1
  -6  -1   1 2646.20 53.5400   1
  -6   1   1 2997.28 64.4300   1
   6   1  -1 2576.22 57.1300   1
   6  -1  -1 2273.65 49.2200   1
  -6  -1   1 2363.99 57.1500   1
   6  -1   1 2919.36 61.4100   1
   6  -1  -1 2491.18 57.7400   1
  -1   2   3 10843.7 126.720   1
  -1  -2   3 12593.6 171.730   1
  -1  -2   3 10955.3 123.250   1
  -1   2   3 11879.5 153.130   1
   1   2   3 11704.6 143.480   1
   1  -2   3 11179.5 141.730   1
   1  -2  -3 11686.1 136.330   1
  -1  -2   3 11887.8 125.970   1
   1  -2  -3 11715.8 117.060   1
   1  -2   3 11943.7 164.270   1
  -1  -2   3 11515.8 121.780   1
  -2   0   3 9090.54 141.550   1
   2   0  -3 8347.70 107.370   1
  -2   0  -3 8258.36 111.920   1
   2   0   3 8919.57 121.590   1
   2   0  -3 8156.63 113.870   1
   2   0   3 7993.93 126.690   1
  -5   0  -2 7.84000 10.2400   1
  -5   0  -2 10.9900 12.8600   1
   5   0  -2 16.7700 13.7900   1
  -5   0   2 35.9200 16.6600   1
   5   0  -2 24.0700 13.9600   1
   5   0  -2 19.5300 15.4100   1
  -5   0   2 9.72000 13.1000   1
   5   0   2 11.6800 16.6300   1
  -5   0   2 15.6600 12.9700   1
  -2  -1  -3 6480.59 92.9200   1
  -2   1   3 5829.90 91.8300   1
  -2   1  -3 6258.95 89.5500   1
  -2  -1   3 5834.26 99.6900   1
  -2  -1   3 6195.71 93.5300   1
  -2   1   3 6675.38 96.8100   1
  -2   1   3 6888.72 117.870   1
  -2  -1   3 6670.61 108.320   1
  -2   1  -3 5670.84 93.0900   1
  -2  -1  -3 6693.74 87.4400   1
  -2  -1   3 6805.40 118.950   1
  -2  -1   3 5688.91 84.4000   1
   2   1   3 5599.17 89.5200   1
  -2   1  -3 5722.16 128.060   1
  -2  -1  -3 6234.68 138.140   1
  -2  -1  -3 6408.77 83.8000   1
  -2   1   3 6430.69 100.550   1
  -2  -1   3 6063.78 84.0700   1
   2  -1   3 5680.45 92.2400   1
  -4  -6   0 1439.34 42.4000   1
  -4   6   0 1413.08 64.5800   1
   4  -6   0 1849.60 55.7100   1
  -4  -6   0 1546.61 41.8100   1
  -4   6   0 1633.81 65.7300   1
  -4  -6   0 1509.73 51.3800   1
   4  -6   0 1475.47 41.8000   1
   4  -6   0 1248.92 53.9700   1
   4  -6   0 1680.71 48.5000   1
   4   6   0 1530.54 43.7900   1
  -4   6   0 1329.13 55.8200   1
   4  -6   0 1786.53 52.3100   1
   5   1  -2 18424.8 143.900   1
   5  -1  -2 19105.7 156.130   1
  -5   1   2 18354.8 152.280   1
   5   1  -2 19145.3 178.490   1
  -5   1   2 18271.1 167.120   1
  -5   1   2 19085.7 183.340   1
   5   1  -2 19212.1 147.430   1
  -5  -1  -2 18997.9 222.430   1
  -5  -1   2 19572.3 163.020   1
   6   3   0 70.0500 18.9700   1
  -6  -3   0 36.0200 16.2700   1
   6   3   0 43.0700 12.6500   1
  -6  -3   0 66.7400 12.9300   1
  -6   3   0 65.0300 13.6700   1
   6  -3   0 32.5900 11.3100   1
  -6   3   0 40.0600 13.4400   1
   6  -3   0 34.0300 14.1800   1
   6  -3   0 99.0300 21.0300   1
   0   6   2 29884.6 236.440   1
   0  -6  -2 28183.8 221.730   1
  -6   2   1 5273.18 90.8700   1
  -6  -2   1 5506.73 86.5400   1
   6   2  -1 5816.32 84.7400   1
  -6   2   1 6474.47 128.660   1
  -6  -2   1 5816.99 80.8000   1
  -6  -2   1 5457.82 87.6900   1
  -6  -2   1 5822.86 99.9100   1
   6   2   1 5990.66 79.9000   1
  -5   5   0 3540.71 90.7800   1
   5   5   0 4183.13 70.3100   1
  -5  -5   0 4207.20 83.5400   1
   5   5   0 4421.83 87.3300   1
  -5   5   0 3519.37 78.2700   1
  -5   5   0 3884.63 91.3700   1
   1  -6  -2 7651.15 94.6400   1
   1  -6  -2 6962.28 96.2900   1
  -1  -6   2 7710.22 126.730   1
  -1  -6  -2 6701.79 89.0900   1
  -1  -6   2 6709.05 87.0800   1
  -1   6  -2 7480.51 163.160   1
   1  -6  -2 6678.36 93.1200   1
   1  -6   2 6765.42 103.120   1
   1   6   2 6600.67 119.540   1
   1   6   2 6391.79 131.090   1
  -1   6   2 7177.15 129.390   1
   1   6   2 7529.44 102.840   1
   1  -6   2 7240.97 88.8000   1
  -3  -5  -2 971.970 41.8100   1
  -3   5   2 934.400 50.7400   1
   3  -5  -2 1012.72 40.3400   1
  -3  -5  -2 971.700 48.5500   1
  -3   5   2 788.940 36.1200   1
  -3   5   2 791.030 44.3000   1
  -3   5   2 845.350 31.5700   1
   3   5   2 726.580 36.7200   1
   3   5   2 767.040 40.0400   1
   3  -5  -2 1005.07 37.1500   1
  -3   5   2 776.620 37.3200   1
  -3  -5  -2 864.670 32.2600   1
   3  -5   2 1088.71 40.5900   1
   3  -5   2 593.260 33.9800   1
   3   5  -2 935.600 33.1500   1
  -3   5  -2 670.710 34.6300   1
  -3   5  -2 906.510 56.5600   1
   3   5  -2 908.070 41.2300   1
   3  -5  -2 901.490 41.2100   1
   3  -5  -2 1055.90 36.2500   1
  -3   5   2 804.410 38.1400   1
   3  -5  -2 831.200 34.4500   1
  -3  -5   2 938.900 33.5800   1
   0  -3   3 30827.6 233.300   1
   0   3  -3 29725.5 233.850   1
  -2   7   1 15752.3 185.850   1
   2   7   1 16710.8 195.320   1
   2   7  -1 14812.2 146.840   1
  -2   7   1 16787.9 242.010   1
  -2   7  -1 14619.3 194.840   1
   2  -7   1 14880.7 138.860   1
  -2  -7  -1 16629.7 137.680   1
   2  -7   1 14676.9 158.890   1
   2  -7  -1 16319.2 137.660   1
   2  -7  -1 16112.5 153.540   1
   2  -2  -3 13280.9 138.750   1
  -2  -2   3 11880.6 177.450   1
  -2  -2  -3 13132.8 130.800   1
  -2   2   3 12117.3 126.140   1
   2   2   3 11871.8 165.390   1
   2  -2   3 12182.2 141.930   1
  -2   2  -3 11717.8 180.330   1
  -2  -2   3 11958.2 138.320   1
   2   2  -3 13419.9 161.650   1
  -2  -2   3 13262.4 136.100   1
   2   2  -3 13807.1 144.750   1
  -2  -2  -3 13650.5 160.810   1
  -2   2  -3 13673.3 129.150   1
  -2   2   3 12167.0 149.110   1
   2   2   3 13952.6 191.800   1
  -2  -2   3 13176.9 130.080   1
   2  -2   3 13192.2 131.940   1
  -2  -2   3 12060.7 151.600   1
  -4  -4   2 12998.8 126.080   1
   4   4   2 12308.4 144.930   1
  -4   4   2 13218.7 175.020   1
  -4   4   2 13211.2 163.740   1
   4  -4  -2 13423.0 141.190   1
   4   4  -2 13947.8 167.790   1
   4   4   2 13631.9 147.110   1
   4  -4  -2 13040.2 128.100   1
  -4   4   2 12746.9 157.680   1
  -4  -4   2 14128.0 149.130   1
  -4   4   2 12595.5 155.860   1
  -4   4   2 13537.7 129.160   1
  -5  -2  -2 450.480 31.1200   1
   5  -2   2 513.890 27.9300   1
  -5   2  -2 356.830 24.3400   1
   5   2  -2 474.190 22.0900   1
  -5  -2   2 421.220 25.7600   1
   5   2   2 346.650 26.3000   1
   5  -2  -2 519.720 25.5800   1
  -5  -2   2 471.760 25.7900   1
  -5   2   2 420.200 24.1300   1
   5   2  -2 455.880 26.5900   1
   5  -2  -2 442.200 29.3600   1
  -5   2   2 342.990 25.1900   1
  -5   2  -2 377.870 26.2400   1
  -5   2   2 333.470 27.1800   1
  -5  -2   2 357.940 23.3900   1
  -5   2   2 346.370 29.6400   1
  -5  -2  -2 379.770 27.6300   1
   5   2   2 285.940 23.3200   1
   5  -2  -2 479.640 26.8400   1
   5   2   2 580.420 29.7000   1
  -5   2   2 421.780 27.3700   1
   3  -7   0 1492.88 77.3500   1
  -3  -7   0 1694.89 44.3100   1
   3   7   0 2265.96 58.9500   1
  -3   7   0 1756.03 70.9600   1
   3  -7   0 2118.71 58.3500   1
  -3   7   0 1933.42 68.7100   1
  -3   7   0 1717.35 61.7400   1
   3  -7   0 2005.03 50.8000   1
   1  -3   3 2056.39 58.9300   1
   1   3   3 2266.35 70.6900   1
  -1  -3   3 2061.35 70.7500   1
   1  -3   3 1583.81 42.4900   1
  -1  -3   3 1853.60 47.2900   1
  -1   3   3 1882.22 57.4100   1
  -1  -3   3 1854.80 53.7800   1
  -1  -3   3 1884.98 46.5900   1
   1  -3   3 2192.29 72.4500   1
   1  -3  -3 2041.39 55.2300   1
  -1  -3  -3 1942.11 53.8400   1
  -1   3   3 1672.21 59.5200   1
  -1   3   3 1539.01 45.0000   1
  -1   3  -3 1945.71 50.1700   1
   1  -3  -3 1919.63 51.5800   1
   1  -3   3 1769.08 45.2800   1
  -1  -3   3 1957.45 51.6800   1
  -1   3   3 2220.35 63.8600   1
   1  -3  -3 1961.15 60.6100   1
  -3   0   3 -3.5500 13.1400   1
   3   0   3 0.18000 10.5100   1
  -3   0  -3 -3.3300 14.9000   1
   3   0   3 5.65000 11.2800   1
  -3   0  -3 10.6000 14.0000   1
   3   0  -3 5.26000 12.5900   1
  -3   0   3 3.37000 7.90000   1
  -3   0   3 2.86000 17.8900   1
   3   0  -3 2.63000 15.5500   1
  -3   0   3 13.2700 12.2100   1
  -3   0  -3 9.14000 12.0800   1
  -3   0   3 2.64000 13.7200   1
  -3   0   3 0.59000 11.3500   1
   3   0  -3 4.40000 16.2000   1
  -3   0  -3 2.88000 10.9300   1
   4  -6  -1 31824.9 192.510   1
  -4   6  -1 31213.8 265.280   1
  -4  -6  -1 32370.2 192.870   1
   4  -6  -1 31561.4 213.400   1
  -4  -6   1 32543.3 212.440   1
   4  -6   1 33424.6 220.710   1
   0  -8   0 120.160 22.5000   1
   0  -8   0 251.590 25.6100   1
   0   8   0 82.1600 16.0700   1
   0  -8   0 160.660 19.7600   1
   0   8   0 162.170 16.9900   1
   0   8   0 198.810 23.6400   1
   6  -3   1 8445.55 104.220   1
  -6  -3  -1 8272.02 129.400   1
  -6  -3   1 8362.52 112.700   1
  -6  -3  -1 7324.94 108.920   1
  -6   3   1 7602.12 113.550   1
  -6  -3   1 7336.21 98.5600   1
  -6   3   1 7565.33 115.800   1
  -6   3  -1 7861.27 138.620   1
  -6  -3  -1 8131.89 109.960   1
  -2   6   2 3827.82 97.5300   1
  -2  -6  -2 4327.86 72.4700   1
   2   6  -2 4529.13 71.0600   1
   2   6   2 4212.99 92.1700   1
  -2  -6  -2 4145.57 80.2900   1
   2  -6  -2 4585.22 76.4200   1
   2  -6   2 4651.60 88.8300   1
  -2   6  -2 4872.88 139.850   1
   2  -6  -2 4151.89 90.8900   1
  -2   6   2 4245.50 98.9100   1
   2  -6  -2 4034.80 75.4800   1
  -2   6  -2 3877.07 93.7700   1
   2  -6  -2 4765.30 84.5300   1
   2  -6  -2 5247.43 134.700   1
   3   1   3 15465.4 170.820   1
  -3   1   3 16062.7 172.730   1
  -3  -1   3 15572.6 161.720   1
   3   1   3 15449.9 150.800   1
   3  -1   3 15871.1 142.540   1
  -3  -1  -3 14013.8 191.910   1
   3   1  -3 15505.3 141.660   1
  -3  -1   3 15375.0 150.120   1
  -3  -1   3 14819.4 140.730   1
  -3   1   3 16326.5 162.020   1
   3  -1  -3 16024.6 165.050   1
  -3   1  -3 15068.2 190.680   1
  -3   1   3 16441.6 190.580   1
  -3  -1   3 14469.5 149.670   1
  -3  -1  -3 16336.5 180.520   1
  -3   1   3 14569.1 160.780   1
   3  -1   3 15283.7 197.110   1
   5  -5   1 13781.2 147.380   1
  -5   5   1 13550.4 189.690   1
  -5   5   1 13603.9 179.670   1
   5  -5  -1 13656.1 130.960   1
  -5   5   1 12144.7 152.440   1
   5   5  -1 13623.2 132.670   1
  -5   5   1 13869.6 117.680   1
  -5  -5  -1 14063.8 157.240   1
   5   5   1 12760.4 117.360   1
   1  -8   0 1696.80 48.5000   1
   1  -8   0 1323.67 40.3700   1
   1   8   0 1628.46 46.3400   1
  -1   8   0 1190.90 60.0200   1
  -1  -8   0 1428.37 53.3200   1
   1  -8   0 1631.71 54.4100   1
  -1   8   0 1856.44 65.0700   1
   6  -4   0 3917.96 67.4100   1
   6   4   0 4421.56 68.8400   1
  -6  -4   0 3912.44 89.7100   1
   6   4   0 3827.65 73.8100   1
   6  -4   0 3755.65 67.4800   1
  -6   4   0 4141.49 88.0800   1
  -6   4   0 4015.10 97.8200   1
   2  -3  -3 1903.87 41.9000   1
  -2   3  -3 2147.68 52.6500   1
  -2   3   3 1902.55 53.3300   1
  -2  -3  -3 2041.21 47.9900   1
  -2  -3   3 1704.56 65.6500   1
   2  -3  -3 1954.72 53.5100   1
  -2  -3  -3 1777.54 45.9900   1
  -2  -3   3 2027.70 53.4500   1
   2  -3   3 2389.94 86.6000   1
   2  -3  -3 2250.06 58.9400   1
  -2   3   3 2239.32 72.9500   1
   2   3   3 2115.40 69.9100   1
   2  -3  -3 2231.71 56.3300   1
   2  -3   3 2090.25 58.6100   1
  -2   3  -3 1971.21 85.4100   1
   2   3  -3 1962.02 50.8300   1
   2   3   3 1596.99 56.6700   1
  -2   3   3 1895.18 49.0900   1
  -2  -3   3 2151.59 50.8400   1
   2  -3  -3 2173.02 66.7800   1
   2   3  -3 1667.09 58.0800   1
   2  -3   3 2030.05 57.7700   1
  -2   3   3 1667.10 65.0600   1
  -2  -3  -3 1993.46 57.5800   1
   5   3  -2 3962.12 62.3700   1
   5   3  -2 4308.94 89.9800   1
   5  -3  -2 4186.93 80.8100   1
  -5   3   2 3702.83 88.0400   1
  -5   3   2 3506.32 76.4700   1
  -5  -3   2 3727.40 77.7000   1
  -5  -3  -2 4119.24 91.4400   1
  -5   3   2 3511.00 80.1400   1
  -5  -3  -2 3540.55 83.3400   1
  -5   3   2 3598.19 79.8600   1
   5  -3   2 4095.94 68.3800   1
   5   3   2 4012.13 90.4800   1
  -5   3   2 3455.21 65.2500   1
   3  -7  -1 5443.09 78.5700   1
   3   7  -1 5026.33 76.0500   1
   3  -7  -1 5798.68 91.4800   1
   3  -7   1 5054.72 89.8700   1
  -3   7   1 4550.67 120.220   1
   3   7   1 4807.01 96.7200   1
  -3   7   1 4748.31 113.170   1
   3  -7  -1 5683.11 91.8000   1
  -3   7  -1 4953.22 128.750   1
   3  -7   1 5809.24 98.2300   1
   3  -7  -1 5277.91 81.5500   1
  -3   7   1 5752.51 86.2500   1
  -3  -7   1 4964.67 79.2400   1
  -3   7  -1 4590.22 99.5700   1
   3  -7   1 5508.25 83.0700   1
   0   4   3 -3.5300 14.4100   1
   0  -4   3 5.27000 11.1500   1
   0  -4  -3 -1.8700 14.3300   1
   0  -4  -3 -5.2600 15.7100   1
   0  -4  -3 0.35000 7.62000   1
   0  -4   3 2.56000 8.69000   1
   0  -4   3 8.88000 17.0400   1
   0  -4   3 -5.5700 9.80000   1
   0   4   3 6.67000 17.4400   1
   0  -4   3 -15.140 15.9400   1
   0   4   3 0.51000 7.55000   1
   0  -4  -3 3.12000 12.9100   1
   0   4   3 9.06000 13.2500   1
   0  -4   3 3.99000 11.4100   1
  -7   0   0 9.26000 12.4900   1
   7   0   0 -0.1400 9.00000   1
   7   0   0 1.78000 17.1200   1
  -7   0   0 -6.0400 11.9400   1
   7   0   0 16.0100 17.3700   1
   3   2  -3 903.070 35.5600   1
  -3  -2   3 877.610 39.1800   1
   3  -2  -3 904.630 36.7000   1
   3  -2   3 677.870 39.4700   1
  -3   2  -3 758.980 51.3900   1
  -3   2   3 839.640 34.4700   1
  -3   2   3 733.310 33.6200   1
  -3  -2   3 666.810 34.5300   1
   3  -2  -3 801.750 33.4100   1
  -3   2   3 700.350 33.8300   1
  -3  -2  -3 875.830 39.7000   1
   3   2   3 698.370 35.7000   1
  -3   2  -3 889.690 37.0400   1
  -3   2   3 623.250 36.4700   1
   3   2   3 597.290 45.0000   1
   3  -2   3 748.260 30.9700   1
  -3  -2  -3 625.770 36.3100   1
   3   2  -3 709.940 27.1200   1
   3  -2  -3 676.690 44.4700   1
  -3  -2   3 779.150 30.6100   1
   3   2   3 759.320 38.6700   1
  -3  -2   3 828.570 32.5800   1
  -3   2   3 877.620 38.5200   1
   3  -2  -3 837.190 43.5300   1
   3   2  -3 1066.12 55.5000   1
   3  -2  -3 1038.93 39.8900   1
  -3   2  -3 743.200 33.5500   1
  -3   2   3 781.990 49.2900   1
  -3  -2  -3 762.200 32.6900   1
  -1  -4   3 30933.7 196.490   1
   1   4   3 31200.4 216.340   1
   1  -4  -3 32013.8 212.490   1
  -1   4   3 30449.9 228.760   1
  -1   4   3 29201.9 256.100   1
  -1  -4  -3 31902.0 231.960   1
   2  -8   0 484.120 32.3700   1
  -2   8   0 395.830 40.0100   1
   2  -8   0 374.320 21.0400   1
   2   8   0 402.470 22.2600   1
  -2  -8   0 452.030 24.3900   1
  -2   8   0 408.310 29.8000   1
   2  -8   0 316.450 34.2400   1
   2  -8   0 251.080 29.2400   1
   2  -8   0 626.610 30.8300   1
   2   8   0 446.580 21.2300   1
   2  -8   0 688.210 34.1400   1
  -2  -8   0 612.880 29.4100   1
  -2   8   0 599.840 37.3100   1
   0  -8   1 12.9000 13.0100   1
   0  -8  -1 10.2300 9.79000   1
   0   8   1 6.53000 11.6000   1
   0  -8  -1 -0.2800 17.8700   1
   0   8   1 -3.0500 14.6300   1
   0  -8   1 -2.9500 15.0900   1
   0  -8  -1 0.00000 19.0800   1
   0  -8   1 -3.7100 25.2700   1
  -4   5   2 19964.4 163.480   1
  -4   5   2 21399.9 216.230   1
  -4   5   2 19838.7 211.640   1
   4  -5   2 19953.9 208.990   1
  -4  -5  -2 21877.8 196.700   1
   4  -5  -2 21354.5 178.230   1
   4  -5   2 21199.4 162.710   1
   4   5  -2 20695.3 146.340   1
  -4  -5   2 20130.6 151.690   1
   4   5   2 21628.3 142.790   1
   4  -5  -2 21842.8 177.510   1
   4   5  -2 20098.0 183.980   1
   5  -6   0 6194.57 99.7200   1
   5  -6   0 5337.48 82.7400   1
   5  -6   0 4990.30 88.4200   1
  -4   7   0 3191.91 81.8300   1
  -4  -7   0 3373.51 60.9300   1
   4  -7   0 3722.31 74.3400   1
  -4  -7   0 3677.97 76.1900   1
   4  -7   0 3780.64 69.7600   1
   4  -7   0 3277.17 66.7900   1
  -1   8  -1 20567.6 284.170   1
   1  -8  -1 19501.4 164.290   1
  -1   8   1 19335.1 216.580   1
  -1   8   1 17905.3 207.350   1
   1   8   1 20134.8 146.290   1
  -1   8   1 20595.1 267.530   1
  -1  -8   1 19504.8 190.540   1
  -1  -8  -1 19159.1 217.740   1
  -3   6   2 17411.7 223.980   1
   3  -6   2 17281.4 154.930   1
   3   6   2 17827.0 148.180   1
   3  -6  -2 18563.2 162.410   1
  -3  -6   2 17326.0 138.090   1
   3  -6   2 19113.1 208.900   1
  -3  -6  -2 16862.2 156.110   1
  -3  -6   2 16860.3 153.030   1
   3   6  -2 18068.7 150.620   1
  -3   6   2 17247.9 220.720   1
   3  -6  -2 17885.0 163.660   1
  -6  -4  -1 135.560 19.0100   1
  -6  -4   1 153.880 16.9300   1
   6   4   1 173.410 21.8100   1
  -6   4   1 121.970 15.0600   1
   6   4  -1 123.730 15.9900   1
  -6   4  -1 76.9700 16.7700   1
   6   4  -1 133.440 17.2400   1
   6  -4  -1 118.490 15.2700   1
  -6  -4  -1 74.9100 13.9100   1
  -6   4   1 132.520 14.4200   1
  -6   4  -1 82.9900 14.2500   1
  -6   4   1 131.580 18.1500   1
   6  -4  -1 190.140 21.5100   1
   6  -4   1 128.790 20.6300   1
  -6   4   1 140.350 18.0300   1
  -6   4  -1 125.430 19.6000   1
  -6  -4  -1 190.420 23.0000   1
   6  -4  -1 113.160 18.7000   1
   6  -4   1 140.310 20.6800   1
  -6   4   1 90.6400 14.9800   1
  -7  -2   0 3368.88 94.0400   1
  -7   2   0 2970.78 70.7600   1
  -7   2   0 3060.37 76.0300   1
   7  -2   0 3313.32 69.5000   1
  -7  -2   0 3268.51 73.6600   1
   7  -2   0 3276.30 70.3100   1
   7   2   0 3028.03 67.4600   1
   0  -7   2 1.18000 14.7900   1
   0  -7   2 3.87000 15.2100   1
   0   7   2 6.78000 14.8700   1
   0  -7  -2 3.47000 8.01000   1
   0  -7   2 1.28000 8.99000   1
   0  -7  -2 9.49000 13.0700   1
   0   7   2 2.12000 14.6600   1
   0  -7  -2 -3.6500 13.9500   1
   0  -7   2 3.99000 11.7700   1
   0   7   2 7.52000 13.3700   1
   0  -7  -2 9.64000 14.0700   1
   0   7   2 9.06000 10.2700   1
  -6   0  -2 48570.5 361.000   1
   6   0  -2 45078.4 233.280   1
  -6   0   2 46476.3 293.520   1
  -6   0   2 45343.9 265.910   1
   6   0  -2 47906.9 208.270   1
   3  -3   3 47087.6 297.010   1
  -3  -3   3 48358.7 298.420   1
   3  -3  -3 45075.5 253.260   1
  -3   3   3 45335.8 287.630   1
  -3   3  -3 44394.7 385.900   1
  -3   3   3 45253.4 361.720   1
   2   4  -3 5857.64 89.5200   1
  -2   4  -3 5167.15 131.000   1
   2  -4   3 6034.49 102.040   1
  -2   4   3 5757.56 111.460   1
  -2  -4  -3 6142.48 93.1100   1
  -2  -4   3 5871.19 93.7500   1
  -2   4   3 6345.54 125.450   1
   2  -4  -3 5783.20 90.5000   1
  -2   4  -3 5127.30 105.290   1
   2   4   3 6212.66 118.290   1
   2  -4   3 5355.54 82.9900   1
   2  -4  -3 5828.65 84.3600   1
   7   0   1 10.9900 17.2400   1
  -7   0   1 41.5100 15.2300   1
  -7   0  -1 10.6200 14.0300   1
   7   0  -1 31.7200 14.7500   1
   7   0   1 12.7400 17.8200   1
  -7   0   1 30.4900 15.1100   1
   7   0  -1 23.2200 12.7600   1
  -7   0  -1 6.19000 10.2000   1
  -7   0   1 17.5900 13.9400   1
   7   0  -1 19.5900 15.2000   1
  -1   7   2 7956.03 147.050   1
   1  -7   2 7644.98 127.350   1
  -1  -7  -2 7486.16 173.900   1
   1  -7  -2 8231.25 108.940   1
   1   7  -2 7755.88 103.250   1
   1  -7  -2 6894.87 113.930   1
  -1  -7   2 7566.60 98.8700   1
   1   7   2 8288.30 122.740   1
   5  -4  -2 9493.24 119.190   1
   5   4  -2 9470.53 108.810   1
   5   4   2 8579.18 118.980   1
  -5   4   2 9537.12 165.830   1
  -5  -4   2 8902.35 118.570   1
  -5   4   2 9038.34 136.880   1
   5  -4  -2 8191.28 112.380   1
   5   4  -2 9646.81 127.800   1
  -5   4   2 9290.04 99.4400   1
  -5   4  -2 8466.12 171.830   1
   5  -4   2 9353.15 113.470   1
  -5  -4  -2 8389.18 141.420   1
   4   0  -3 36566.3 207.600   1
  -4   0   3 36304.1 247.560   1
   4   0  -3 37912.2 205.140   1
  -4   0   3 36738.3 217.510   1
  -4   0  -3 37095.8 236.500   1
   4   0   3 34797.8 274.330   1
  -4   0   3 37380.2 261.610   1
  -6   1   2 8329.96 95.5000   1
  -6   1   2 7551.27 112.340   1
  -6  -1   2 8304.19 118.450   1
  -6   1   2 7767.22 145.000   1
   6  -1  -2 8197.81 100.200   1
  -6  -1   2 7345.76 123.450   1
   6   1   2 7850.90 121.850   1
   7  -1  -1 296.400 21.2900   1
  -7   1  -1 183.820 21.3700   1
  -7   1   1 223.530 18.3100   1
   7  -1  -1 289.900 22.7700   1
   7  -1  -1 358.490 25.7300   1
   7   1   1 409.580 28.0000   1
  -7  -1   1 259.870 18.9300   1
   7  -1   1 390.890 30.2200   1
  -7   1   1 280.340 26.0600   1
  -7  -1  -1 252.520 25.1500   1
  -7   1  -1 203.470 20.8100   1
   7   1  -1 333.780 24.0500   1
   7   1   1 377.220 27.4800   1
   7   1  -1 329.810 23.9900   1
   7  -1  -1 333.800 24.2600   1
  -7  -1   1 309.650 21.9700   1
  -7   1   1 272.570 19.1900   1
  -7  -1  -1 331.810 32.3300   1
  -7  -1   1 248.580 19.1500   1
   4   1  -3 716.120 35.3700   1
   4  -1  -3 642.700 34.2500   1
  -4   1   3 863.060 34.8000   1
   4  -1  -3 679.240 30.7700   1
   4  -1   3 795.050 31.8800   1
  -4  -1  -3 697.830 39.8400   1
  -4   1  -3 668.250 43.0100   1
   4   1  -3 691.020 32.5900   1
  -4  -1   3 683.250 35.1000   1
  -4  -1   3 850.100 34.3600   1
  -4   1   3 706.620 30.0700   1
   4   1   3 744.360 35.4300   1
  -4  -1   3 747.410 31.0700   1
  -4   1  -3 598.990 33.0100   1
  -4  -1  -3 744.220 34.5800   1
   4   1   3 606.780 38.7600   1
   4   1   3 676.540 32.1800   1
  -4  -1  -3 803.810 55.2400   1
  -4   1   3 629.720 38.8800   1
   4   1  -3 779.040 33.1900   1
  -4   1   3 656.700 36.6500   1
  -4  -1   3 618.200 32.4100   1
  -4  -1   3 679.430 28.2200   1
   4  -1   3 566.160 44.0000   1
   6   5   0 12979.3 133.480   1
  -6   5   0 12775.8 176.580   1
   6   5   0 14069.9 131.990   1
  -6  -5   0 13675.2 141.480   1
  -6   5   0 14137.1 172.350   1
  -2   8  -1 3357.75 120.400   1
   2  -8   1 3167.50 66.3900   1
   2  -8  -1 2992.33 60.1800   1
   2   8  -1 3544.62 67.3700   1
  -2  -8   1 3710.15 80.8100   1
  -2  -8  -1 3364.11 66.2900   1
  -2   8   1 3199.19 64.8600   1
   2  -8  -1 3065.70 94.6900   1
   2  -8   1 3768.09 71.1200   1
   2  -8  -1 3522.12 66.7700   1
   2   8  -1 3128.44 70.1800   1
   2   8   1 3333.12 69.3900   1
  -2   8   1 2946.91 80.4900   1
   2   8   1 3482.63 61.0200   1
   2   8   1 3111.04 90.9200   1
  -2  -8   1 3622.32 69.2300   1
   2  -8  -1 3654.40 72.8200   1
   2  -8   1 3465.34 76.7400   1
  -5   6   1 5011.98 122.600   1
  -5  -6  -1 5718.12 87.0600   1
   5   6  -1 5514.72 78.7800   1
   5  -6   1 5115.61 86.4100   1
  -5  -6   1 5071.31 82.4400   1
  -5  -6  -1 4983.54 86.7100   1
  -5   6   1 5504.07 75.5500   1
   5   6  -1 5369.57 93.2100   1
   5  -6  -1 5532.18 91.0000   1
   5  -6  -1 5509.72 81.0100   1
  -5   6  -1 4490.87 110.950   1
  -5   6   1 5358.23 126.410   1
  -5   6   1 4992.26 110.790   1
  -5   6   1 4666.97 85.1000   1
   5  -6   1 5679.80 127.410   1
   5  -6  -1 5212.38 80.0900   1
   0   5   3 25735.8 236.940   1
   0  -5   3 25111.8 279.180   1
  -6   2   2 11421.8 143.430   1
   6   2  -2 12288.2 116.040   1
  -6  -2   2 11614.7 107.940   1
   6  -2  -2 11580.1 134.870   1
  -6   2   2 10868.5 145.480   1
  -6  -2   2 10797.7 138.240   1
   3  -8   0 14797.3 144.630   1
  -3   8   0 14092.8 229.110   1
   3   8   0 14396.9 123.280   1
  -3  -8   0 13746.4 131.240   1
   3  -8   0 14467.3 141.320   1
  -7   3   0 12441.0 167.420   1
   7  -3   0 14083.9 132.080   1
   7   3   0 13409.3 146.100   1
  -7  -3   0 12907.5 149.880   1
  -7   3   0 13801.8 200.340   1
   4   7  -1 6535.53 92.8400   1
  -4   7  -1 5876.74 141.260   1
  -4   7   1 6022.50 148.250   1
   4  -7   1 6253.77 94.7000   1
   4  -7  -1 6867.05 96.4400   1
  -4   7  -1 6632.45 127.890   1
  -4   7   1 6234.01 133.920   1
  -4  -7  -1 6592.28 88.3200   1
   4  -7   1 6808.13 95.1800   1
   4   7  -1 6277.70 88.2400   1
  -4  -7  -1 6434.29 101.710   1
   7   2  -1 3936.13 77.1900   1
  -7  -2   1 3387.68 76.0000   1
  -7   2  -1 3342.30 91.4100   1
  -7   2   1 3945.03 66.3800   1
   7  -2  -1 3420.59 76.8200   1
   7  -2  -1 3831.39 66.5000   1
  -7   2   1 4100.66 98.8400   1
  -7  -2   1 3530.16 79.4300   1
  -7  -2  -1 3074.54 81.1100   1
  -4  -2   3 23979.6 192.840   1
  -4   2   3 22779.0 184.230   1
  -4  -2   3 24535.1 189.080   1
   4   2   3 22744.3 223.630   1
   4   2   3 22378.0 224.250   1
   4  -2   3 22530.5 169.590   1
  -4  -2  -3 23869.3 245.490   1
   4  -2   3 21975.1 260.140   1
  -4   2   3 23985.3 213.330   1
  -4  -2   3 23404.0 216.100   1
  -4   2   3 23323.3 208.280   1
  -4  -2   3 22956.8 168.450   1
  -2   7   2 27305.5 300.380   1
   2  -7   2 30320.8 193.480   1
   2  -7   2 29592.0 195.020   1
   2   7   2 29588.9 283.220   1
   2  -7   2 28054.7 195.280   1
   1  -5   3 9985.04 131.530   1
   1  -5   3 9223.45 103.670   1
  -1   5   3 9706.84 133.330   1
   1  -5   3 9693.93 104.680   1
  -1  -5  -3 9708.45 107.820   1
  -1  -5   3 9612.67 119.130   1
   1   5   3 9632.95 127.950   1
  -1  -5  -3 10054.9 137.200   1
  -1   5   3 8957.90 163.710   1
   1   5   3 8544.60 142.070   1
  -1  -5  -3 9281.15 108.090   1
   3  -4   3 352.760 24.2900   1
  -3   4   3 326.510 24.0700   1
  -3  -4  -3 329.730 25.8400   1
  -3   4  -3 385.240 23.1500   1
   3  -4  -3 391.980 23.3000   1
  -3  -4   3 358.850 21.3400   1
   3  -4   3 322.030 21.8400   1
   3  -4  -3 478.110 30.2200   1
   3  -4  -3 367.280 25.2700   1
  -3   4   3 326.240 27.1000   1
   3   4   3 354.580 29.3200   1
  -3  -4  -3 441.620 32.3900   1
  -3   4   3 421.950 28.2800   1
  -3   4   3 324.620 24.8600   1
   3  -4   3 456.610 27.9500   1
  -3   4  -3 281.910 31.6400   1
   3   4  -3 338.070 19.4200   1
   3   4  -3 332.440 28.7200   1
   3  -4  -3 470.100 33.8800   1
  -3   4   3 406.980 26.3900   1
  -3  -4   3 409.250 26.5400   1
  -3  -4   3 394.050 22.7500   1
   3   4   3 314.530 22.4200   1
  -6   5   1 9215.61 158.600   1
   6  -5   1 9736.10 147.400   1
  -6  -5  -1 10461.1 115.300   1
  -6   5   1 9058.91 136.950   1
   6  -5  -1 9363.81 115.320   1
   6   5  -1 10073.6 125.220   1
   6  -5   1 9451.42 132.430   1
  -6  -5  -1 9806.55 129.110   1
  -6  -5   1 9771.19 117.700   1
  -6  -5  -1 10472.5 150.770   1
  -6   5  -1 8835.63 169.760   1
  -6   5  -1 9867.91 147.650   1
  -4   6   2 712.860 36.7400   1
   4  -6  -2 885.620 38.1700   1
  -4   6  -2 698.830 38.3600   1
  -4   6   2 720.370 37.7600   1
  -4   6   2 668.580 37.3800   1
   4   6   2 877.130 48.6400   1
   4  -6   2 702.000 32.9400   1
  -4  -6  -2 909.720 43.5500   1
  -4   6   2 681.890 44.5100   1
   4  -6  -2 840.920 33.7300   1
  -4  -6  -2 632.930 24.7300   1
  -4  -6   2 890.680 35.0300   1
  -4  -6  -2 523.130 33.8500   1
  -4  -6   2 971.820 39.7500   1
   4   6   2 749.990 28.2000   1
   4   6  -2 789.590 29.6200   1
  -4   6  -2 580.060 44.5100   1
   4  -6   2 848.770 35.2000   1
   4  -6  -2 797.160 32.3000   1
  -4  -6  -2 621.800 29.6100   1
  -4   6   2 845.870 41.5700   1
   4   6  -2 784.160 35.8100   1
   4  -6  -2 748.460 34.7400   1
   4  -6  -2 867.300 33.4400   1
  -4   6   2 702.390 42.4900   1
  -4   6  -2 469.130 41.1300   1
   0   9   0 3.30000 7.24000   1
   0  -9   0 4.20000 16.4900   1
   0   9   0 9.12000 15.6500   1
   0  -9   0 9.77000 11.6200   1
   0  -9   0 0.18000 19.8300   1
   0   9   0 2.32000 13.9400   1
   6  -3  -2 3589.88 66.2900   1
  -6   3   2 3535.50 68.7700   1
   6  -3  -2 3189.64 69.4500   1
  -6   3   2 2952.42 84.7600   1
  -6   3   2 3090.26 83.8800   1
  -6  -3   2 2952.44 70.7900   1
  -6  -3  -2 3066.30 79.8100   1
  -6  -3  -2 3140.90 66.5200   1
  -6  -3   2 3022.87 51.8000   1
  -6  -3   2 3511.96 80.0000   1
   6   3  -2 3309.75 56.6800   1
  -6   3  -2 2608.85 81.8800   1
  -6   3   2 2868.60 72.2500   1
  -6  -3  -2 2702.92 69.7300   1
  -6   3   2 2735.24 85.0300   1
  -2  -5  -3 8931.75 102.030   1
  -2   5   3 8157.47 105.950   1
  -2  -5  -3 8181.28 116.550   1
   2   5   3 9054.39 143.120   1
  -2   5   3 9352.62 144.250   1
   2  -5   3 8135.33 97.7600   1
  -2   5   3 7763.44 126.390   1
  -2  -5   3 8948.08 116.700   1
  -3   8   1 57.4800 20.2000   1
   3   8   1 79.1100 19.3700   1
  -3  -8  -1 110.790 21.2900   1
  -3   8  -1 53.8000 18.1900   1
   3  -8  -1 60.3000 18.6400   1
   3  -8  -1 53.9900 11.7400   1
   3   8  -1 57.4300 16.7000   1
  -3  -8  -1 59.6600 12.9300   1
   3  -8   1 58.4600 10.9000   1
   3   8   1 55.2800 14.9100   1
  -3   8   1 73.2300 16.4900   1
   3   8  -1 21.3300 13.2400   1
   3  -8  -1 43.4300 13.6700   1
   3  -8  -1 73.3100 15.4500   1
   3  -8  -1 79.0600 14.2300   1
   3  -8   1 57.7100 16.1900   1
   3  -8   1 105.300 19.0400   1
  -3   8   1 69.1200 18.1800   1
   3  -8  -1 86.7100 21.6300   1
  -3   8  -1 81.0200 17.2700   1
   3  -8  -1 80.8700 22.3300   1
   3  -8   1 47.5000 22.8500   1
  -7   3   1 1671.66 44.2900   1
  -7   3  -1 1107.58 59.1200   1
  -7   3   1 1200.32 52.8000   1
   7  -3  -1 1813.33 51.3000   1
  -7   3   1 1451.26 55.6100   1
   7  -3  -1 1295.55 40.7300   1
   7   3  -1 1390.57 44.6600   1
  -7  -3   1 1642.51 55.5400   1
   7   3   1 1481.31 36.4800   1
   7   3  -1 1724.92 44.9100   1
   7  -3   1 1582.49 43.0600   1
  -7  -3  -1 1674.72 69.3700   1
  -7  -3  -1 1525.32 54.9300   1
  -5  -5   2 2273.73 47.5200   1
   5   5   2 2310.50 63.3700   1
   5   5  -2 2901.56 77.0800   1
  -5   5   2 2152.96 64.2200   1
  -5   5   2 2795.06 56.3200   1
   5   5   2 2901.58 83.6800   1
  -5  -5  -2 2857.13 71.4300   1
  -5   5   2 2550.90 82.6200   1
  -5   5   2 2857.27 83.7200   1
   5  -5  -2 2945.22 63.2800   1
  -5   5   2 2247.64 53.2500   1
  -5   5   2 2317.10 66.6400   1
   5  -5  -2 2793.73 70.9700   1
   5   5  -2 2904.61 63.8100   1
   5  -5   2 2751.93 60.3900   1
  -5  -5   2 2691.96 64.4700   1
  -5  -5  -2 2204.10 63.9800   1
  -5  -5  -2 2149.62 73.7100   1
   4   3   3 250.190 22.0200   1
  -4   3  -3 234.140 27.7000   1
   4  -3  -3 276.860 20.4000   1
  -4   3   3 246.520 21.7800   1
  -4   3   3 268.170 21.1100   1
  -4   3   3 229.740 22.1200   1
  -4   3  -3 178.320 23.2600   1
  -4   3   3 253.380 22.2200   1
   4   3  -3 229.590 21.0800   1
   4   3   3 257.500 24.2400   1
   4  -3   3 317.640 25.4300   1
  -4  -3  -3 251.530 20.5400   1
  -4  -3  -3 237.160 23.6800   1
   4  -3  -3 295.020 25.4900   1
  -4   3  -3 251.470 18.9300   1
   4  -3  -3 308.820 20.8600   1
   4  -3   3 161.780 21.9300   1
  -4   3   3 271.400 23.4600   1
  -4  -3   3 256.380 20.6800   1
   4  -3  -3 244.960 21.4500   1
   4   3   3 221.910 16.5900   1
  -4  -3   3 289.900 20.2200   1
   4   3  -3 326.230 22.4400   1
  -4  -3   3 317.380 26.3700   1
  -1   9   0 3915.75 142.340   1
   5  -7   0 58.7200 13.7400   1
   5  -7   0 94.2100 15.7200   1
  -5   7   0 58.5600 17.6800   1
   5  -7   0 92.7700 20.0300   1
  -5  -7   0 173.400 22.3000   1
  -5   7   0 125.990 19.6500   1
   5  -7   0 157.390 19.7300   1
  -5  -7   0 135.960 16.9800   1
  -5   7   0 133.020 22.6800   1
  -5   7   0 60.5100 13.6700   1
   5   7   0 80.2000 16.9800   1
   5   7   0 102.340 13.8300   1
   7   4   0 883.990 36.4500   1
   7   4   0 976.600 34.0800   1
   7  -4   0 1079.55 38.7500   1
   7  -4   0 1009.58 38.6800   1
   7  -4   0 960.580 37.4900   1
  -7   4   0 670.900 41.5200   1
  -7   4   0 771.380 47.5600   1
  -7  -4   0 952.080 44.8400   1
   3   7  -2 2523.26 55.6200   1
  -3  -7  -2 2377.39 57.0700   1
   3  -7   2 2673.96 62.9600   1
   3  -7  -2 2688.20 66.4100   1
   3   7   2 2689.40 78.8100   1
   3  -7  -2 2556.70 59.0700   1
  -3   7   2 2876.31 63.2000   1
   3  -7  -2 2221.12 57.5000   1
   3  -7  -2 2795.01 62.7600   1
  -3   7   2 2151.05 73.5800   1
   3  -7  -2 2768.98 62.5500   1
  -3  -7  -2 2674.05 67.8700   1
   3  -7  -2 2369.20 63.7400   1
  -3   7   2 2036.87 62.8900   1
  -3  -7   2 2413.38 56.8600   1
   6  -6   0 1718.31 45.9100   1
  -6   6   0 1141.76 52.3400   1
   6   6   0 1449.70 42.2800   1
   6  -6   0 1653.28 50.2300   1
  -6   6   0 1234.53 54.7100   1
   5   0  -3 -10.670 17.5100   1
  -5   0  -3 1.66000 8.47000   1
   5   0   3 5.67000 11.4500   1
   5   0   3 11.7500 13.0400   1
  -5   0   3 20.4800 15.5100   1
  -5   0   3 3.75000 12.6500   1
  -5   0  -3 8.61000 11.2000   1
   5   0  -3 13.9600 10.4100   1
  -5   0  -3 11.3300 12.0600   1
  -5   0   3 16.6000 15.5900   1
   4   8   0 425.200 21.6100   1
   4   8   0 510.910 27.7400   1
   4  -8   0 315.340 27.1100   1
   4  -8   0 512.740 24.6900   1
   4  -8   0 497.700 28.0100   1
  -4   8   0 413.290 30.7300   1
   4  -8   0 591.950 31.5500   1
   4  -8   0 514.650 30.0900   1
  -4   8   0 350.960 33.4800   1
  -4   8   0 488.950 32.9300   1
  -4  -8   0 584.920 32.7900   1
   2   9   0 14274.9 161.900   1
  -2   9   0 13123.3 215.820   1
   2   9   0 14524.7 122.620   1
   5   1   3 32070.0 226.360   1
   5  -1  -3 33359.8 221.040   1
  -5   1   3 33763.0 183.580   1
   5   1  -3 33410.4 251.790   1
  -5   1   3 31740.1 249.160   1
   0  -9   1 28045.5 220.360   1
   0  -8  -2 1321.62 44.0900   1
   0  -8   2 1317.07 42.8300   1
   0  -8  -2 1050.82 45.8200   1
   0  -8  -2 978.360 33.1900   1
   0  -8  -2 903.080 29.7300   1
   0   8   2 1035.92 35.8900   1
   0  -8   2 1432.31 57.3900   1
   0  -8   2 861.470 40.7800   1
   0  -6  -3 4.60000 16.8200   1
   0  -6  -3 5.51000 16.8500   1
   0  -6   3 18.3400 12.2900   1
   0  -6  -3 11.0900 16.5200   1
   0  -6   3 9.78000 15.7500   1
   0  -6   3 16.4800 9.35000   1
   0   6   3 10.0000 8.22000   1
   0   6   3 18.0900 13.7900   1
   0  -6  -3 4.79000 9.13000   1
   0   6   3 28.4800 26.1000   1
   8   0   0 1920.59 48.2700   1
   1  -9  -1 935.890 38.6200   1
   1  -9  -1 703.540 30.2200   1
   1  -9  -1 823.420 34.8100   1
   1  -9  -1 1047.86 40.0600   1
  -1  -9  -1 792.390 43.8800   1
   1  -9   1 935.240 43.3600   1
   1   9   1 736.690 53.3500   1
   1  -9   1 905.150 41.7900   1
   1   9   1 796.670 39.2100   1
  -1  -9   1 852.970 45.4900   1
  -1   9   1 645.210 44.9000   1
   1   9  -1 881.490 33.1700   1
   1  -9  -1 637.700 50.9300   1
   1   9   1 924.830 36.2000   1
   1  -9  -1 936.020 38.0100   1
   1  -8  -2 5736.54 95.5500   1
   1   8  -2 5485.02 79.0600   1
  -1  -8  -2 5685.77 87.5800   1
  -1   8   2 5632.76 124.810   1
   1   8   2 6833.17 164.330   1
   1  -8  -2 5528.66 76.0800   1
   1  -8  -2 6466.90 114.160   1
   1  -8   2 6038.95 90.8500   1
  -6  -4  -2 7836.45 122.430   1
   6  -4  -2 8073.93 105.280   1
  -6   4   2 8124.90 131.320   1
  -6   4   2 7521.74 95.1300   1
   6   4  -2 7971.32 95.3400   1
   6  -4   2 8227.92 100.750   1
  -6   4   2 7689.93 131.350   1
  -6  -4  -2 7357.27 127.230   1
  -1  -6   3 23965.4 197.820   1
   1  -6   3 24451.6 178.410   1
  -1  -6   3 23778.8 214.200   1
   1  -6   3 24643.9 203.670   1
  -1  -6  -3 23110.0 154.490   1
   1  -6   3 23387.5 170.730   1
   1   6   3 24677.5 222.510   1
  -3   5  -3 12207.1 186.740   1
   3  -5  -3 11382.1 188.010   1
  -3   5   3 12191.2 144.100   1
   3   5   3 11772.0 120.790   1
  -3   5   3 12448.7 174.000   1
   3   5   3 11034.5 161.220   1
  -3  -5  -3 12523.6 132.000   1
  -3   5  -3 11216.8 150.640   1
   8  -1   0 1676.97 52.6800   1
   8   1   0 1894.98 52.1500   1
   8  -1   0 1633.55 41.8600   1
  -8   1   0 1414.29 59.8700   1
  -8  -1   0 1476.73 47.4100   1
   5  -7   1 94.3100 19.4100   1
  -5   7   1 73.3100 17.4000   1
   5   7  -1 72.3400 11.4600   1
   5   7   1 90.8000 16.5200   1
   5  -7  -1 109.770 16.5700   1
   5   7  -1 98.3700 12.9500   1
   5  -7  -1 89.8500 17.6200   1
  -5   7   1 76.1800 14.5200   1
   5  -7   1 54.5500 9.66000   1
   5  -7  -1 61.7800 13.7500   1
  -5  -7  -1 81.9300 17.2800   1
  -5   7  -1 94.0700 16.6600   1
  -5  -7  -1 127.490 21.0400   1
  -5   7   1 108.960 19.6500   1
   5  -7   1 161.100 20.8400   1
   5  -7  -1 151.240 20.8400   1
  -5  -7  -1 113.730 17.0400   1
  -5  -7   1 120.540 15.1200   1
  -5   7  -1 87.8000 16.0800   1
   5  -7  -1 109.570 18.5800   1
  -5   7   1 80.4100 12.2600   1
   5  -7   1 58.9200 11.7700   1
  -7  -4   1 14733.9 149.960   1
   7  -4  -1 16179.0 143.410   1
   7  -4   1 14854.8 173.990   1
  -7   4   1 14732.5 113.310   1
  -4   4   3 12509.7 149.410   1
  -4   4   3 12868.7 168.660   1
   4   4  -3 13548.2 137.050   1
   4   4   3 13296.2 180.170   1
   4   4  -3 13970.3 170.730   1
  -4   4   3 12890.3 128.020   1
  -5   2   3 919.260 46.4100   1
   5   2   3 889.080 45.9000   1
   5  -2   3 868.640 54.0800   1
  -5  -2  -3 746.800 47.1600   1
   5  -2  -3 934.480 35.9600   1
  -5   2   3 831.480 44.4400   1
  -5   2  -3 830.160 46.1500   1
   5   2  -3 796.360 38.3800   1
  -5   2   3 822.080 35.6200   1
  -5  -2   3 811.540 31.8300   1
   5   2   3 938.490 33.5200   1
  -5  -2   3 788.380 34.0200   1
   5  -2  -3 620.680 27.3400   1
   5   2  -3 886.590 32.3800   1
  -5   2  -3 700.850 47.0300   1
  -5  -2  -3 581.900 38.1700   1
   5  -2   3 1028.01 40.4500   1
   5   2   3 815.820 36.9400   1
  -7   0   2 -2.1700 11.7500   1
  -7   0   2 1.16000 12.2800   1
   7   0   2 35.8700 19.0800   1
  -7   0  -2 9.65000 15.7600   1
   7   0  -2 -7.7300 11.2900   1
  -7   0   2 7.03000 13.0500   1
   7   0  -2 -2.8500 15.4000   1
  -7   0  -2 2.93000 11.4400   1
  -7   0  -2 2.78000 10.0200   1
   0   0   4 897.890 42.8700   1
   0   0  -4 1248.66 48.5000   1
   0   0   4 872.530 52.7500   1
   0   0   4 1282.49 47.3500   1
   0   0  -4 1161.90 38.7400   1
   0   0  -4 878.990 39.7200   1
  -7  -1   2 25719.9 251.670   1
  -7  -1  -2 26424.2 228.990   1
  -7   1   2 25740.2 239.430   1
   7  -1  -2 25905.5 186.730   1
  -7   1   2 25476.3 257.510   1
  -7  -1   2 27093.7 179.220   1
   6  -6  -1 2130.79 50.7800   1
  -6   6   1 1964.76 68.9400   1
   6   6   1 2311.88 48.9100   1
   6   6  -1 2374.63 63.5600   1
  -6   6  -1 1739.09 65.1000   1
   6  -6   1 2252.49 60.4600   1
  -6   6   1 1942.03 72.2300   1
  -6  -6  -1 2339.41 56.7200   1
  -4   8   1 2421.00 80.0800   1
   4   8   1 2859.37 57.5800   1
  -4  -8  -1 2396.47 58.8900   1
   4  -8  -1 2623.59 69.4000   1
  -4   8   1 2466.88 67.9400   1
   4  -8   1 2838.42 63.7100   1
   4  -8  -1 2911.98 60.5800   1
  -4   8  -1 2386.47 75.6500   1
  -4   8   1 2425.57 75.9600   1
  -4   8  -1 2369.00 81.2700   1
   4  -8  -1 3070.91 69.6100   1
   4  -8   1 3082.59 63.1900   1
   0  -1   4 19.2100 19.8500   1
   0  -1   4 19.0000 14.0600   1
   0   1   4 4.52000 8.59000   1
   0   1   4 1.17000 21.0300   1
   0  -1  -4 21.0000 16.2500   1
   0   1  -4 33.2200 14.2400   1
   0  -1   4 5.74000 6.84000   1
   0  -1   4 -1.4900 16.5900   1
   0   1   4 8.34000 15.4900   1
   0  -1  -4 11.4000 15.3000   1
   0   1   4 0.95000 6.32000   1
   0  -1  -4 8.95000 13.1500   1
   0  -1   4 5.07000 11.8400   1
   0   1   4 0.24000 12.4400   1
   0   1   4 -0.9200 12.8600   1
   0  -1  -4 0.84000 14.8400   1
   0   1  -4 11.1200 13.7600   1
   0   1  -4 7.20000 12.2400   1
  -2  -9  -1 7030.03 103.720   1
  -2   9   1 6381.46 162.410   1
   2  -9   1 7104.55 101.240   1
  -2   9   1 6502.52 133.370   1
   2  -9   1 7337.92 106.650   1
   2   9   1 6429.04 82.2300   1
  -2  -9  -1 6011.42 89.9700   1
   2  -9  -1 6661.84 118.300   1
   2  -8  -2 1883.19 45.2100   1
   2  -8   2 1712.18 53.7700   1
   2  -8  -2 1868.99 50.9700   1
  -2  -8  -2 1418.21 50.7400   1
  -2  -8  -2 2016.97 58.2800   1
   2   8  -2 1583.19 40.7700   1
  -2  -8   2 1855.48 64.4200   1
   2  -8  -2 1609.66 45.5000   1
   2   8   2 1333.99 67.7300   1
   2  -8  -2 1339.54 55.3800   1
  -2   8   2 1745.02 52.5400   1
  -2  -8   2 1280.88 67.4900   1
  -2  -8  -2 1289.68 53.0800   1
  -2   8   2 1426.79 74.9700   1
   2  -8   2 1702.82 60.6400   1
   2  -8  -2 1509.86 47.5800   1
   1   0  -4 9.14000 20.3700   1
  -1   0  -4 7.86000 13.1200   1
   1   0  -4 6.22000 11.5500   1
  -1   0  -4 11.2100 13.0000   1
   1   0   4 3.82000 19.4400   1
  -1   0   4 14.8100 17.0600   1
  -1   0   4 8.34000 7.91000   1
  -1   0   4 20.6700 19.0500   1
   1   0   4 5.63000 16.2800   1
   1   0   4 6.38000 10.2500   1
  -1   0  -4 -2.1700 15.5800   1
   1   0   4 2.33000 12.8500   1
  -1   0   4 0.00000 18.0000   1
  -1   0  -4 14.3700 15.0800   1
   7  -5   0 262.440 24.8400   1
   7  -5   0 251.360 20.6100   1
   7   5   0 364.890 30.4000   1
  -7   5   0 254.930 28.8100   1
  -7   5   0 188.020 19.2900   1
   7  -5   0 205.020 16.9800   1
   7   5   0 258.950 21.3100   1
   2  -6   3 8570.08 105.650   1
   2   6   3 7263.34 145.670   1
  -2  -6   3 7961.98 91.7800   1
   2  -6   3 8356.76 110.020   1
   2  -6  -3 8402.45 128.970   1
  -5   6   2 9091.93 112.010   1
  -5  -6  -2 8104.78 124.660   1
   5  -6   2 9066.36 108.210   1
  -5  -6  -2 8659.50 119.920   1
  -5  -6  -2 9101.58 128.220   1
   5   6   2 7538.92 145.800   1
   5  -6  -2 8480.06 107.360   1
   5   6  -2 8346.25 128.200   1
  -5  -6   2 8155.29 106.490   1
  -1  -1  -4 26110.1 189.580   1
  -1  -1   4 27444.4 273.480   1
   1  -1   4 27341.0 269.360   1
  -1   1   4 24090.2 234.800   1
   1   1   4 24732.8 208.940   1
  -1  -1   4 26724.6 314.990   1
   1  -1   4 26037.3 218.630   1
  -1   1   4 26097.0 284.470   1
  -1  -1   4 25853.0 230.640   1
   1   1   4 25897.1 202.970   1
  -1   1  -4 24281.4 210.210   1
  -1  -1  -4 26491.8 234.920   1
   1   1  -4 24299.5 260.780   1
  -1   1  -4 24418.3 187.550   1
  -3  -9   0 4730.71 83.7000   1
   3  -9   0 4697.22 80.5100   1
   3  -9   0 3851.98 108.690   1
   3  -9   0 5017.08 90.1100   1
   8   0  -1 3898.58 75.6800   1
   8   0   1 3473.88 74.8700   1
  -8   0   1 2920.25 81.0700   1
   4   7   2 13060.8 135.190   1
  -4   7   2 11760.8 179.760   1
  -4  -7  -2 13886.7 172.220   1
  -4   7  -2 12098.5 169.880   1
  -4   7   2 13241.1 217.080   1
   4  -7  -2 12017.2 146.340   1
  -4   7   2 12858.6 122.310   1
  -4  -7   2 13342.0 123.330   1
  -4  -7  -2 12321.8 156.470   1
  -4  -7  -2 12067.2 118.550   1
   4   7  -2 13217.2 132.400   1
   4  -7  -2 13511.0 133.260   1
   7   2   2 6084.96 89.1700   1
   7  -2   2 5920.88 84.9700   1
   7   2   2 5301.85 85.8100   1
  -7   2   2 5262.22 75.2800   1
  -7  -2   2 5944.14 81.2400   1
  -7  -2   2 5624.05 98.2600   1
  -7  -2  -2 5235.06 95.8100   1
  -7   2   2 5698.80 129.610   1
   7   2  -2 5433.89 95.3900   1
  -7   2   2 5148.01 105.240   1
  -7   2   2 5453.27 118.060   1
   5   3   3 7445.38 139.010   1
   5   3  -3 8496.95 122.620   1
  -5  -3  -3 8832.84 152.220   1
  -5   3   3 8793.92 152.270   1
   5  -3  -3 7684.00 122.570   1
  -5  -3   3 8047.34 91.8400   1
  -5   3   3 8656.42 99.0000   1
  -8   1   1 3148.10 61.7700   1
  -8   1   1 2645.08 78.6900   1
  -8  -1   1 3099.85 73.2300   1
   8  -1  -1 3306.81 63.8300   1
   8   1   1 3072.40 55.5500   1
   8  -1   1 2802.03 54.0900   1
   8   1   1 2837.19 58.5000   1
   8   1  -1 3457.59 66.7500   1
   0  -2   4 5258.98 96.1800   1
   0   2   4 4986.69 113.200   1
   0   2  -4 5104.59 86.7000   1
   0  -2   4 5653.81 112.270   1
   0  -2   4 4371.35 105.440   1
   0   2   4 5387.09 104.390   1
   0   2   4 4541.80 101.220   1
  -1   2  -4 3817.10 76.0000   1
   1   2  -4 3465.99 68.4400   1
  -1  -2   4 3400.18 83.7700   1
  -1  -2  -4 3603.88 82.4900   1
   1  -2   4 3621.07 76.0500   1
  -1   2   4 3412.89 86.1400   1
  -1   2  -4 3091.53 80.1300   1
   1  -2   4 3136.42 71.3600   1
   1   2   4 3364.42 85.6800   1
  -1   2   4 3480.68 74.3600   1
  -1  -2   4 3504.31 73.2600   1
   1  -2  -4 3367.43 75.3600   1
  -1  -2   4 3528.27 103.310   1
  -1   2   4 2821.68 118.200   1
   1  -2  -4 3807.47 75.4000   1
  -1  -2   4 3738.67 92.7500   1
  -1  -2  -4 3893.41 85.5900   1
   1  -2   4 3054.01 82.6500   1
   1  -2   4 3185.63 73.6800   1
   1   2   4 2854.24 93.3100   1
   1  -2   4 3664.30 77.9500   1
  -2   0   4 9833.51 116.460   1
  -2   0   4 10209.3 118.190   1
   2   0   4 8835.65 119.480   1
   8  -3   0 7946.74 162.710   1
  -6  -5   2 936.120 40.4200   1
  -6  -5   2 1002.99 36.5600   1
  -6   5   2 905.980 33.0200   1
   6   5  -2 858.510 37.4400   1
  -6   5   2 662.010 40.1500   1
  -6  -5  -2 606.830 31.8800   1
   6  -5   2 968.410 35.6500   1
  -6   5   2 696.820 37.9400   1
  -6  -5  -2 883.360 38.6900   1
   6  -5  -2 965.330 38.7600   1
  -6   5   2 675.000 35.5000   1
   6  -5  -2 804.440 32.5400   1
  -6  -5  -2 587.020 32.6100   1
   6   5  -2 909.410 32.0100   1
   6   5   2 857.670 34.0300   1
   2  -1  -4 2337.01 66.5600   1
  -2  -1  -4 2236.42 51.7500   1
  -2   1  -4 2506.66 60.6100   1
   2  -1   4 1917.73 62.2900   1
  -2  -1  -4 2422.65 74.5600   1
  -2   1  -4 2320.79 51.1100   1
   2   1   4 2512.19 65.2900   1
   2   1  -4 2287.15 56.6100   1
   2  -1  -4 2727.38 66.5300   1
  -2  -1  -4 2459.27 70.4800   1
  -2   1   4 2335.27 59.2800   1
   2  -1   4 1934.73 55.5800   1
  -2   1  -4 2026.76 88.6900   1
  -2  -1  -4 1783.33 90.4500   1
  -2  -1   4 2127.60 60.2800   1
  -2  -1   4 2220.13 53.3900   1
  -2   1   4 2483.58 56.1900   1
  -2   1  -4 2531.20 63.7900   1
   2   1   4 2133.12 65.0300   1
  -2  -1  -4 2400.36 61.3700   1
  -2   1  -4 2232.87 59.3300   1
   2  -1   4 2328.65 66.8400   1
  -8  -2   1 2226.14 65.1800   1
   8  -2  -1 2467.22 66.3700   1
   8  -2   1 2918.32 60.3300   1
   8   2  -1 3052.16 62.6600   1
   8   2   1 2957.95 65.0800   1
  -8   2   1 2533.22 56.4000   1
  -7   5   1 40.1500 10.6300   1
  -7   5  -1 36.1400 8.83000   1
   7  -5  -1 62.7700 18.4000   1
   7  -5   1 43.1600 13.7800   1
  -7   5   1 41.7900 15.5300   1
  -7   5  -1 40.4600 15.7500   1
  -7  -5  -1 49.9700 20.1100   1
   7  -5   1 34.5000 10.4200   1
  -7  -5  -1 59.9200 15.7700   1
   7  -5  -1 65.4900 18.2600   1
   7  -5   1 54.2100 13.7200   1
   7   5  -1 63.1500 18.4000   1
   7   5   1 54.3300 15.0500   1
  -7   5   1 57.4700 13.9900   1
  -4   5  -3 235.900 22.3800   1
  -4   5  -3 264.410 25.6600   1
   4  -5   3 310.220 21.6300   1
   4  -5  -3 375.840 23.1900   1
   4   5  -3 469.480 37.2100   1
  -4   5   3 324.650 22.8900   1
  -4  -5   3 355.490 21.3500   1
  -4  -5  -3 189.880 20.7600   1
  -4  -5  -3 338.410 31.0100   1
   4  -5  -3 272.530 23.3000   1
  -4  -5  -3 339.180 22.8600   1
   4  -5   3 264.540 24.4200   1
   4  -5  -3 405.710 27.3500   1
   4   5   3 358.530 28.4400   1
  -4  -5   3 383.420 22.4700   1
   4   5  -3 467.800 29.5900   1
  -4  -5  -3 442.480 34.0900   1
   4   5   3 322.680 28.4800   1
   4  -5  -3 331.160 25.3300   1
  -4   5   3 448.490 38.8300   1
   4  -5   3 388.130 26.5800   1
  -4   5   3 332.780 28.3000   1
   5  -8   0 509.840 27.9400   1
   5   8   0 406.960 21.2900   1
   5   8   0 369.750 25.3900   1
   5  -8   0 289.090 20.5500   1
   5  -8   0 364.160 23.9700   1
  -5   8   0 196.170 29.6800   1
   5  -8   0 331.990 25.7500   1
  -5   8   0 248.020 25.7900   1
  -5  -8   0 350.900 29.5200   1
   5  -8   0 329.820 24.9400   1
  -5  -8   0 330.830 21.4000   1
   6  -7   0 6217.73 91.7100   1
   6  -7   0 6266.30 100.130   1
  -6  -7   0 6050.88 93.8400   1
   6   7   0 6704.81 88.9500   1
   3  -9   1 995.790 43.4600   1
   3  -9  -1 1010.85 37.3600   1
   3  -9   1 1118.98 44.7000   1
  -3   9   1 704.710 43.5900   1
   3  -9  -1 934.530 34.2000   1
  -3   9   1 738.920 52.0400   1
   3  -9  -1 808.180 32.6200   1
  -3  -9  -1 1017.26 37.2900   1
   3   9  -1 874.950 37.6400   1
  -3  -9   1 1035.82 38.7000   1
   3   9   1 1067.68 35.9300   1
   3  -9   1 775.990 38.2200   1
  -3   9   1 825.020 40.0600   1
   3  -9  -1 829.790 40.4000   1
   3  -9  -1 1033.33 33.9300   1
   3  -8   2 15876.0 155.510   1
   3  -8  -2 15575.1 183.660   1
   3   8   2 15357.2 126.570   1
   3   8  -2 15152.7 129.320   1
  -7   3   2 11217.9 112.340   1
  -7  -3   2 10802.5 145.510   1
  -7  -3  -2 11312.3 133.180   1
   7  -3  -2 11919.2 122.590   1
   3  -6  -3 462.440 35.3900   1
   3   6  -3 587.750 28.0700   1
   3   6   3 554.020 29.4600   1
   3   6   3 419.870 31.5400   1
  -3  -6   3 760.540 35.9900   1
  -3  -6  -3 738.250 45.4300   1
   3  -6  -3 635.180 34.6100   1
  -3   6  -3 607.170 43.2600   1
   3  -6  -3 639.900 34.3400   1
  -3   6   3 401.400 28.2100   1
  -3  -6  -3 491.080 34.4300   1
  -3  -6   3 513.180 29.2100   1
   3  -6  -3 709.740 34.8800   1
   3  -6   3 465.780 34.1400   1
   3   6  -3 563.000 40.3900   1
  -3   6   3 711.070 35.1200   1
   3  -6  -3 727.660 47.3300   1
  -3  -6  -3 463.750 37.2600   1
  -3   6   3 420.410 30.9600   1
   3  -6   3 781.500 41.6200   1
   0  -3  -4 7.80000 18.2500   1
   0  -3  -4 2.76000 16.8000   1
   0   3  -4 -3.5300 12.2900   1
   0  -3   4 7.63000 10.6400   1
   0  -3   4 4.58000 12.1500   1
   0  -3   4 2.29000 18.7400   1
   0  -3   4 3.37000 6.65000   1
   0   3   4 2.31000 24.2800   1
   0  -3   4 -6.0900 19.4500   1
   0  -3  -4 -8.1500 15.8100   1
   0  -3   4 3.05000 10.8800   1
   0   3   4 4.19000 15.2100   1
   0 -10   0 2396.45 70.5400   1
   0 -10   0 3340.95 73.9100   1
   0  -7   3 2897.34 85.7500   1
   0  -7   3 3340.06 71.8500   1
   0  -7   3 3421.43 81.9500   1
   0  -7   3 2410.43 83.8300   1
   0   7   3 3339.44 75.3700   1
   0  -7  -3 2445.46 78.0900   1
   0  -7   3 2938.11 60.1200   1
   2  -2   4 10212.2 126.620   1
   2   2  -4 9849.00 112.210   1
  -2  -2  -4 10123.0 109.690   1
   2   2   4 9472.35 165.990   1
  -2  -2  -4 9472.41 121.390   1
  -2   2   4 10252.3 126.300   1
   2  -2   4 10304.4 143.090   1
  -2  -2   4 9609.99 115.400   1
  -6   0   3 7584.72 93.8000   1
  -6   0   3 6398.33 101.700   1
  -6   0   3 6737.53 101.180   1
  -6   0  -3 6253.00 134.220   1
  -1  -3   4 3462.21 77.0700   1
  -1  -3   4 3758.69 107.850   1
   1  -3   4 3232.00 64.5500   1
  -1   3   4 3794.48 74.4700   1
  -1  -3   4 3758.25 74.6600   1
   1  -3   4 3454.67 85.9900   1
  -1  -3  -4 3192.78 66.8500   1
   1  -3  -4 3343.52 58.0100   1
  -1  -3   4 3272.18 68.8600   1
   1  -3  -4 3255.21 74.2000   1
   1  -3   4 3602.63 78.2600   1
   1  -3  -4 3307.05 71.8600   1
  -1  -3  -4 3678.84 77.9500   1
   1   3   4 3286.31 96.8900   1
  -1   3  -4 3218.78 81.9500   1
  -1  -3   4 2881.17 71.2700   1
   1 -10   0 253.520 30.0700   1
  -1 -10   0 251.130 24.5500   1
   1 -10   0 183.450 22.8200   1
   1  10   0 198.180 20.1900   1
   1 -10   0 273.880 29.6000   1
  -1 -10   0 174.520 28.4200   1
   1  -7  -3 76.2700 16.7600   1
   1  -7   3 48.0100 10.7400   1
  -1  -7  -3 89.7600 15.1500   1
  -1  -7   3 76.9300 13.8900   1
   1  -7  -3 89.5800 20.7200   1
  -1  -7   3 63.4100 12.1300   1
   1  -7  -3 39.7500 10.3600   1
  -1  -7  -3 43.2100 11.1000   1
  -1   7   3 85.3000 20.7700   1
  -1  -7   3 68.7900 14.7100   1
   1   7   3 74.6700 22.8300   1
  -1  -7  -3 94.8200 22.8500   1
   1  -7  -3 102.590 21.9600   1
   1  -7  -3 85.9600 20.5400   1
   1  -7   3 49.1100 20.9100   1
   1  -7  -3 44.4100 11.3700   1
  -1  -7  -3 34.8100 10.4300   1
  -1  -7  -3 65.1800 18.3800   1
  -1  -7   3 68.7100 25.6800   1
   1  -7   3 54.0000 13.2000   1
   1   7   3 43.4100 10.4400   1
  -5   4   3 5284.70 79.9700   1
   5   4  -3 5204.93 97.9200   1
  -5   4  -3 5373.81 91.2900   1
   5  -4  -3 5316.34 79.8700   1
   5   4  -3 5291.38 74.5600   1
  -5   4   3 4745.15 97.3200   1
  -6  -1   3 43.9200 15.8700   1
  -6  -1   3 56.0100 17.6700   1
   6   1   3 52.6600 16.7400   1
   6  -1  -3 72.9100 15.2000   1
   6   1  -3 47.9000 11.8700   1
  -6  -1  -3 49.1900 13.4800   1
   6  -1   3 67.4400 16.6300   1
   6   1   3 41.3800 17.0100   1
  -6   1   3 46.5100 12.5100   1
   6  -1   3 16.4300 10.0000   1
   6   1   3 26.8500 12.4400   1
  -6   1  -3 45.7500 15.4000   1
  -6  -1  -3 22.6200 11.3400   1
   6  -1  -3 56.8500 18.9800   1
   6   1  -3 40.0400 18.0700   1
  -6   1   3 31.7400 16.3400   1
  -6  -1   3 29.3400 10.8900   1
  -6   1  -3 42.9400 11.8000   1
  -6   1   3 69.9200 17.0700   1
   8  -3  -1 299.880 20.6600   1
   8  -3   1 471.020 26.8900   1
  -8   3  -1 239.540 25.1000   1
  -8  -3  -1 344.800 26.3400   1
   8  -3  -1 485.000 31.2700   1
   8   3  -1 486.530 29.6400   1
  -8   3   1 316.760 28.4800   1
   8   3   1 390.610 21.4200   1
  -8   3   1 351.880 21.3200   1
  -8   3   1 299.900 22.6900   1
   8  -3   1 368.820 37.2700   1
  -8  -3   1 333.270 23.0200   1
  -4  -9   0 4864.74 82.7100   1
   4  -9   0 5620.22 92.9600   1
   4  -9   0 5001.17 82.7200   1
   4   9   0 4606.92 82.0200   1
   4  -9   0 5354.79 83.4600   1
   3   0  -4 -1.1500 13.6600   1
  -3   0  -4 5.51000 10.2000   1
   3   0   4 -1.7800 11.4400   1
  -3   0  -4 3.54000 16.9500   1
   3   0  -4 3.79000 7.46000   1
  -3   0   4 2.93000 9.10000   1
  -3   0   4 4.69000 11.3000   1
   3   0   4 5.13000 10.7900   1
  -3   0   4 22.1500 17.7600   1
  -3   0  -4 -2.4400 13.2400   1
  -3   0  -4 -6.8200 16.6500   1
   7   6   0 584.390 31.5200   1
   7  -6   0 445.410 23.1600   1
  -7   6   0 361.980 26.4600   1
   7  -6   0 492.890 31.3900   1
   0  -9  -2 11.9200 14.1900   1
   0  -9  -2 13.0400 20.4000   1
   0  -9   2 1.26000 15.7000   1
   0  -9   2 13.5700 14.9700   1
   0  -9  -2 12.4000 13.3500   1
   0  -9   2 4.00000 9.21000   1
   0   9   2 -1.7000 15.9400   1
   0  -9  -2 1.00000 8.89000   1
   0   9   2 9.06000 11.0500   1
   0  -9   2 12.7700 19.6400   1
   8  -4   0 4339.51 87.4400   1
  -5   8   1 3419.86 101.780   1
   5  -8  -1 4361.85 86.3600   1
  -5   8  -1 3880.38 109.330   1
  -5   8  -1 4319.78 123.680   1
  -5  -8  -1 4108.80 68.7200   1
   5  -8   1 4356.65 78.1600   1
   5   8  -1 3936.21 65.3700   1
  -5   8   1 4207.20 64.1400   1
   5   8  -1 3970.32 78.0900   1
   6  -7  -1 7497.72 149.960   1
   6   7  -1 8182.10 120.290   1
  -6   7   1 6870.72 133.740   1
  -6  -7  -1 8418.94 106.560   1
   3   1   4 151.410 17.7300   1
   3   1   4 131.550 21.2200   1
   3  -1   4 151.000 19.5000   1
  -3   1   4 219.840 23.0800   1
  -3  -1   4 196.430 21.0400   1
  -3   1  -4 182.200 18.9200   1
  -3  -1  -4 200.010 29.5200   1
  -3   1  -4 195.700 18.9300   1
  -3  -1  -4 208.930 33.9100   1
  -3  -1  -4 210.760 19.3100   1
  -3  -1   4 159.600 16.2100   1
  -3  -1  -4 247.020 30.8900   1
   3   1  -4 169.170 15.8000   1
   3  -1  -4 190.800 20.7000   1
  -3  -1  -4 127.560 18.7500   1
  -3   1  -4 176.600 23.9500   1
  -3  -1   4 147.020 19.2100   1
   3  -1   4 219.190 21.7000   1
  -3   1  -4 186.290 19.0300   1
   3   1  -4 200.970 20.1000   1
   3   1   4 194.370 23.5700   1
  -6  -2  -3 1347.06 55.3300   1
  -6  -2   3 1699.22 43.5800   1
   6   2   3 1722.40 59.7400   1
  -6   2   3 1730.79 54.0400   1
  -6  -2  -3 1359.08 67.1600   1
  -6   2   3 1759.70 44.0300   1
  -6   2   3 1390.98 53.0900   1
   6   2   3 1401.66 61.3200   1
   6  -2   3 1924.79 51.7000   1
   6   2  -3 1679.22 42.2100   1
   6  -2  -3 1716.28 49.1600   1
  -6  -2   3 1718.81 51.1100   1
   6   2   3 1530.57 45.9300   1
  -1  -9   2 854.420 47.2100   1
   1   9   2 782.140 42.3800   1
   1  -9  -2 1042.24 37.1600   1
  -1   9   2 733.830 43.2900   1
  -1  -9  -2 976.190 46.0200   1
   1  -9   2 811.220 40.6500   1
   1  -9  -2 823.740 36.5200   1
   1  -9   2 1121.76 44.3500   1
  -1  -9  -2 1134.74 43.5300   1
   1  -9  -2 883.150 39.4900   1
   1  -9   2 1033.71 41.7500   1
   1  -9  -2 672.600 36.0500   1
   1   9   2 805.830 32.6100   1
  -1  -9   2 579.520 46.3500   1
   1   9  -2 861.230 31.4000   1
   2  -3  -4 1520.38 44.7400   1
  -2   3   4 1349.56 47.1400   1
  -2  -3   4 1256.54 44.0800   1
   2  -3  -4 1495.75 44.9100   1
  -2   3  -4 1054.37 60.8100   1
   2  -3   4 1455.92 51.0800   1
  -2  -3   4 1519.41 51.2900   1
   2   3   4 1067.57 47.8800   1
   2  -3   4 1142.54 43.8600   1
   2  -3  -4 1250.36 44.5900   1
  -2   3  -4 1240.15 38.0700   1
   2  -3   4 1117.13 44.5300   1
  -2  -3  -4 1292.75 46.5000   1
   2  10   0 18222.5 146.650   1
   2  10   0 16730.7 156.830   1
   2   7   3 8612.79 132.340   1
   2   7   3 8212.57 135.030   1
   0 -10  -1 8.27000 17.4000   1
   0 -10   1 11.7300 22.8100   1
   0 -10  -1 10.9100 14.7300   1
   0 -10   1 27.2200 18.2000   1
   0  10   1 2.51000 11.1200   1
   0 -10   1 12.7200 15.7200   1
  -5   7  -2 330.060 27.6300   1
   5  -7  -2 424.920 27.4900   1
   5  -7  -2 493.790 30.0400   1
  -5   7   2 466.590 33.9700   1
   5  -7  -2 422.180 23.9100   1
   5  -7  -2 381.910 29.5900   1
   5   7  -2 335.460 26.6200   1
  -5   7   2 397.570 26.1900   1
  -5  -7   2 574.620 27.3300   1
  -5  -7  -2 364.890 25.7900   1
   5   7   2 528.130 26.7700   1
   5   7  -2 530.810 27.8700   1
   5  -7  -2 472.290 24.2700   1
  -5   7   2 367.400 31.0100   1
  -5  -7  -2 360.190 20.3200   1
   5  -7   2 504.460 31.6000   1
  -5  -7  -2 302.180 21.8200   1
  -5  -7  -2 428.920 30.6100   1
   5  -7   2 384.670 26.6000   1
  -7   4   2 459.160 23.6600   1
   7   4  -2 483.660 29.4700   1
  -7   4   2 404.950 31.8100   1
   7  -4   2 559.850 55.2200   1
   7  -4  -2 618.420 29.7200   1
  -7  -4  -2 500.940 28.0400   1
   7  -4  -2 547.250 28.7100   1
  -7  -4  -2 475.100 34.2700   1
   7  -4   2 579.880 30.2000   1
  -7   4   2 450.710 32.5200   1
   7   4  -2 506.090 24.0700   1
   7   4   2 522.080 27.5200   1
  -7  -4   2 708.130 33.3400   1
   0   4  -4 2546.25 60.5500   1
   0  -4   4 3297.03 90.5400   1
   0  -4   4 3005.79 74.8400   1
   0  -4   4 2752.84 73.0800   1
   1 -10  -1 27016.8 213.130   1
   1 -10  -1 26722.6 185.670   1
   1 -10   1 27083.9 204.810   1
   1 -10  -1 26006.2 208.720   1
   3   2  -4 9449.21 114.050   1
  -3   2  -4 9252.54 134.350   1
   3   2   4 8407.30 149.660   1
   3  -2   4 8555.95 139.330   1
   3   2  -4 9663.94 111.740   1
  -3  -2  -4 9438.90 103.200   1
   3  -2   4 9512.13 115.880   1
  -3  -2   4 8426.56 106.880   1
  -3  -2  -4 9303.76 142.920   1
   3  -2   4 8267.86 138.680   1
  -3   2   4 9521.52 122.940   1
  -6   6   2 961.950 43.1800   1
  -6  -6   2 1264.14 35.5700   1
   6  -6  -2 1378.75 44.9500   1
   6   6  -2 1135.02 44.4100   1
   6  -6  -2 1251.18 43.4000   1
  -6  -6  -2 1487.52 51.2900   1
  -6   6   2 1354.90 40.3700   1
  -6   6   2 1100.64 54.3600   1
   6  -6  -2 1566.25 47.5100   1
   6  -6   2 1098.08 55.5000   1
  -1  -4   4 4118.30 79.7300   1
   1  -4   4 3905.09 78.1600   1
  -1  -4   4 3268.04 73.0500   1
   1  -4  -4 3669.26 66.3600   1
   1  -4   4 3106.83 78.4800   1
  -1  -4  -4 3778.82 83.1500   1
  -1  -4   4 3326.72 68.7900   1
  -1  -4  -4 4016.61 77.6000   1
   1  -4  -4 3706.08 81.4000   1
   1  -4   4 3680.16 84.9600   1
   1  -4   4 4220.09 86.6500   1
   1   4   4 3266.36 96.1100   1
   1  -4   4 3347.14 70.0100   1
  -1  -4   4 3915.81 73.7000   1
  -1   4   4 3799.18 74.6800   1
  -1  -4  -4 3610.79 75.3100   1
   1  -4  -4 4186.42 88.3300   1
   4  -9   1 1428.59 48.3100   1
   4  -9  -1 1344.99 44.0000   1
  -4  -9  -1 1243.60 44.8100   1
   4  -9  -1 1050.24 49.2000   1
   4  -9   1 1088.46 37.8900   1
   4  -9  -1 1348.96 45.1900   1
   4   9  -1 1180.15 39.5700   1
   4  -9  -1 1327.25 41.1600   1
  -4   9   1 1058.68 47.4500   1
   4   9   1 1187.40 38.9300   1
  -4   9  -1 909.600 54.3900   1
  -4   9   1 1041.61 62.1400   1
  -4   9  -1 786.950 45.8900   1
   4  -9  -1 1153.14 38.3500   1
   4  -8  -2 56.8000 15.0700   1
   4   8  -2 68.9700 15.2100   1
   4  -8  -2 93.4200 16.0900   1
  -4   8   2 44.2400 11.4300   1
   4  -8  -2 75.0600 19.6500   1
   4  -8   2 79.0800 15.8300   1
   4  -8  -2 112.620 20.0200   1
  -4   8  -2 56.0900 16.0500   1
  -4   8   2 75.0300 16.4100   1
   4  -8  -2 84.8400 22.1500   1
  -4  -8   2 94.5400 14.7100   1
  -4  -8  -2 88.7800 19.5500   1
   4   8   2 55.0000 12.8200   1
   4   8  -2 70.2400 16.6000   1
  -4   8   2 51.6300 15.7500   1
   4  -8   2 69.5500 19.8900   1
  -4  -8  -2 85.2800 18.3200   1
  -7   6   1 4839.88 101.580   1
  -7  -6  -1 5372.08 87.5300   1
   7  -6   1 4849.29 92.8800   1
   7  -6  -1 5590.50 98.3900   1
   7   6  -1 4883.16 91.1100   1
  -7   6   1 5851.21 81.0700   1
   7   6  -1 5300.62 74.1500   1
   7  -6   1 5916.63 91.8000   1
   7  -6  -1 5554.82 87.5300   1
   4   6   3 1182.96 65.8100   1
  -4   6  -3 957.100 47.2200   1
  -4  -6  -3 1586.85 56.8200   1
  -4  -6  -3 1151.38 38.1200   1
  -4  -6   3 1222.53 37.6200   1
  -4  -6  -3 981.920 38.0300   1
  -4   6   3 934.320 40.1700   1
   4  -6  -3 1483.80 49.5400   1
   4   6   3 1060.01 45.7400   1
  -4  -6   3 1407.71 40.0100   1
  -4   6   3 1307.30 39.1700   1
  -4  -6  -3 918.950 47.7200   1
   4   6  -3 1329.24 58.0800   1
   4  -6  -3 1416.01 56.2900   1
   4  -6   3 894.210 53.2500   1
   2   9   2 4878.07 80.0100   1
  -2  -9  -2 4889.02 103.900   1
  -2  -9   2 4525.28 110.060   1
  -2   9   2 4830.11 81.3100   1
   2   9   2 5490.11 162.120   1
   2  -9  -2 4438.79 131.150   1
  -2  -9  -2 4983.04 111.070   1
   2  -9   2 4933.76 102.560   1
   2  -9  -2 5307.66 88.8000   1
   2  -9  -2 5077.49 80.9300   1
   2   9  -2 5390.67 95.7000   1
  -2   9   2 4206.76 122.830   1
   6   3   3 10117.3 118.350   1
  -6  -3   3 9842.89 116.460   1
  -6  -3   3 10672.9 112.140   1
  -6   3   3 10890.0 125.880   1
  -6  -3  -3 10744.5 206.720   1
  -8  -4  -1 3640.55 69.8700   1
  -8   4  -1 2894.34 92.7800   1
   8  -4  -1 3271.33 63.7200   1
   8   4  -1 3573.86 63.2200   1
  -8   4   1 3467.21 58.9800   1
  -8   4   1 3156.51 94.7600   1
   8  -4   1 3496.07 65.5600   1
  -5  -5  -3 757.150 41.1900   1
   5  -5   3 1072.31 40.7000   1
   5   5   3 892.810 30.8200   1
  -5  -5   3 791.360 29.8400   1
  -5  -5   3 884.540 32.5000   1
  -5   5   3 1012.16 36.0400   1
  -5  -5  -3 844.710 45.1100   1
  -5  -5  -3 1122.05 37.4200   1
   5  -5  -3 1111.90 42.0500   1
  -5   5   3 804.310 44.0700   1
  -5   5  -3 930.820 44.4300   1
   5   5   3 632.720 37.1100   1
   5  -5  -3 964.430 33.3800   1
   5  -5  -3 1007.98 45.8000   1
   5   5  -3 990.380 46.7500   1
   8   0   2 8352.58 111.830   1
   8   0   2 7602.53 97.6800   1
   8   0  -2 8556.98 102.480   1
   2  10  -1 1832.89 54.7200   1
   2 -10  -1 2072.54 54.3100   1
   2  10   1 1728.05 91.0100   1
  -2  10   1 1664.18 63.1800   1
  -2 -10   1 2361.38 79.8300   1
  -2  10   1 1360.70 76.6700   1
  -2 -10  -1 1461.84 51.9600   1
   2 -10   1 1961.05 56.7100   1
   2 -10  -1 1972.16 56.7800   1
   2 -10  -1 2134.87 56.0600   1
  -2 -10  -1 2130.06 57.8800   1
  -2 -10  -1 2035.50 57.4200   1
   2 -10   1 2153.48 53.5700   1
   2  10   1 1618.07 41.3600   1
   2  10  -1 1992.18 50.6400   1
  -9   0   0 9.90000 12.8600   1
   9   0   0 27.8600 15.9000   1
  -8  -1  -2 119.960 20.0100   1
   8  -1  -2 162.880 20.2000   1
   8   1  -2 165.590 19.7600   1
   8   1   2 121.800 17.6600   1
  -8  -1  -2 58.5000 12.0100   1
  -8   1   2 109.490 16.2600   1
  -8  -1   2 113.800 14.9500   1
   8  -1   2 138.400 19.8300   1
   8   1   2 112.520 19.5400   1
   8  -1  -2 151.320 19.8400   1
   3  -3   4 6043.02 115.270   1
  -3  -3  -4 6153.94 81.2200   1
  -3   3  -4 5765.51 177.670   1
  -3   3  -4 5735.32 92.1800   1
  -3  -3  -4 6289.25 108.680   1
  -3   3   4 5596.58 88.8200   1
  -3  -3   4 5332.37 81.3500   1
   3   3  -4 6200.42 89.8200   1
  -3  -3  -4 5424.76 108.800   1
   3 -10   0 4047.76 80.1300   1
   3  10   0 3616.84 68.4400   1
  -3  10   0 3417.08 106.520   1
   9   1   0 33714.9 217.910   1
  -2   4  -4 218.890 26.0600   1
   2   4   4 303.620 28.2900   1
  -2  -4  -4 403.350 26.9400   1
   2  -4  -4 469.380 33.9900   1
   2  -4   4 274.330 22.4400   1
   2  -4  -4 457.900 29.3400   1
  -2  -4  -4 515.680 30.2700   1
  -2   4  -4 448.730 28.7900   1
   2  -4  -4 542.070 28.4300   1
  -2  -4  -4 409.100 26.0500   1
   2  -4   4 303.850 23.9500   1
   2  -4  -4 331.520 21.3900   1
  -2   4   4 400.190 28.5800   1
  -2  -4   4 401.780 26.3400   1
   2   4   4 208.980 20.8100   1
  -2  -4   4 328.860 20.6600   1
  -2   4  -4 406.630 41.1500   1
  -2  -4   4 423.000 34.9300   1
   2  -4   4 395.130 29.2200   1
  -2   4   4 247.960 20.8600   1
  -3   7   3 1315.01 61.9800   1
  -3  -7  -3 1242.68 51.1800   1
  -3  -7   3 1503.95 46.1600   1
   3  -7   3 1225.62 51.9000   1
   3  -7  -3 1893.19 50.2200   1
   3  -7  -3 1840.84 51.4100   1
  -3   7  -3 1475.01 57.5200   1
   3  -7  -3 1669.02 49.6000   1
  -3  -7  -3 1905.49 73.0900   1
   3  -7  -3 1582.34 56.1500   1
   4   0  -4 4638.74 93.7700   1
  -4   0  -4 5330.27 79.1400   1
   8  -5   0 954.080 37.9700   1
  -8   5   0 883.830 50.7000   1
   8  -5   0 846.850 33.0900   1
   8   5   0 563.890 24.9800   1
   8   5   0 547.940 26.8000   1
  -8   5   0 757.610 43.3100   1
   6  -8   0 335.000 26.8200   1
   6   8   0 283.190 21.6900   1
   6   8   0 215.210 18.2700   1
   6  -8   0 205.850 18.5600   1
   6  -8   0 135.300 21.2200   1
  -6   8   0 78.0500 16.6400   1
  -6  -8   0 186.430 18.1700   1
   6  -8   0 217.100 22.1500   1
  -6   8   0 130.400 19.0400   1
  -6   8   0 121.450 19.1200   1
  -6  -8   0 214.050 24.3200   1
   4  -1  -4 849.250 34.3000   1
  -4  -1  -4 579.800 36.4200   1
   4  -1   4 746.030 40.5100   1
   4  -1  -4 639.430 39.8800   1
  -4   1   4 795.240 34.0900   1
   4   1   4 721.700 34.3000   1
   4  -1   4 854.730 38.4400   1
  -4  -1  -4 570.590 45.7700   1
   4   1  -4 849.040 43.6400   1
   4   1   4 732.120 43.5100   1
  -4   1  -4 574.330 35.8900   1
  -4  -1   4 641.050 32.6400   1
   4   1   4 987.030 51.2900   1
  -4  -1   4 1008.28 39.1300   1
  -4   1   4 983.390 37.4300   1
  -4   1  -4 798.230 50.8000   1
  -4  -1  -4 771.350 40.0200   1
  -4   1  -4 908.730 39.5600   1
  -4  -1  -4 897.470 33.8400   1
  -4  -1   4 658.920 41.8100   1
  -4   1  -4 655.970 49.2600   1
  -4   1   4 695.070 39.9000   1
   8   2   2 13989.6 136.380   1
   8   2  -2 13594.4 128.640   1
   8  -2   2 12531.8 129.200   1
   8  -2  -2 13871.9 135.880   1
   8   2   2 12298.8 139.140   1
   7   5  -2 1978.68 59.7300   1
  -7  -5  -2 2282.50 55.5400   1
   7  -5   2 2295.64 55.7400   1
   7   5   2 2119.30 50.6500   1
  -7  -5  -2 1831.21 60.9700   1
  -7  -5   2 2003.52 44.9700   1
  -7   5   2 2096.67 45.4300   1
   0   8   3 0.69000 8.27000   1
   0  -8  -3 3.97000 10.6400   1
   0  -8   3 1.99000 21.8400   1
   0  -8   3 -0.6000 9.07000   1
   0  -8  -3 18.2900 22.1300   1
   0  -8   3 9.47000 12.2000   1
   0  -8  -3 14.9700 19.0100   1
   0  -8  -3 8.85000 15.9300   1
   0  -8   3 8.04000 16.5100   1
   0   8   3 0.64000 16.8400   1
   0  -8  -3 5.65000 9.82000   1
  -5  -9   0 18.0400 21.2100   1
   5  -9   0 5.05000 12.1300   1
  -5   9   0 6.84000 15.0000   1
   5   9   0 12.2200 9.84000   1
   5  -9   0 17.6300 19.2700   1
   5   9   0 26.4100 15.9800   1
   5  -9   0 20.3300 21.0500   1
   5  -9   0 5.16000 14.5500   1
   5  -9   0 9.14000 9.86000   1
  -9  -2   0 192.120 19.0800   1
   9  -2   0 215.160 18.5700   1
   9   2   0 404.990 26.2900   1
  -9   2   0 147.620 19.7500   1
   0  -5  -4 3.93000 16.6900   1
   0  -5  -4 -0.3600 19.0700   1
   0  -5   4 0.18000 9.22000   1
   0   5  -4 -0.9100 10.2800   1
   0  -5   4 9.93000 11.6600   1
   0  -5  -4 10.5000 15.8400   1
   0  -5   4 6.80000 12.5000   1
   0  -5   4 -8.8200 21.2900   1
   0   5   4 12.6100 19.5500   1
   0  -5   4 11.4300 17.9700   1
   0  -5   4 12.9300 9.17000   1
   3  -9   2 1838.13 59.9800   1
  -3  -9   2 1280.93 47.9200   1
   3  -9  -2 1724.80 48.2000   1
  -3  -9  -2 1750.71 57.2300   1
   3  -9  -2 1357.85 49.9400   1
   3   9  -2 1484.59 42.1100   1
  -3   9   2 1240.63 69.9000   1
   3   9   2 1389.97 41.3700   1
   3  -9  -2 1279.51 62.7500   1
   3  -9   2 1434.91 58.1400   1
   3  -9  -2 1507.52 48.8500   1
   3  -9  -2 1547.26 50.5600   1
  -3  -9  -2 1513.78 48.6500   1
   3  -9   2 1597.20 49.3700   1
   3  -9  -2 1491.55 51.1800   1
  -3   9   2 1488.13 43.9100   1
   7  -7   0 1831.64 53.1000   1
   1  -8  -3 13448.3 131.210   1
  -1  -8  -3 13356.2 125.190   1
   1  -8  -3 13639.5 144.720   1
   1  -8  -3 13487.1 124.840   1
  -1   8   3 12062.8 154.880   1
  -1  -8  -3 12106.9 189.870   1
   1  -8  -3 13133.0 172.260   1
  -1  -8   3 12547.1 169.240   1
  -6   4   3 8761.55 105.520   1
   6  -4  -3 8322.86 120.420   1
  -6  -4  -3 7783.26 137.280   1
   4   2   4 4732.32 93.2300   1
  -4   2  -4 4575.88 141.730   1
   4   2  -4 4751.29 73.4000   1
  -4   2  -4 4045.27 88.3200   1
  -4  -2   4 4449.52 80.2600   1
   4   2   4 4521.51 90.0400   1
  -4   2  -4 5190.86 95.5900   1
   4   2   4 4218.24 101.100   1
  -4  -2   4 4219.87 88.6000   1
  -4  -2  -4 4958.30 72.0600   1
  -4  -2  -4 4506.08 107.870   1
   4  -2   4 4059.25 97.6700   1
  -9   0   1 3.52000 11.5200   1
  -9   0  -1 3.86000 11.0600   1
   9   0   1 13.8600 19.6000   1
   9   0  -1 5.18000 17.8600   1
   9   0   1 -2.0600 18.0800   1
   1  -5   4 4865.93 94.4600   1
   1  -5   4 4092.22 76.7100   1
   1  -5  -4 4650.04 96.1600   1
  -1  -5   4 5005.58 105.970   1
  -1  -5  -4 4841.97 85.6500   1
  -1  -5   4 4313.00 84.2600   1
   1  -5   4 4229.39 96.6100   1
   1   5   4 4962.14 90.7500   1
  -1  -5   4 4572.17 77.8500   1
  -1   5   4 4515.79 86.6000   1
   1  -5   4 3992.93 78.6900   1
   3 -10  -1 1439.33 49.1600   1
   3 -10   1 1394.55 47.6100   1
  -3 -10  -1 1281.39 41.1900   1
  -3 -10   1 1460.77 48.4900   1
  -3  10   1 1276.78 74.2200   1
   3  10  -1 1486.34 37.6800   1
   3  10   1 1624.44 43.4300   1
   3 -10   1 974.150 56.7700   1
   3 -10  -1 999.710 53.5500   1
   3 -10   1 1310.48 42.4700   1
   3 -10  -1 1359.91 43.9900   1
   3 -10  -1 1594.60 47.4700   1
   9  -1  -1 5202.91 79.4700   1
   9  -1  -1 5618.19 84.6400   1
  -7   0  -3 7.57000 12.9300   1
   7   0  -3 13.1500 19.6900   1
   7   0  -3 17.0600 14.1700   1
  -7   0   3 16.3800 12.8200   1
  -7   0   3 23.2600 19.5100   1
   7   0   3 6.71000 15.9300   1
   8   5   1 6143.75 88.3500   1
  -8   5   1 5713.48 76.9800   1
  -8   5   1 5037.08 128.070   1
   6  -8   1 1938.47 66.3900   1
  -6  -8  -1 2177.46 60.8900   1
  -6  -8   1 2415.14 57.8600   1
   6  -8  -1 2166.61 50.9400   1
   6  -8  -1 2100.11 64.8000   1
   6  -8  -1 2240.52 59.2500   1
   6   8  -1 2226.53 56.1200   1
   6  -8   1 1829.58 58.8300   1
   6   8  -1 2280.22 48.2500   1
  -6   8  -1 1751.08 77.9000   1
  -6  -8  -1 2380.63 58.9200   1
   3   4   4 7928.15 163.920   1
   3   4   4 6920.96 134.590   1
   3  -4  -4 8408.37 102.700   1
  -3  -4  -4 8168.04 107.900   1
  -3  -4  -4 8341.32 99.2500   1
  -3  -4  -4 8345.00 132.560   1
  -3  -4   4 7286.79 90.6500   1
   3   4  -4 8215.76 102.830   1
   7   1  -3 83.2300 16.5800   1
   7  -1  -3 71.7600 15.6100   1
   7   1   3 45.8600 18.8100   1
  -7  -1   3 52.5300 14.2600   1
  -7   1   3 43.9300 13.4000   1
   7   1  -3 67.4200 18.0900   1
   7   1   3 66.6000 15.7700   1
  -7   1   3 90.8500 19.9800   1
  -7  -1  -3 42.9400 12.7500   1
   7  -1  -3 71.7500 19.1500   1
  -7   1   3 37.2100 11.3900   1
   7  -1   3 69.6800 18.2300   1
  -7  -1  -3 41.5900 14.1900   1
  -8   3   2 2421.70 53.6000   1
   8  -3  -2 2414.66 54.8400   1
  -8  -3  -2 2346.57 60.1400   1
   8   3   2 2620.69 57.9600   1
   8  -3  -2 2625.97 60.4000   1
   8  -3   2 2395.75 56.2700   1
   8  -3  -2 2663.07 61.2700   1
   9  -3   0 1460.64 43.9400   1
   9  -3   0 969.160 48.8100   1
   9   3   0 1436.62 44.8100   1
  -9  -3   0 1656.14 65.5300   1
  -2  -8  -3 871.900 48.5100   1
   2  -8  -3 979.860 36.5400   1
  -2  -8   3 1140.11 47.4800   1
  -2   8   3 677.510 54.4500   1
  -2  -8  -3 605.190 47.3700   1
   2  -8   3 1057.23 42.9400   1
   2  -8  -3 930.140 46.1000   1
  -2  -8  -3 1232.92 54.2800   1
   2   8  -3 981.510 33.9500   1
   2  -8  -3 1187.66 43.5000   1
   2  -8  -3 1139.61 38.3400   1
   2   8   3 1270.09 57.5100   1
  -2   8   3 1078.53 55.9100   1
  -2  -8   3 895.730 48.8900   1
   0 -11   0 -12.180 20.8900   1
   0 -11   0 -4.1900 19.2700   1
   0 -11   0 5.18000 21.8900   1
   5   9   1 987.710 39.2300   1
   5  -9   1 658.590 32.4300   1
   5  -9   1 688.200 32.8800   1
  -5   9   1 619.160 24.7100   1
   5   9  -1 715.830 30.8900   1
   5  -9   1 790.900 36.0900   1
  -5   9   1 578.320 35.0700   1
   5   9  -1 599.920 31.8700   1
   5  -9  -1 718.650 42.3200   1
  -5  -9  -1 1020.49 40.0300   1
  -5   9  -1 602.600 41.7700   1
   5  -9  -1 1070.30 46.8900   1
   5  -9  -1 779.690 36.3900   1
   5  -9   1 916.460 35.9200   1
   5  -9  -1 812.300 36.0700   1
   5  -9  -1 834.160 34.2100   1
   9  -2  -1 107.030 27.2300   1
   9   2   1 120.440 22.5400   1
   9   2  -1 79.8600 20.1600   1
   9  -2   1 139.100 25.7400   1
   9  -2  -1 52.3500 15.6900   1
  -9   2   1 76.2300 18.4400   1
  -9   2  -1 50.9400 14.4200   1
  -9  -2  -1 48.5400 12.5900   1
   9  -2  -1 67.9800 18.3100   1
   5  -8  -2 6170.86 107.120   1
   5  -8   2 5590.28 85.4500   1
   5   8  -2 5994.61 87.3600   1
   5   8   2 5821.44 96.0600   1
  -5  -8   2 5937.59 85.4300   1
   5   8  -2 5520.53 138.900   1
   5  -8  -2 6268.05 95.1700   1
  -5   8  -2 5367.24 148.820   1
   5  -8  -2 6033.00 96.1700   1
   5  -8   2 6496.16 113.930   1
  -5  -8  -2 5803.93 81.4500   1
   6   7  -2 3388.19 96.5800   1
   6  -7   2 3102.34 102.460   1
   6  -7  -2 3905.69 73.1300   1
  -6  -7  -2 3868.39 68.5500   1
   6   7  -2 3603.99 66.4400   1
   6  -7  -2 3885.17 70.7800   1
   6  -7  -2 3963.89 79.8200   1
  -6   7   2 3928.01 67.0100   1
  -6  -7   2 3888.60 68.5900   1
   6  -7  -2 3731.63 71.8600   1
   2  -5   4 7055.96 111.120   1
   2  -5  -4 6840.43 102.150   1
  -2  -5  -4 6951.98 98.2500   1
   2  -5   4 5924.68 101.440   1
   2  -5   4 6818.48 102.770   1
  -2  -5   4 6468.77 115.890   1
   2   5   4 6811.87 109.240   1
  -2  -5   4 6864.03 95.7900   1
  -2   5   4 6941.29 99.2200   1
  -5  -6  -3 5776.80 115.320   1
   5   6  -3 6819.49 84.6200   1
   5   6   3 6599.86 83.1500   1
  -5  -6  -3 7116.39 139.110   1
   5  -6  -3 6968.26 100.590   1
  -5   6   3 6492.34 92.4500   1
  -4  -3  -4 1284.96 46.0400   1
  -4  -3   4 1439.62 46.0200   1
   4   3   4 976.080 42.8200   1
  -4  -3   4 1320.44 44.1600   1
   4  -3  -4 924.550 53.1500   1
   4   3  -4 1104.91 30.8100   1
  -4   3  -4 1092.12 40.2800   1
  -4  -3  -4 1263.37 57.6500   1
  -4  -3  -4 1330.38 39.2100   1
  -4  -3   4 972.410 43.8100   1
  -4   3  -4 867.480 55.2700   1
  -4  -3  -4 834.950 53.7000   1
  -4   3   4 1091.79 47.2700   1
   4   3   4 1383.75 55.5400   1
   4   3   4 1046.08 53.6600   1
   4 -10   0 502.900 32.4800   1
  -4 -10   0 304.690 27.2300   1
  -4  10   0 235.460 25.4200   1
   4 -10   0 346.420 23.6300   1
   4  10   0 410.530 24.7100   1
   4  10   0 229.400 19.8600   1
   4 -10   0 254.090 22.1400   1
   4 -10   0 403.310 23.0000   1
   4 -10   0 425.530 27.9700   1
  -7   7   1 543.910 39.1200   1
  -7   7   1 524.040 35.2900   1
   7  -7  -1 775.850 34.0000   1
  -7   7   1 782.070 30.5700   1
  -7  -7  -1 707.600 33.1700   1
   7   7  -1 784.850 36.6700   1
   7  -7   1 735.290 37.9900   1
   7   7   1 813.440 29.8700   1
   7  -7   1 811.050 34.5900   1
   7  -7  -1 805.380 33.2100   1
  -4  -7  -3 836.020 52.5800   1
   4   7  -3 970.370 29.8900   1
   4  -7  -3 1364.79 65.2200   1
   4  -7   3 1194.87 42.5700   1
  -4   7   3 810.490 46.7600   1
   4   7   3 985.340 46.7300   1
  -4  -7  -3 834.250 42.1500   1
  -4   7   3 1007.01 36.8700   1
  -4  -7   3 1239.39 38.5600   1
   4  -7  -3 1206.55 40.4100   1
  -4  -7  -3 1336.04 56.4000   1
   4  -7   3 933.660 47.7700   1
   4   7  -3 882.290 60.7300   1
   4  -7   3 1011.59 43.4400   1
   4  -7  -3 1160.79 42.2200   1
  -4   7  -3 861.790 47.6400   1
   1  11   0 1680.94 54.3500   1
   1 -11   0 1286.21 44.1100   1
   1 -11   0 1674.16 52.0900   1
  -1 -11   0 1881.70 52.8400   1
  -1 -11   0 1242.54 45.7800   1
   1 -11   0 1554.37 54.7200   1
  -7  -2  -3 2350.30 90.7600   1
   7  -2  -3 2874.70 60.7000   1
   7   2   3 3023.66 72.5800   1
   7  -2   3 3174.98 77.8800   1
   7   2  -3 3349.94 68.3500   1
   7   2   3 3122.59 63.7500   1
  -7   2   3 3229.03 68.0600   1
  -7  -2   3 2555.51 65.7400   1
   0 -10  -2 3898.07 71.8000   1
   0 -10  -2 3797.53 77.6600   1
   0  10   2 3320.03 59.9400   1
   0  10   2 3340.05 80.5800   1
  -8   6   0 299.290 27.0400   1
   8  -6   0 428.970 30.1800   1
  -8   6   0 280.300 22.9600   1
   8   6   0 211.100 17.7500   1
   8   6   0 327.400 20.5200   1
   8  -6   0 345.720 25.1700   1
   1 -10  -2 716.010 33.6000   1
   1 -10  -2 674.100 30.2700   1
   1 -10   2 573.350 35.4200   1
   1 -10  -2 628.010 47.4300   1
   1 -10  -2 456.430 29.5000   1
  -1 -10   2 550.200 30.4200   1
   1 -10   2 489.450 26.7700   1
   1 -10   2 702.630 39.8100   1
  -1 -10  -2 512.300 27.9000   1
  -1 -10  -2 740.170 45.1900   1
  -1 -10   2 703.070 46.5600   1
   1  10  -2 632.800 28.1000   1
   1  10   2 723.150 31.2100   1
   1 -10  -2 588.950 34.4700   1
  -1 -10  -2 804.550 39.6100   1
  -1  10   2 477.550 43.7900   1
   1  10   2 458.430 37.6000   1
   5   0   4 14.8600 10.8800   1
  -5   0  -4 0.77000 13.3000   1
  -5   0  -4 -5.8700 15.1400   1
  -5   0   4 6.88000 15.7600   1
  -5   0  -4 8.28000 14.2000   1
   5   0   4 -9.7800 14.5800   1
   5   0  -4 13.2200 11.7000   1
  -5   0   4 -2.0400 12.3200   1
   6   5  -3 4410.59 97.9700   1
  -6  -5  -3 4894.90 106.100   1
   6   5   3 4418.19 95.3100   1
   6   5   3 3845.71 101.800   1
   4  -9  -2 14668.6 147.960   1
   4  -9   2 16149.6 155.410   1
   4  -9  -2 14996.6 159.660   1
   4  -9  -2 15000.9 132.270   1
   4   9  -2 13978.6 258.820   1
   4   9   2 15190.7 121.250   1
   4   9  -2 15089.7 130.110   1
  -9  -3  -1 14444.3 152.410   1
   9   3   1 14721.1 118.880   1
  -7   6   2 405.580 29.3200   1
   7  -6  -2 703.260 31.7300   1
   7  -6   2 533.880 33.4500   1
  -7  -6  -2 645.950 31.3100   1
   7   6  -2 548.370 34.2800   1
  -7   6   2 620.520 26.5600   1
  -7  -6  -2 448.530 35.5300   1
   7  -6  -2 876.070 40.3400   1
   7  -6   2 851.700 37.4400   1
   7   6  -2 645.660 27.6400   1
  -7  -6   2 688.990 28.2500   1
   5   1   4 8546.21 127.940   1
  -5  -1   4 8855.98 115.250   1
   5   1   4 8751.00 132.150   1
  -5  -1   4 8784.46 96.3200   1
  -5   1   4 7960.20 90.2200   1
  -5   1  -4 8647.91 161.430   1
  -5  -1  -4 8905.02 154.450   1
  -5  -1   4 8420.82 150.960   1
  -5   1   4 7623.04 120.430   1
   2  11   0 1728.52 54.8300   1
   2 -11   0 2007.70 57.0000   1
  -2 -11   0 2242.97 56.7300   1
   2 -11   0 2186.98 59.3600   1
  -2 -11   0 2130.98 64.6300   1
   2  11   0 2367.89 56.6300   1
   2 -11   0 1535.55 89.8500   1
   2 -11   0 2213.20 64.5600   1
   0 -11   1 14412.9 139.780   1
   0 -11  -1 15427.0 159.930   1
   0 -11   1 15837.2 196.290   1
   0 -11  -1 15567.0 170.680   1
   8  -4  -2 4456.43 83.0400   1
   8   4  -2 3993.63 63.7900   1
   8  -4   2 4501.02 78.0000   1
  -8  -4  -2 3896.39 81.0500   1
   0   6  -4 30098.2 233.670   1
   0  -6   4 29423.6 199.570   1
   9  -4   0 7009.55 145.170   1
   3  -8  -3 213.830 21.1200   1
   3  -8  -3 287.870 26.6600   1
   3  -8  -3 345.320 31.9700   1
  -3  -8  -3 267.900 25.6600   1
   3  -8   3 270.310 27.6400   1
   3   8  -3 243.440 19.7100   1
   3   8   3 207.010 17.2300   1
  -3  -8  -3 152.400 18.1200   1
  -3  -8   3 236.240 17.9100   1
  -3   8   3 267.330 25.0100   1
   3  -8  -3 253.130 22.6300   1
   3  -8  -3 276.210 20.6100   1
  -3   8   3 172.720 24.2300   1
  -3  -8  -3 178.370 22.9100   1
   3  -8   3 212.830 20.0600   1
  -7   3   3 136.790 18.9900   1
  -7   3  -3 72.2800 16.1400   1
  -7  -3  -3 91.5900 22.6800   1
   7  -3   3 166.470 20.1900   1
  -7  -3   3 118.160 14.7300   1
   7  -3  -3 138.520 17.3700   1
   7  -3  -3 99.6900 18.9200   1
  -7  -3   3 117.910 18.9200   1
  -7  -3  -3 79.2700 15.7700   1
   7   3   3 188.350 23.3600   1
  -7   3   3 145.410 20.2300   1
   7   3  -3 130.870 17.3000   1
   7   3   3 156.640 22.8200   1
  -4 -10   1 1832.38 50.8000   1
   4 -10   1 2072.99 62.7500   1
   4 -10  -1 2046.05 58.7200   1
   4 -10   1 1788.20 51.8300   1
   4  10   1 1763.77 47.3400   1
  -4  10   1 1460.38 45.4800   1
   4 -10  -1 1450.02 48.2900   1
   4 -10  -1 1861.17 53.5100   1
   4 -10   1 1645.47 46.6100   1
   4 -10  -1 1765.47 53.6900   1
   4 -10  -1 1838.33 56.2200   1
  -4 -10  -1 2074.11 57.8600   1
   1 -11  -1 187.590 24.4900   1
   1 -11   1 219.330 29.0600   1
  -1 -11   1 149.800 20.5700   1
   1 -11   1 153.680 20.4300   1
   1 -11  -1 148.280 16.4600   1
   1  11   1 108.920 23.7900   1
   1  11  -1 163.970 18.6200   1
  -1 -11   1 207.370 30.3700   1
   1  11   1 180.240 18.4600   1
   1 -11  -1 143.830 22.7000   1
   1 -11  -1 152.160 20.5500   1
   1 -11   1 155.140 21.1500   1
  -1 -11  -1 143.740 25.3500   1
  -1  11   1 107.040 18.8600   1
  -1 -11  -1 162.260 23.4500   1
   2 -10  -2 936.810 48.5600   1
   2  10  -2 621.320 32.9100   1
   2 -10   2 764.690 34.7400   1
   2 -10  -2 594.050 36.0500   1
   2 -10  -2 744.820 33.2100   1
   2 -10  -2 475.810 31.3500   1
   2  10   2 620.690 47.0300   1
  -2  10   2 519.520 37.8500   1
   2  10   2 557.800 23.7300   1
   2  10  -2 684.700 32.9400   1
  -2  10   2 455.930 45.5000   1
  -2 -10   2 643.410 38.7500   1
  -2 -10  -2 633.650 44.6200   1
   2 -10   2 712.400 39.3600   1
   2 -10  -2 763.750 35.6900   1
   2 -10  -2 736.180 39.6600   1
   2 -10   2 770.950 32.9300   1
  -2 -10  -2 831.550 41.3700   1
  -1  -6  -4 2261.17 85.9600   1
   1  -6   4 2644.96 77.6600   1
   1  -6   4 2459.41 70.0900   1
   1  -6  -4 2613.21 63.8200   1
   1  -6  -4 2674.33 65.4500   1
   1  -6  -4 2599.07 79.8700   1
  -1  -6  -4 2872.66 69.2300   1
   1  -6   4 2843.26 75.8000   1
   1  -6   4 2448.34 60.1400   1
  -1  -6  -4 2892.52 57.2700   1
  -1  -6   4 3002.98 73.4700   1
   1  -6   4 2145.25 57.9600   1
  -1  -6  -4 2867.97 71.7200   1
  -1  -6   4 2865.16 64.5800   1
   1   6   4 2784.63 77.8400   1
   3  -5  -4 39.7800 15.8000   1
   3  -5   4 35.0000 12.1300   1
   3   5   4 23.2700 14.3200   1
  -3  -5  -4 21.5000 18.8800   1
   3  -5  -4 41.0700 20.6900   1
   3   5  -4 36.8400 13.5100   1
   3  -5   4 17.4200 9.48000   1
  -3  -5  -4 14.1600 16.7600   1
  -3  -5   4 19.9200 8.72000   1
  -3  -5   4 32.8700 16.1200   1
   3  -5  -4 43.0400 16.2500   1
  -3   5   4 39.2000 12.2100   1
   3  -5   4 16.5000 18.3400   1
  -3   5  -4 26.4900 14.4500   1
  -3  -5   4 37.0400 11.7900   1
  -3  -5  -4 19.4800 11.9900   1
   3   5   4 18.4300 9.90000   1
   3  -5  -4 21.0000 9.70000   1
  -3   5  -4 22.0100 10.2800   1
  -3  -5  -4 52.0300 18.3100   1
  -3   5   4 53.8800 18.9000   1
  -4  -4  -4 967.960 56.7200   1
   4  -4   4 688.310 40.6200   1
   4  -4  -4 1216.30 41.4300   1
  -4  -4  -4 844.650 27.5700   1
  -4  -4   4 797.160 43.2100   1
  -4   4  -4 1006.71 40.2300   1
  -4  -4  -4 993.350 39.4400   1
   4  -4  -4 1061.77 38.7300   1
  -4   4   4 949.090 43.3200   1
   4   4   4 872.460 49.2600   1
   4   4   4 849.060 49.8000   1
  -4  -4   4 1025.69 36.5200   1
  -5   2   4 6846.08 91.9200   1
   5   2   4 6599.47 119.960   1
  -5   2   4 5829.46 115.610   1
  -5  -2   4 5886.25 121.680   1
  -5   2  -4 6979.29 108.530   1
  -5  -2  -4 6409.07 114.110   1
   8  -6  -1 737.970 33.4600   1
   8  -6   1 526.200 35.4400   1
  -8  -6  -1 654.120 35.8800   1
   8  -6   1 896.740 41.9700   1
   8   6  -1 843.860 32.8400   1
   8   6  -1 630.810 36.8900   1
  -8   6   1 559.050 39.1100   1
  -6   9   0 1574.17 69.8300   1
  -6  -9   0 2241.42 51.2500   1
   6  -9   0 1745.28 54.0800   1
   6  -9   0 1813.77 54.0400   1
   6   9   0 2241.65 46.4400   1
   6  -9   0 2260.11 58.0900   1
   7   8   0 1268.56 43.0100   1
  -7  -8   0 1758.63 53.1200   1
   7  -8   0 1898.52 53.5800   1
   0  -9   3 12778.8 151.650   1
   0  -9   3 12492.7 140.910   1
   2 -11   1 9622.70 131.300   1
   2 -11  -1 9789.22 122.320   1
  -2 -11   1 9232.05 139.720   1
   2  11  -1 8704.11 128.560   1
  -2 -11  -1 10383.3 145.720   1
   2  -6   4 290.100 26.1300   1
  -2  -6  -4 228.290 23.7900   1
   2  -6  -4 229.490 20.8400   1
  -2   6   4 111.750 28.2500   1
  -2  -6   4 280.610 33.9800   1
   2   6   4 155.910 20.8600   1
  -2  -6   4 169.930 14.8900   1
   2  -6  -4 117.670 15.6100   1
  -2  -6   4 253.660 20.9000   1
  -2   6   4 319.830 28.8900   1
   2   6   4 214.530 20.9100   1
   2  -6   4 202.500 21.8300   1
  -2  -6  -4 241.270 23.0900   1
   2  -6  -4 302.510 24.4100   1
  -2  -6  -4 237.040 20.9300   1
   2  -6  -4 266.720 28.0700   1
   2  -6   4 198.110 18.4500   1
   2  -6  -4 284.300 27.0400   1
   9  -4   1 1013.55 36.0500   1
   9   4  -1 925.060 33.4700   1
  -9   4   1 618.890 37.7700   1
  -9  -4  -1 727.230 34.7200   1
   3 -11   0 10489.5 201.900   1
  -1  -9  -3 251.160 18.5700   1
   1  -9  -3 375.700 31.7400   1
  -1   9   3 393.220 27.0200   1
   1  -9  -3 215.520 23.8100   1
   1   9   3 262.100 17.1800   1
   1   9   3 461.780 38.3200   1
   1  -9  -3 423.240 24.4300   1
  -1  -9  -3 379.050 22.6500   1
   1  -9  -3 532.660 30.0300   1
  -1  -9  -3 511.460 35.0000   1
   1  -9  -3 398.330 28.2100   1
  -1  -9  -3 233.260 24.0700   1
   1  -9  -3 309.840 26.7500   1
  -1  -9   3 213.640 35.6400   1
  -1  -9   3 371.630 25.7600   1
  -1  -9   3 403.710 36.6900   1
   1  -9   3 362.770 33.1300   1
   1  -9   3 352.280 23.5400   1
   1  -9   3 241.350 24.3600   1
   1  -9   3 338.700 34.5100   1
   9   0  -2 21.1800 18.1000   1
   9   0   2 20.9500 16.9400   1
  -9   0  -2 0.39000 7.65000   1
  -9   0  -2 0.58000 11.9400   1
   9   0   2 -13.290 16.8000   1
   9   0  -2 7.72000 15.9500   1
  -9   0   2 3.72000 14.4200   1
  -5   3  -4 1690.82 74.2200   1
  -5  -3  -4 2447.53 72.0600   1
  -5  -3   4 1961.32 60.5200   1
   5   3   4 1851.06 73.3400   1
  -5  -3  -4 1937.39 58.6900   1
   5   3   4 2050.55 66.2700   1
  -5   3   4 1864.00 61.5700   1
  -5  -3   4 2064.59 50.7300   1
   5   3   4 2093.05 79.8400   1
  -5   3   4 2409.24 53.6600   1
  -5   3   4 1894.04 62.6300   1
   5  10   0 1943.65 47.1600   1
   5 -10   0 2160.15 56.7800   1
  -5  10   0 1471.24 62.9900   1
   5 -10   0 2000.40 52.9000   1
   5 -10   0 1864.64 55.9500   1
   5  10   0 1751.59 62.0100   1
   5  -7  -3 1435.49 44.1600   1
   5  -7  -3 1295.92 43.6000   1
  -5  -7  -3 1427.55 40.2700   1
  -5   7   3 1014.53 48.0000   1
  -5  -7  -3 1389.97 55.6200   1
   5  -7   3 986.700 51.0700   1
  -5  -7  -3 1051.75 52.5800   1
   5  -7   3 1569.53 49.2700   1
  -5  -7  -3 1010.40 48.8500   1
  -5   7   3 1315.52 43.5700   1
   5   7  -3 1099.51 52.7300   1
   5   7   3 1146.44 51.4100   1
  -7  -4   3 6685.28 79.7400   1
   3  10   2 10797.3 209.150   1
   3 -10  -2 12493.9 180.410   1
   3 -10  -2 11776.0 139.900   1
  -9  -1   2 2235.84 46.1300   1
   9   1   2 2340.35 55.1400   1
  -8  -5   2 3093.46 62.2000   1
   8   5  -2 3242.14 59.9000   1
   8  -5   2 3165.61 64.7000   1
  -8  -5  -2 3764.63 85.2200   1
  -8   5   2 3122.23 59.6400   1
   8  -5  -2 3278.70 66.6900   1
   6   9  -1 12484.2 113.320   1
  -6   8  -2 32.2400 11.4600   1
  -6  -8  -2 107.890 24.2400   1
  -6   8   2 72.7200 14.7700   1
   6   8   2 97.6400 19.3800   1
   6   8  -2 72.4900 16.3800   1
  -6  -8  -2 117.340 21.5700   1
  -6   8   2 53.3600 14.5700   1
   6  -8   2 128.330 22.9100   1
   6  -8  -2 79.2400 15.8100   1
  -6  -8  -2 60.6900 12.8100   1
   6  -8  -2 124.930 22.6600   1
  -6  -8   2 76.5200 13.2800   1
  -6  -8  -2 83.7600 13.8400   1
   6  -8  -2 86.7100 19.1100   1
   6  -8   2 116.480 19.3600   1
   6   8  -2 65.9200 14.8400   1
   6  -8  -2 87.7600 16.8200   1
  -6   8   2 53.7100 13.9900   1
   9   5   0 1637.39 44.3900   1
   9  -5   0 1561.79 48.0600   1
   9  -5   0 1489.41 58.4800   1
  -9   5   0 1211.51 66.0500   1
   6   6  -3 876.420 44.5400   1
   6  -6   3 857.090 59.2600   1
  -6   6   3 1081.64 36.3500   1
   6  -6  -3 1458.39 58.6500   1
   6  -6  -3 1278.53 43.2100   1
   6  -6   3 1168.40 40.1200   1
  -6  -6   3 1132.44 33.2800   1
   6  -6  -3 1097.42 35.9000   1
  -6  -6  -3 1310.75 41.3400   1
  -6   6   3 809.280 41.7600   1
   6   6  -3 1213.29 37.0000   1
  -6  -6  -3 919.020 43.5800   1
   7  -8  -1 18308.5 155.770   1
   4   8  -3 3485.12 118.130   1
  -4  -8  -3 3815.57 84.7300   1
   4   8   3 3873.36 63.2400   1
   4   8  -3 4028.04 69.8600   1
   4  -8  -3 3730.23 78.4300   1
  -4   8   3 3911.80 84.9400   1
  -4  -8   3 4365.25 87.7400   1
  -4   8  -3 3408.15 108.260   1
   2  -9  -3 10091.9 168.860   1
  -2  -9  -3 9877.93 205.140   1
  -2  -9   3 10229.9 126.680   1
   2  -9   3 10331.6 115.700   1
  -4   5  -4 6323.46 142.320   1
   4  -5   4 5577.31 108.120   1
   4  -5   4 6216.72 104.660   1
  -4  -5   4 5463.92 101.860   1
   5  -9   2 406.190 29.7600   1
   5  -9  -2 541.150 28.3000   1
   5  -9   2 557.120 29.6800   1
  -5   9   2 400.530 35.8800   1
   5   9  -2 563.050 25.3900   1
   5   9   2 503.000 22.3700   1
   5  -9  -2 614.760 32.4200   1
   5  -9   2 605.750 31.6800   1
  -5   9   2 354.660 26.5800   1
   5  -9  -2 620.250 31.8800   1
   5  -9  -2 630.770 34.7900   1
  -5  -9  -2 575.420 33.9800   1
  -5   9   2 747.250 33.4900   1
   5   9  -2 380.320 39.6000   1
   9   2   2 1053.83 39.2400   1
  -9  -2   2 892.620 32.7900   1
  -9   2   2 977.140 37.7600   1
   9  -2  -2 775.420 32.5000   1
  -9  -2  -2 736.390 36.7300   1
   9  -2  -2 916.120 36.2300   1
   9   2   2 1030.23 37.3900   1
   9  -2   2 1070.03 38.2200   1
   9   2  -2 869.530 32.5700   1
 -10   1   0 36.9800 12.4600   1
 -10  -1   0 35.4500 11.7100   1
  10  -1   0 78.0200 19.8100   1
  10  -1   0 83.0000 19.8100   1
  10   1   0 64.3800 19.7900   1
   3 -11  -1 4332.49 79.3700   1
   3 -11   1 4689.35 79.9700   1
  -3  11   1 4204.22 85.2300   1
   3 -11  -1 4527.06 79.3700   1
   3  11  -1 4082.32 67.0000   1
  -3 -11  -1 3726.00 100.870   1
  -7  -7  -2 1839.35 61.6000   1
   7  -7   2 2633.52 62.2700   1
   7   7   2 2382.63 50.1400   1
  -7   7   2 2091.11 43.0500   1
   7  -7  -2 2444.08 65.9500   1
  -7  -7  -2 2350.22 60.5100   1
   8   0   3 1996.12 55.8600   1
  -8   0   3 2032.40 46.8900   1
   8   0  -3 2341.49 55.6800   1
  -3  -6  -4 6989.91 106.580   1
  -3   6   4 5541.80 150.740   1
  -3  -6   4 6231.04 96.9300   1
  -3  -6  -4 7255.15 138.260   1
  -3  -6   4 6497.01 122.160   1
   3  -6   4 5718.27 113.230   1
   0  -7  -4 -11.440 18.3700   1
   0  -7  -4 -0.4200 16.4900   1
   0  -7  -4 10.1800 10.0600   1
   0  -7  -4 16.3600 21.4700   1
   0  -7   4 4.16000 16.7800   1
   0  -7   4 21.1000 26.7700   1
   0  -7   4 -0.1700 10.8600   1
   5  10   1 11510.3 115.990   1
  -5 -10   1 11828.5 129.930   1
   5 -10   1 11921.0 115.230   1
   5  10  -1 12539.7 113.320   1
  -8   1   3 37.9700 16.6600   1
  -8  -1   3 20.2600 16.9200   1
   8   1   3 7.47000 15.3300   1
   8   1   3 33.5200 15.9600   1
   8  -1  -3 22.2000 16.0800   1
   8   1  -3 33.4600 14.0000   1
   8  -1   3 29.0100 18.8900   1
   8   1  -3 74.1900 19.9600   1
  -8  -1  -3 23.5400 10.2900   1
   8  -1  -3 45.2200 19.4900   1
  -6   0   4 16580.2 181.000   1
   6   0  -4 16114.4 152.120   1
  -6   0  -4 14862.5 175.970   1
  -6   0   4 14215.7 172.410   1
  -1  -7  -4 4133.83 93.5300   1
   1  -7  -4 4255.21 80.6300   1
   1  -7   4 3893.36 82.8200   1
  -1  -7   4 3441.95 79.6700   1
  -1  -7  -4 3998.13 82.7900   1
   1  -7  -4 3847.01 89.8400   1
   1  -7  -4 4340.15 91.5700   1
   1  -7   4 3386.73 134.970   1
   1  -7   4 3734.02 81.2600   1
  -1   7   4 3804.77 87.7000   1
   1  -7   4 4247.26 87.8200   1
  -5  -4   4 2164.90 58.2400   1
   5  -4  -4 1365.60 58.8300   1
   5   4   4 2191.89 91.3200   1
  -5  -4   4 1972.51 53.4400   1
  -5  -4  -4 1910.77 71.4300   1
  -5   4   4 1697.20 44.9000   1
  -5  -4  -4 2051.23 63.1800   1
  -5   4   4 1511.27 53.7400   1
  -5   4  -4 1662.64 57.4200   1
   5  -4  -4 1775.94 47.8800   1
  -5  -4   4 1710.63 58.3700   1
  -5  -4   4 1502.19 47.3500   1
   5   4   4 1478.00 64.8700   1
   5   4  -4 1962.99 47.8100   1
  -5  -4  -4 1959.73 47.9400   1
   6   1   4 1380.08 48.1000   1
  -6   1   4 1101.65 42.8900   1
   6   1   4 813.720 49.5100   1
  -6  -1  -4 775.970 51.2500   1
   6  -1  -4 1079.44 36.7700   1
  -6   1   4 862.490 42.6800   1
  -6  -1   4 849.750 43.0700   1
  -6  -1  -4 1043.72 47.6800   1
  -6   1  -4 926.700 51.4600   1
  -6   1   4 1240.87 38.2500   1
  -6  -1   4 1336.21 41.4300   1
  -6  -1   4 888.840 38.0800   1
   6  -1  -4 1178.62 42.0300   1
   6   1  -4 1130.01 40.1200   1
  -6  -1  -4 807.520 54.6700   1
   6  -1   4 1372.69 44.5200   1
 -10  -2   0 3459.02 102.240   1
   9  -5   1 4734.22 140.160   1
   9   5   1 5386.45 81.3500   1
   9  -5  -1 5460.31 85.4600   1
   0   0  -5 11.3300 15.6700   1
   0   0   5 9.01000 15.1200   1
   0   0   5 3.45000 5.97000   1
   0   0   5 11.3400 29.7000   1
   0   0  -5 -4.3400 16.5900   1
   0   0  -5 11.2700 16.2100   1
   0   0  -5 7.95000 11.4700   1
  -8   7   1 6172.01 78.2600   1
   8   7   1 6332.18 79.0800   1
   8  -7   1 6060.80 118.000   1
  -4 -11   0 4174.83 76.9200   1
   4 -11   0 4673.96 86.4200   1
   4 -11   0 4768.54 91.2500   1
   0  -1  -5 617.290 34.5800   1
   0   1  -5 690.110 33.4000   1
   0  -1  -5 717.970 33.8300   1
   0  -1  -5 859.430 49.3400   1
   0   1   5 431.930 37.3000   1
   0  -1   5 712.760 39.4900   1
   0  -1  -5 585.930 34.4700   1
   0   1   5 868.050 48.4700   1
   0  -1   5 898.730 49.4100   1
   0   1  -5 721.960 37.4000   1
   0   1  -5 481.660 39.5800   1
  -9  -3  -2 1849.90 60.7800   1
  -9   3   2 2157.56 54.6300   1
  -9  -3   2 1786.41 45.8600   1
   9  -3  -2 2058.49 60.7500   1
   9   3   2 1899.00 49.3800   1
   9   3  -2 1863.09 47.4100   1
   9  -3   2 1793.80 45.8600   1
   8  -2   3 6161.15 100.800   1
   8   2  -3 6220.35 88.6600   1
   8   2   3 5501.94 97.1300   1
  -8   2   3 5474.85 78.4800   1
  -8  -2   3 5216.41 72.2900   1
   1   0   5 0.19000 12.5100   1
  -1   0  -5 -15.220 16.3300   1
   1   0  -5 2.76000 13.6000   1
   1   0  -5 7.33000 12.2000   1
  -1   0  -5 -8.8900 19.6600   1
  -1   0  -5 -8.4000 18.6500   1
   1   0   5 23.3400 24.9600   1
  -1   0   5 1.59000 6.96000   1
   1   0   5 4.11000 6.57000   1
  -1   0   5 -0.8200 16.6000   1
  -1   0   5 3.31000 19.4700   1
   1   0   5 4.44000 13.4900   1
   7  -5  -3 22.8500 18.9000   1
   7   5   3 16.3100 20.2800   1
  -7  -5   3 29.4200 13.5900   1
  -7   5   3 21.9400 17.2800   1
   7  -5  -3 19.5800 18.0100   1
   7  -5   3 13.7200 22.1300   1
   7   5  -3 27.7900 16.0700   1
  -7  -5  -3 25.7900 14.5500   1
  -7   5   3 22.5000 12.8100   1
  -7  -5  -3 8.17000 10.6000   1
   0 -11  -2 7.35000 12.8200   1
   0  11   2 -2.0400 16.3600   1
   0 -11   2 12.9700 24.1000   1
   0 -11  -2 -1.5300 16.1500   1
   0 -11   2 -1.1800 16.5400   1
   0 -11  -2 2.21000 21.2200   1
   0 -11   2 -16.970 19.2000   1
   0 -12   0 206.410 29.6900   1
   0 -12   0 215.070 24.2700   1
   0 -12   0 280.630 24.3100   1
   0 -12   0 230.090 24.4900   1
  10   1   1 297.490 30.2000   1
  10  -1   1 271.560 30.9500   1
 -10  -1  -1 116.560 15.5600   1
  10   1   1 224.310 22.9700   1
  10  -1  -1 211.430 23.0300   1
 -10   1  -1 107.900 22.9100   1
  10   1  -1 197.130 21.4800   1
  10  -1   1 240.510 24.2900   1
  -6   2  -4 6738.22 138.930   1
   6   2   4 6126.31 110.930   1
  -6   2   4 6986.41 133.000   1
   6  -2  -4 6514.09 123.220   1
  -6  -2  -4 6944.26 143.480   1
   6   2   4 5604.68 142.570   1
  -6  -2   4 6886.46 101.490   1
  -1   1  -5 4603.04 93.0200   1
   1   1   5 4342.30 94.5800   1
  -1  -1   5 3759.08 88.6500   1
  -1  -1   5 4758.34 90.5600   1
  -1   1   5 3646.23 117.100   1
  -1   1  -5 3579.21 91.5200   1
   1  -1  -5 4707.22 91.8200   1
  -1  -1  -5 4449.82 98.9700   1
  -3  -9  -3 5126.40 178.470   1
   3  -9  -3 6475.65 118.390   1
   3  -9  -3 6940.75 134.100   1
   3  -9  -3 6391.64 125.760   1
  -3   9   3 6402.07 92.8200   1
  -3  -9   3 5738.95 107.160   1
   4 -10   2 1551.54 46.6100   1
   4  10  -2 1425.75 38.6800   1
  -4  10   2 1616.47 75.7300   1
   4 -10  -2 1166.40 56.6600   1
   4 -10  -2 1744.98 49.6300   1
   4 -10  -2 1723.50 49.6000   1
   4 -10  -2 1631.57 50.4900   1
  -4 -10  -2 1840.96 61.1200   1
   4 -10   2 1578.52 54.0900   1
   4 -10  -2 1714.75 51.6000   1
  -4  10   2 1512.46 83.8800   1
   1 -11  -2 4867.22 88.9100   1
  -1  11   2 3684.27 115.780   1
   1  11   2 4511.37 99.0100   1
  -1 -11  -2 4827.23 91.9300   1
   1  11   2 4611.37 78.3400   1
  -1 -11  -2 4506.92 74.9300   1
   1 -11  -2 4546.29 102.020   1
  -1 -12   0 288.260 23.9400   1
   1  12   0 333.450 21.3200   1
   1 -12   0 418.100 33.1300   1
  -1 -12   0 261.600 25.2600   1
   1 -12   0 292.350 24.1900   1
   1 -12   0 330.850 28.4700   1
  -2  -7   4 10115.5 133.900   1
  -2  -7  -4 9132.20 138.140   1
  -2  -7   4 10367.4 145.190   1
   0   2  -5 14.6600 17.2300   1
   0  -2   5 -3.4400 18.4100   1
   0  -2  -5 -3.2600 17.8300   1
   0   2   5 6.12000 9.84000   1
   0  -2   5 3.92000 9.30000   1
   0   2   5 31.3200 27.3700   1
   0  -2   5 16.6400 28.8500   1
   0  -2  -5 -0.7400 11.9900   1
   0  -2  -5 -5.1500 14.0700   1
   0  -2  -5 -3.5500 15.0100   1
 -10   3   0 1144.24 53.2900   1
  10  -3   0 1466.70 46.2500   1
  10   3   0 1628.44 46.7100   1
  10  -3   0 1237.93 59.6400   1
 -10  -3   0 1048.14 44.9400   1
   8   6  -2 483.690 25.2600   1
   8  -6   2 534.130 32.8900   1
   8  -6  -2 587.280 33.3700   1
  -8  -6   2 559.370 29.1300   1
   8  -6   2 266.440 28.3800   1
  -8  -6  -2 496.150 32.0900   1
  -8   6   2 374.670 22.7200   1
   8  -6  -2 472.900 27.6800   1
   8   6   2 405.730 25.1100   1
  10   2   1 9710.85 110.330   1
  -1  -2  -5 2899.48 75.8300   1
   1  -2  -5 2891.37 79.4400   1
  -1   2   5 2722.32 62.4100   1
   1  -2   5 2170.73 63.4900   1
  -1  -2   5 2611.05 70.3100   1
  -1  -2  -5 2538.03 62.8800   1
  -1   2  -5 2636.60 60.6200   1
   1  -2   5 2700.13 64.9600   1
   1  -2  -5 2501.61 71.2200   1
  -1   2   5 2274.90 108.120   1
  -1   2  -5 2461.06 72.2600   1
   1  -2  -5 2748.40 58.5900   1
   1  -2   5 2667.97 92.0300   1
  -1   2  -5 2290.84 62.2300   1
  -2   0  -5 6744.89 91.6800   1
  -2   0  -5 6301.72 97.7200   1
  -2   0  -5 6442.45 122.240   1
  -2   0   5 6865.23 99.8400   1
  -2   0   5 5912.13 125.550   1
   2   0   5 5348.03 119.910   1
  -2   0  -5 6829.02 123.860   1
  -8  -3  -3 9486.50 163.550   1
   8  -3  -3 9568.12 131.030   1
  -7  -9   0 1832.89 45.4800   1
   7   9   0 1612.79 57.2100   1
   7  -9   0 1746.36 48.9500   1
  -7   9   0 1586.87 75.3100   1
  -2  -1   5 3324.81 66.1000   1
  -2   1   5 2738.60 92.5200   1
  -2   1  -5 3827.33 87.0500   1
   2  -1  -5 3126.96 74.9300   1
  -2  -1  -5 3221.71 81.5200   1
   2  -1  -5 3280.92 66.6900   1
  -2  -1  -5 3630.57 70.5700   1
   2   1   5 3379.81 71.6500   1
  -2  -1  -5 3052.39 79.9900   1
  -2   1  -5 2743.42 78.7400   1
   2   1   5 3778.64 87.6400   1
  -2   1   5 3480.87 73.5400   1
  -2  -1   5 3555.84 88.8400   1
   4 -11  -1 2106.42 52.5400   1
   4 -11  -1 1545.99 61.1800   1
  -4  11   1 2049.18 70.7700   1
   4  11  -1 1887.96 49.5500   1
   4 -11   1 1884.27 51.4100   1
   4 -11  -1 2026.73 52.6400   1
   4 -11  -1 1797.22 46.8000   1
  -4 -11  -1 2101.87 52.6700   1
   4 -11   1 2031.00 57.3800   1
  -4  -6  -4 230.710 24.6500   1
   4  -6   4 164.430 17.2000   1
  -4  -6  -4 269.590 25.4900   1
  -4   6  -4 143.970 19.9200   1
   4  -6  -4 254.480 25.9800   1
  -4  -6  -4 118.200 20.2000   1
  -4   6   4 123.690 15.5400   1
   4  -6   4 240.980 25.0900   1
   4   6  -4 279.370 23.7800   1
   4   6   4 184.140 18.8500   1
   4  -6  -4 273.300 25.5400   1
  -4  -6  -4 255.280 28.4600   1
  -4   6  -4 179.950 23.1300   1
   4  -6   4 178.650 17.8500   1
   4  -6  -4 253.820 22.0200   1
  -4   6   4 214.670 24.0600   1
  -4  -6   4 186.610 18.9300   1
   2  11   2 2621.57 59.2700   1
   2  11  -2 2596.05 61.4300   1
  -2 -11  -2 2005.69 80.0800   1
   2 -11  -2 2056.19 54.9500   1
  -2 -11  -2 2347.64 69.1800   1
  -2 -11   2 2375.79 59.7200   1
   2 -11  -2 2460.68 60.2900   1
   2 -11   2 2452.39 56.7600   1
   2 -11  -2 2578.13 58.5400   1
   2  11   2 2291.35 106.260   1
  -6  -3   4 2630.50 56.7100   1
  -6  -3  -4 2141.25 71.5700   1
  -6  -3  -4 1765.45 80.1500   1
   6  -3   4 2482.85 59.7500   1
   6   3  -4 2283.92 48.4600   1
  -6   3   4 1936.69 58.2100   1
  -6  -3   4 1906.09 61.2100   1
  -6  -3   4 2434.98 67.1000   1
  -6   3  -4 2092.97 57.7300   1
  -6   3   4 2355.49 52.1600   1
   6 -10   0 1169.87 34.4200   1
   6 -10   0 1145.40 51.4000   1
   6 -10   0 1375.11 49.3400   1
   6  10   0 1298.37 49.9800   1
   6  10   0 1304.72 38.5100   1
  -6  10   0 1035.16 60.1000   1
   5  -8   3 9164.10 128.620   1
   5  -8  -3 8953.91 115.740   1
   5  -8  -3 9338.01 153.030   1
  -5  -8  -3 9347.76 114.130   1
  -5  -8  -3 10347.2 152.240   1
   5  -8   3 8938.89 103.750   1
   5   8   3 8845.71 125.720   1
   5  -8  -3 10126.2 120.940   1
   5  -8  -3 9629.29 128.800   1
   6  -7   3 13220.2 199.380   1
  -6  -7   3 14694.1 126.290   1
   6   7   3 13865.8 119.140   1
   0 -12   1 2.21000 22.1200   1
   0 -12  -1 -1.1500 19.0400   1
   0 -12   1 12.7200 21.5300   1
   0  12   1 3.36000 10.6500   1
   0 -12  -1 27.3100 23.1500   1
   0 -12   1 -3.6100 15.2000   1
  -9  -4   2 7489.70 93.6700   1
   9   4  -2 7143.97 89.3700   1
   9  -4   2 7198.16 96.5300   1
   9   4   2 7635.62 113.210   1
   9  -4  -2 8321.09 112.160   1
  -5  -5   4 1464.40 45.9700   1
   5  -5  -4 1342.46 59.4400   1
  -5   5  -4 1436.38 64.9500   1
  -5  -5  -4 1952.66 49.8900   1
   5  -5  -4 1602.68 46.6400   1
  -5  -5  -4 1488.22 58.5800   1
  -5  -5   4 1827.18 47.3900   1
  -5   5   4 1598.40 65.2500   1
  -5  -5  -4 1262.86 58.9400   1
   5  -5   4 1958.46 51.9600   1
   5   5  -4 2001.50 48.3400   1
   5   5   4 1446.43 54.0700   1
   1  12  -1 5916.61 89.7300   1
   1  12   1 6355.63 96.1700   1
   1 -12  -1 5510.63 99.9900   1
   1 -12  -1 5742.86 90.6500   1
   1 -12  -1 6437.94 109.600   1
   1 -12   1 5945.04 93.6300   1
  -1 -12  -1 6650.60 116.960   1
   1 -12  -1 6239.89 101.490   1
   1 -12   1 6685.49 110.270   1
  -1 -12  -1 6896.51 122.550   1
   0  -3  -5 154.880 21.8200   1
   0  -3   5 64.2200 10.9900   1
   0   3   5 145.420 24.5500   1
   0  -3   5 186.900 31.1500   1
   0  -3  -5 140.510 21.5700   1
   0  -3  -5 121.700 19.1100   1
   0  -3  -5 142.100 21.2500   1
   0  -3   5 126.880 20.5600   1
   0 -10   3 -2.4300 9.90000   1
   0 -10  -3 6.42000 12.0200   1
   0 -10   3 1.41000 26.1200   1
   0 -10  -3 8.55000 11.3800   1
   0  10   3 10.2400 16.6000   1
   0 -10  -3 -3.4300 20.6200   1
   0 -10   3 -0.4900 10.7800   1
   0 -10  -3 5.95000 21.4700   1
   0 -10   3 4.64000 12.5000   1
   0 -10  -3 -3.1400 20.0100   1
   2  -2  -5 4756.06 93.0600   1
   2  -2   5 4765.04 86.8500   1
  -2   2  -5 4428.11 76.2800   1
   2   2   5 4553.97 103.350   1
  -2  -2   5 4466.03 112.320   1
  -2   2   5 3376.37 147.340   1
   8   8   0 1298.27 50.6300   1
  -8  -8   0 1530.52 45.7100   1
   8  -8   0 1443.30 44.2000   1
   8   8   0 1614.18 44.6000   1
   8  -8   0 1504.02 46.8800   1
 -10  -3  -1 162.440 21.7500   1
 -10   3  -1 89.8000 16.6300   1
  10  -3  -1 181.290 20.2300   1
 -10  -3  -1 114.110 15.1200   1
  10  -3  -1 227.250 27.8900   1
  10  -3   1 210.970 26.4100   1
  10   3   1 156.690 19.0200   1
 -10   3   1 121.390 16.5500   1
  10   3  -1 207.680 24.6700   1
  -3   7  -4 34.0900 13.4800   1
  -3  -7  -4 34.8700 22.1100   1
  -3  -7  -4 70.2800 21.3300   1
   3  -7  -4 30.0300 7.80000   1
   3   7   4 89.1000 19.2900   1
  -3  -7  -4 47.3700 13.1000   1
   3  -7  -4 81.9300 23.1000   1
   3   7  -4 71.5600 15.5100   1
  -3  -7  -4 91.2800 23.0800   1
   3  -7   4 55.0200 12.7900   1
   3  -7  -4 90.0500 23.3200   1
   3  -7  -4 83.5200 21.6400   1
  -3  -7   4 99.0300 17.4400   1
  -3  -7   4 93.2500 31.8700   1
  -3   7   4 34.1700 13.7100   1
   3  -7   4 121.900 26.3800   1
  -3  -7  -4 59.1300 18.5000   1
   3  -7  -4 68.8900 24.3300   1
   3  -7   4 79.5500 20.7800   1
  -3   7   4 73.1400 22.8200   1
  -1   3  -5 1005.95 34.3200   1
   1  -3  -5 1365.52 51.8400   1
  -1  -3  -5 1373.17 54.8800   1
   1   3   5 1622.49 55.8700   1
  -1   3   5 1356.41 43.2200   1
  -1  -3   5 941.720 46.7600   1
   1  -3   5 999.980 40.7800   1
   1  -3   5 1404.16 53.7900   1
  -1  -3   5 1310.64 45.6500   1
   1  -3  -5 1278.55 49.4700   1
   1  -3   5 1105.95 54.6700   1
  -1  -3  -5 1303.66 43.9000   1
  -1  -3  -5 1129.31 45.9900   1
   1  -3  -5 1258.77 48.5200   1
  -1 -10  -3 3950.54 75.4100   1
   1 -10   3 4079.63 78.9800   1
  -1 -10   3 3924.65 88.8500   1
   1 -10  -3 4243.28 85.4600   1
   1 -10   3 3667.26 106.960   1
  -1  10   3 4148.28 93.9500   1
   1  10   3 3952.78 74.0300   1
  -1 -10   3 3444.64 111.330   1
   1  10   3 3959.25 95.9600   1
   1 -10  -3 3425.17 80.1000   1
  -1 -10  -3 3475.53 104.180   1
  -9  -6  -1 7264.61 108.310   1
   9  -6  -1 6595.78 110.880   1
   9  -6   1 5768.57 122.710   1
   6   9   2 2134.75 48.6000   1
  -6   9   2 2370.08 69.8200   1
   6  -9  -2 2061.53 57.9900   1
  -6  -9  -2 2196.18 52.5400   1
   6  -9   2 2057.71 55.5400   1
   6  -9  -2 2219.45 58.9200   1
   6  -9  -2 2246.91 58.2300   1
  -6  -9  -2 2269.31 61.5600   1
  -6  -9  -2 2052.42 62.4200   1
  10  -4   0 1800.64 58.6200   1
 -10   4   0 1345.54 52.3600   1
   7  -9  -1 1424.41 44.2000   1
   7  -9  -1 1306.50 46.8200   1
   7  -9   1 1456.22 45.9400   1
  -7   9   1 1020.37 35.5200   1
   7   9  -1 1077.30 42.4300   1
  -7   9  -1 866.220 57.1800   1
  -7  -9  -1 1374.19 45.5300   1
   7  -9   1 1422.75 52.2300   1
  -7  -9   1 971.690 34.0100   1
  -7  -9  -1 1148.73 41.9000   1
   7  -9  -1 1414.36 50.5800   1
   7   8  -2 1125.89 38.7600   1
   7  -8  -2 1141.20 42.6100   1
   7   8   2 1084.27 34.7200   1
  -7  -8   2 818.920 41.2900   1
  -7   8   2 1226.75 39.6200   1
  -7  -8  -2 945.860 36.4700   1
   7  -8  -2 1126.84 41.6700   1
   7  -8   2 839.150 50.8000   1
   7  -8  -2 1120.41 41.8700   1
   7  -8   2 1217.29 45.3900   1
   7   8  -2 813.580 42.0700   1
  -7  -8  -2 1064.80 36.0700   1
   4  -9  -3 368.070 31.1300   1
   4  -9   3 120.510 16.9700   1
   4   9  -3 99.7400 31.5500   1
  -4   9   3 195.310 19.1400   1
   4   9   3 218.430 17.6700   1
   4   9  -3 293.340 21.0700   1
   4  -9  -3 189.130 21.0400   1
  -4   9   3 175.970 22.5700   1
   4  -9   3 249.590 25.8200   1
   4  -9  -3 253.740 22.2300   1
  -4  -9  -3 204.220 28.4200   1
  -4  -9   3 283.230 20.1200   1
   4  -9   3 347.890 23.0400   1
  -4  -9  -3 310.610 25.5700   1
   4  -9  -3 335.880 26.4400   1
  -4   9  -3 170.370 22.2600   1
   4  -9  -3 305.280 24.7400   1
  -3   0  -5 3.95000 15.9800   1
  -3   0  -5 -6.3900 13.5400   1
   3   0  -5 7.18000 17.5600   1
  -3   0  -5 3.84000 17.6700   1
   3   0   5 3.60000 10.9900   1
  -3   0   5 -20.440 26.3200   1
   3   0   5 1.09000 11.4400   1
  -3   0  -5 3.88000 11.9100   1
  -3   0   5 -5.2900 11.8800   1
  -7  -6  -3 10099.5 149.130   1
   7   6  -3 10750.2 112.480   1
   0  -8  -4 1274.08 47.8000   1
   0  -8  -4 996.620 44.5300   1
   0  -8   4 1091.33 43.1000   1
   0   8   4 1067.25 45.3300   1
   0  -8  -4 1097.87 54.8200   1
  -8  -4  -3 789.550 38.1900   1
   8   4  -3 1197.97 40.2900   1
   8  -4  -3 1062.29 36.5200   1
   8  -4  -3 1057.93 38.9800   1
  -8   4   3 1082.30 35.9300   1
   8   4   3 1026.34 34.1000   1
   8  -4   3 1029.61 37.6100   1
  -2 -12  -1 2000.34 69.9700   1
   2 -12  -1 2063.46 57.9500   1
  -2 -12   1 2072.53 71.6700   1
   2 -12   1 2067.94 60.4200   1
   2 -12   1 1990.12 60.2700   1
   2 -12  -1 2009.89 55.7800   1
   2 -12  -1 1941.65 54.2400   1
   2 -12   1 1495.12 72.9000   1
   2 -12  -1 1360.76 69.1100   1
   2  12   1 1219.48 64.9200   1
   2  12   1 1780.76 49.8000   1
   2  12  -1 2076.99 59.3100   1
   6 -10   1 95.1100 14.2200   1
  -6  10   1 152.720 17.6800   1
   6  10   1 162.780 20.1300   1
  -6 -10  -1 176.750 27.2500   1
   6 -10  -1 155.100 21.2200   1
   6 -10  -1 168.520 19.0100   1
   6 -10   1 171.780 24.4700   1
   6  10  -1 130.940 15.6500   1
   6  10  -1 179.290 20.2800   1
   6 -10   1 86.6000 16.2800   1
   6 -10  -1 180.800 19.8300   1
   6 -10   1 167.500 24.2600   1
  -6  10   1 69.0700 14.7600   1
   6 -10  -1 141.010 21.7500   1
  -6  10  -1 82.0200 16.1600   1
   5 -11   0 2532.60 60.6800   1
   5 -11   0 2486.77 58.5800   1
   5 -11   0 2482.33 71.0300   1
   3  -1   5 7290.78 111.090   1
   3   1   5 7598.54 118.810   1
  -3  -1  -5 7523.78 122.140   1
   3  -1   5 7286.41 138.690   1
  -3  -1  -5 7443.43 137.650   1
  -3  -1  -5 8491.54 160.910   1
   3 -11   2 491.990 32.0700   1
  -3  11   2 343.220 40.2400   1
   3 -11  -2 310.370 29.6700   1
  -3  11   2 391.610 35.6400   1
   3 -11   2 282.520 30.1600   1
   3  11   2 463.620 47.4700   1
   3 -11   2 398.500 26.1200   1
   3 -11  -2 530.800 29.7900   1
   3 -11  -2 346.730 33.3200   1
   3 -11  -2 584.870 38.9600   1
   3 -11  -2 467.730 32.9500   1
   3  11   2 445.800 22.6800   1
  -3 -11  -2 433.000 32.8100   1
   3 -11   2 483.920 29.7900   1
  -3 -11   2 649.100 49.5700   1
   3  11  -2 461.570 24.5800   1
  -3 -11  -2 451.880 32.6600   1
   3 -11  -2 522.980 28.4500   1
  -1   8   4 8766.23 126.430   1
   1  -8  -4 8591.21 127.990   1
  -1  -8   4 8254.91 131.570   1
  -1  -8   4 7883.33 110.150   1
   1  -8  -4 7608.51 114.550   1
   1  -8  -4 8127.45 105.680   1
   1  -8   4 7976.72 129.860   1
  -1  -8  -4 8103.65 127.720   1
   3 -12   0 853.280 38.5700   1
  -3 -12   0 765.260 41.3500   1
   3  12   0 732.300 31.1300   1
   3 -12   0 468.190 40.8700   1
   3 -12   0 726.300 32.2000   1
   3 -12   0 767.570 33.0500   1
  -3 -12   0 908.420 38.8700   1
  -6  -4  -4 5177.95 137.630   1
  -6   4  -4 5851.97 120.270   1
   6  -4  -4 5936.33 132.910   1
   2   3   5 2131.20 58.7900   1
   2  -3   5 1868.30 61.0100   1
  -2   3   5 1761.60 51.6000   1
  -2   3  -5 2315.22 67.3200   1
   2  -3  -5 1873.59 56.8000   1
   2  -3   5 1831.46 68.3800   1
  -2  -3  -5 2006.86 63.4400   1
   2 -10  -3 4199.33 98.0200   1
   2 -10   3 4620.35 91.7900   1
   2 -10  -3 4534.45 89.2200   1
   2 -10   3 3662.56 70.3500   1
  -2  10   3 4169.81 110.770   1
   2  10  -3 4456.24 82.0200   1
  -2 -10  -3 3384.35 104.920   1
   5 -10   2 12207.9 154.840   1
  -5  10   2 11369.2 122.290   1
   5  10   2 11163.8 110.170   1
  -8   8   1 428.940 25.3900   1
   8   8  -1 349.100 29.4100   1
   8  -8   1 332.810 26.8200   1
  -8  -8  -1 330.360 26.9100   1
   8  -8  -1 498.740 26.8200   1
   8  -8   1 532.990 30.1600   1
   8   8  -1 482.820 26.9100   1
   8   8   1 438.040 23.9900   1
   8  -8  -1 432.710 33.5900   1
   0   4   5 14.9200 31.3400   1
   0  -4   5 7.86000 23.5600   1
   0  -4  -5 4.46000 19.6400   1
   0  -4  -5 -9.6900 17.3300   1
   0  -4   5 1.67000 9.06000   1
   0  -4  -5 5.00000 20.7400   1
   0  -4   5 5.23000 18.0500   1
   0  -4  -5 20.5300 16.3400   1
   7   0   4 -3.5500 11.2500   1
   7   0  -4 11.4800 22.3200   1
  -7   0   4 -0.2100 12.1400   1
  -7   0  -4 -7.7900 12.9700   1
  -7   0   4 21.6800 15.9600   1
   7   0  -4 10.5000 12.0900   1
   7   0   4 17.0400 17.0200   1
  -3   2   5 801.560 41.4800   1
   3   2   5 450.260 37.3800   1
  -3  -2   5 569.910 33.2600   1
  -3   2  -5 333.960 41.9800   1
   3  -2   5 626.420 34.0500   1
   3   2   5 480.310 33.5500   1
  -3   2   5 486.420 35.2700   1
  -3  -2  -5 609.640 31.3800   1
  -3   2  -5 588.170 33.2300   1
  -3  -2  -5 575.200 29.7800   1
   3  -2  -5 477.760 27.7500   1
  -3  -2  -5 581.420 37.4800   1
  -3  -2   5 820.820 40.8300   1
  -3   2  -5 573.230 26.1100   1
   3   2  -5 649.610 34.2200   1
   3  -2   5 411.440 28.5100   1
   3   2   5 464.260 35.8400   1
  -3  -2  -5 562.820 36.3900   1
  -9  -5  -2 2432.14 67.7400   1
   9   5   2 2784.32 64.3800   1
   9   5  -2 2466.49 50.3000   1
   9  -5  -2 2522.13 60.8300   1
 -10  -4  -1 4614.81 114.170   1
  -7   1  -4 9324.03 164.160   1
  -7  -1  -4 8957.44 146.150   1
  -1   4  -5 5336.87 91.2200   1
  -1  -4  -5 5779.39 120.980   1
   1  -4  -5 5695.70 102.710   1
  -1   4   5 5422.75 97.3200   1
   1  -4   5 5580.44 102.820   1
  -1  -4   5 5255.95 107.490   1
   1   4   5 5849.92 111.060   1
   1  -4  -5 4871.07 91.9200   1
  -1  -4   5 5167.48 86.5800   1
  -1  -4  -5 4911.93 102.120   1
   1  -4  -5 5440.45 96.2300   1
   8   7  -2 2596.19 52.4000   1
   8  -7   2 2981.34 69.1600   1
   8   7   2 2327.75 51.9400   1
  -8   7   2 2198.42 50.5300   1
  -8  -7  -2 2534.01 68.6500   1
  10   0   2 850.210 34.9000   1
 -10   0  -2 534.460 33.7900   1
  10   0  -2 707.540 28.2900   1
 -10   0   2 755.880 29.7400   1
   9  -7   0 2284.79 69.6800   1
   2  -8   4 764.490 35.6500   1
  -2  -8  -4 664.830 29.5700   1
  -2  -8  -4 651.520 41.0800   1
   2  -8  -4 820.090 39.2700   1
   2  -8  -4 688.730 33.7100   1
  -2  -8   4 428.560 36.2000   1
   2  -8  -4 814.420 36.6200   1
  -2  -8  -4 686.720 31.9300   1
   2  -8  -4 635.100 32.3000   1
   2  -8   4 398.070 29.1100   1
   2   8   4 697.480 36.6900   1
  -2   8   4 610.340 32.0300   1
  -2  -8   4 730.480 34.7000   1
  -2  -8  -4 507.680 31.9900   1
   2  -8  -4 389.510 28.9800   1
   2   8   4 472.560 27.4800   1
  -2  -8   4 808.360 43.6900   1
   5 -11  -1 6483.72 102.720   1
   5 -11   1 5776.23 89.5800   1
   5 -11   1 6009.42 108.520   1
 -10   1   2 3622.03 66.2700   1
  10   1   2 3906.92 75.2700   1
 -10  -1   2 3812.09 65.0900   1
   5   6  -4 7732.20 88.9200   1
  -5   6  -4 6708.75 152.600   1
  -5  -6  -4 7505.14 155.960   1
  -3 -12   1 1150.64 49.4200   1
   3 -12  -1 1122.75 45.2200   1
  -3 -12   1 1135.36 41.7700   1
   3 -12  -1 1028.50 38.2800   1
   3 -12  -1 1050.74 40.7900   1
   3 -12   1 1127.84 47.9800   1
  -3 -12  -1 1000.72 41.3300   1
  -3 -12  -1 926.420 37.8500   1
  -3 -12  -1 1053.75 49.7700   1
   3 -12   1 967.220 36.3000   1
   3  12  -1 1266.90 43.4500   1
   3 -12  -1 805.110 63.8400   1
   3 -12  -1 641.320 48.5100   1
   3  12   1 1042.67 36.7200   1
   3  12   1 777.290 67.0000   1
   3 -12  -1 1115.41 43.8700   1
  -7   2  -4 171.290 23.2700   1
  -7  -2   4 200.760 19.3700   1
  -7  -2   4 190.060 18.5200   1
   7   2   4 169.180 20.4600   1
   7  -2  -4 181.740 16.7500   1
   7   2  -4 218.970 18.3500   1
  -7  -2  -4 123.810 19.4200   1
  -7   2   4 235.010 22.9700   1
   7  -2   4 260.350 22.7800   1
   7   2   4 220.180 21.7900   1
   7   2   4 119.320 21.0000   1
  -7  -2  -4 112.340 22.2900   1
   7  -2  -4 204.450 24.8400   1
  -7  -2   4 108.350 15.4700   1
  -7  -2  -4 196.760 20.7700   1
  10  -5   0 15041.5 150.550   1
   9   0  -3 27.1700 17.9600   1
  -9   0   3 13.4300 18.8300   1
   9   0   3 14.3700 23.7500   1
   9   0  -3 28.2700 16.4400   1
   9   0   3 10.4200 14.7600   1
   3  -3  -5 13451.1 143.700   1
  -3  -3  -5 12051.8 168.130   1
  -3  -3  -5 12643.2 180.500   1
   3   3   5 11813.2 198.030   1
   3  -3   5 12906.7 146.180   1
   3 -10  -3 5633.53 97.4700   1
   3 -10  -3 5980.62 111.040   1
   3  10  -3 6595.80 94.7500   1
  -3  10   3 6586.95 104.610   1
   3  10   3 5803.38 140.250   1
   3 -10   3 6650.65 102.330   1
  -9   1   3 3790.51 62.4900   1
   9  -1   3 4350.42 84.4300   1
   9   1   3 4465.00 90.0100   1
  -2  -4   5 5076.36 105.380   1
   2  -4  -5 4714.10 85.5900   1
  -2  -4  -5 5359.10 138.370   1
  -2  -4   5 5364.47 106.060   1
   2  -4   5 4934.64 106.870   1
  -2  -4  -5 4601.23 103.620   1
  -2  -4  -5 4867.43 78.5500   1
  -4   0  -5 3593.45 75.4500   1
   4   0   5 3649.66 78.2400   1
  -4   0  -5 3441.79 105.980   1
  -4   0  -5 3686.70 65.8000   1
  -8  -5   3 10933.7 112.130   1
  -8   5   3 10621.6 115.050   1
   8   5  -3 11380.3 122.800   1
 -10  -2   2 44.8100 18.5100   1
  10  -2  -2 40.9300 17.3300   1
  10   2  -2 82.8900 22.5500   1
 -10   2   2 37.4800 18.1000   1
  10  -2   2 93.7300 21.6700   1
  10   2   2 78.9500 21.8000   1
 -10  -2  -2 54.3100 17.8400   1
 -10  -2  -2 29.1600 11.3000   1
  10  -2  -2 56.2800 19.9300   1
  10   2   2 44.9900 16.2400   1
   6  -8  -3 615.310 32.9200   1
  -6   8   3 599.090 28.5900   1
  -6   8  -3 341.420 32.0600   1
   6  -8  -3 583.170 29.5000   1
  -6  -8  -3 545.450 27.4800   1
   6  -8  -3 812.470 42.1100   1
  -6  -8  -3 516.440 33.7800   1
   6  -8   3 438.260 31.7700   1
   6   8  -3 402.220 33.3800   1
  -6  -8  -3 444.040 36.1100   1
   6  -8  -3 648.430 34.2300   1
   6  -8   3 680.600 34.8900   1
  -6  -8   3 580.350 25.7600   1
   6   8   3 591.740 29.0000   1
   6   8  -3 635.710 29.4600   1
   4   1   5 830.690 48.5000   1
  -4  -1  -5 1043.31 53.4800   1
   4  -1  -5 1263.66 48.8400   1
   4   1  -5 1170.37 40.3300   1
  -4   1   5 1188.41 41.8700   1
  -4  -1  -5 1008.28 38.8300   1
  -4  -1   5 813.720 36.2500   1
  -4  -1  -5 1207.90 48.1600   1
  -4   1  -5 1379.00 59.0800   1
  -4   1  -5 923.380 45.1500   1
  -4  -1  -5 980.470 49.3900   1
  -4   1   5 919.460 42.2600   1
   4   1   5 849.490 37.5700   1
   4  -1   5 1266.45 49.3900   1
  -4   1  -5 771.850 68.7400   1
  -4  -1   5 928.050 44.1300   1
   4   1   5 842.380 39.6300   1
  -4  -1   5 1165.97 40.7600   1
   6   5   4 471.920 28.0500   1
   6   5  -4 507.210 27.0500   1
  -6  -5  -4 390.080 33.9300   1
  -6   5   4 435.710 34.8200   1
   6  -5  -4 503.140 28.6000   1
  -6  -5  -4 454.690 27.9200   1
  -6  -5   4 261.590 20.6300   1
  -6  -5  -4 350.580 34.6100   1
   6  -5   4 610.360 33.5300   1
  -6   5  -4 345.550 28.4200   1
   6  -5   4 216.610 34.0300   1
  -6   5   4 563.170 29.4600   1
  -6  -5   4 505.680 25.2800   1
   6  -5  -4 415.770 31.4600   1
   4 -11  -2 15462.4 147.240   1
   4  11   2 14910.3 133.450   1
   4 -11  -2 15027.1 158.450   1
   4  11  -2 14824.3 130.890   1
   4  12   0 3147.52 59.7700   1
   4 -12   0 3341.90 74.6900   1
   9   7  -1 389.820 24.4000   1
   9  -7  -1 376.220 28.1300   1
   9  -7   1 403.070 29.0200   1
   9  -7  -1 361.920 24.8100   1
   9  -7   1 331.070 32.8500   1
  -9   7  -1 176.500 26.2200   1
  -9  -7  -1 302.050 25.0200   1
  -9   7   1 184.650 18.6600   1
   9   7   1 312.280 21.6200   1
  11   0   0 31.1800 19.5400   1
 -11   0   0 -2.3100 10.6600   1
  -5  -9  -3 689.240 41.0800   1
  -5  -9   3 1026.75 36.9000   1
   5   9   3 744.660 28.6800   1
   5   9  -3 809.790 31.7100   1
   5  -9  -3 638.380 38.1600   1
  -5   9   3 598.530 44.0900   1
   5  -9   3 697.720 31.6900   1
  -5   9  -3 580.220 42.9100   1
  -5  -9  -3 812.370 36.9900   1
   5  -9  -3 999.680 43.6100   1
   5  -9  -3 1114.12 56.1600   1
   5   9  -3 617.150 51.8000   1
  -5   9   3 787.780 44.0700   1
   5  -9   3 941.030 37.5500   1
   5  -9  -3 972.070 53.4300   1
   9   2   3 12109.1 150.610   1
  -9  -2   3 12247.7 119.380   1
  -9   2   3 11831.3 111.900   1
   0 -12  -2 4564.96 96.4300   1
   0 -12   2 5222.76 99.0500   1
   0   5   5 6916.21 105.530   1
   0  -5  -5 7162.73 137.980   1
   3   8   4 9340.16 152.090   1
  -3  -8  -4 8953.68 141.710   1
   3  -8  -4 9018.60 103.490   1
   7   3  -4 7993.83 89.4400   1
  -7  -3   4 7721.11 118.610   1
   7  -3  -4 8531.97 123.910   1
  -7 -10   0 95.7800 24.7400   1
   7  10   0 283.970 26.4700   1
   7 -10   0 152.990 21.0300   1
  -7  10   0 53.8600 13.6500   1
   7  10   0 128.540 14.0100   1
  -7 -10   0 116.390 18.0600   1
   7 -10   0 104.500 20.9700   1
  -7  10   0 43.6600 16.7500   1
  -7  -7   3 585.420 25.0400   1
   7   7   3 665.100 29.6600   1
   7  -7  -3 640.920 34.5700   1
  -7  -7  -3 520.620 39.7700   1
   7   7  -3 547.170 24.0200   1
   7  -7   3 677.870 32.2200   1
  -7  -7  -3 355.410 29.9300   1
   7  -7  -3 720.710 42.5100   1
  -7  -7  -3 554.410 28.3900   1
  -7   7  -3 347.040 27.7600   1
  -7   7   3 626.190 31.0700   1
   1 -12  -2 286.560 25.9600   1
   1 -12   2 316.180 24.1800   1
   1 -12  -2 323.660 25.2100   1
  -1 -12   2 302.430 23.6800   1
   1  12   2 331.250 22.8200   1
   1 -12  -2 349.260 29.3700   1
  -1 -12  -2 302.640 23.8400   1
   1 -12   2 291.950 24.3100   1
   1  12   2 255.410 24.8200   1
  -1 -12  -2 404.450 32.6300   1
   1 -12   2 366.160 32.1100   1
   1 -12  -2 401.630 27.1600   1
  -1 -12   2 383.920 36.6900   1
  -1 -12   2 337.460 29.0300   1
  -1  12   2 250.690 32.7900   1
   4   2   5 8023.19 133.610   1
  -4  -2   5 7881.67 122.320   1
  -4  -2  -5 7395.48 132.220   1
  -4   2  -5 8394.81 128.500   1
  -4  -2  -5 7694.52 144.520   1
  -4   2  -5 7257.25 134.770   1
  10  -5   1 736.630 37.2500   1
 -10  -5  -1 615.850 33.7500   1
  10   5  -1 689.700 30.5700   1
  10  -5  -1 610.940 31.4800   1
  10  -5   1 361.820 31.4800   1
 -10   5   1 354.250 27.6700   1
 -10   5  -1 321.670 30.7800   1
  10   5   1 648.530 29.3300   1
 -10   5  -1 307.070 35.6000   1
  -1  -5  -5 2103.11 70.8700   1
  -1  -5  -5 2272.62 68.2800   1
   1  -5  -5 2096.71 59.1700   1
  -1  -5  -5 2390.27 87.7800   1
   1  -5  -5 2466.58 83.6400   1
  -1  -5   5 2476.70 65.2700   1
  -1   5   5 2365.91 61.1900   1
  -1  -5   5 1951.46 62.5000   1
   1  -5  -5 2326.64 62.7000   1
   0 -13   0 15.0200 24.4300   1
   0 -13   0 4.90000 19.0000   1
   0 -13   0 0.26000 24.1600   1
   8  -9   0 665.880 33.1400   1
   8   9   0 696.010 29.6500   1
  -8   9   0 482.860 37.1900   1
  10   3  -2 3283.34 59.9500   1
  10  -3   2 3454.39 71.8300   1
  10  -3  -2 3205.10 69.9300   1
  10   3   2 3551.77 68.6200   1
 -10  -3   2 3978.83 73.4600   1
 -10  -3  -2 3296.89 81.0200   1
  10  -3  -2 3630.74 74.2400   1
 -10   3   2 3501.82 66.4200   1
   9  -6  -2 14781.4 147.130   1
   9  -6   2 14430.6 155.360   1
  -9  -6  -2 14725.6 151.530   1
   9  -6  -2 14790.9 150.950   1
   9   6   2 13372.5 120.260   1
   9   6  -2 14174.9 128.400   1
  -1 -13   0 2740.45 70.9700   1
   1 -13   0 2725.46 69.1000   1
  -1 -13   0 3143.98 71.6900   1
   1 -13   0 2947.39 74.4600   1
   1 -13   0 2771.06 64.3300   1
   1  13   0 2643.54 64.3800   1
  11   2   0 2000.80 50.5200   1
  -3   4   5 492.670 29.9300   1
   3  -4  -5 591.480 33.6900   1
  -3  -4  -5 480.450 41.2500   1
   3  -4   5 342.940 28.7600   1
   3   4   5 359.400 27.7900   1
  -3   4  -5 529.430 32.3000   1
  -3  -4  -5 577.150 32.0300   1
  -3   4  -5 293.560 29.4900   1
   3  -4  -5 526.510 29.6600   1
  -3   4   5 306.980 27.9600   1
   3  -4   5 595.160 31.9000   1
   3  -4  -5 533.320 31.5000   1
   3  -4   5 291.870 29.1400   1
  -3  -4  -5 444.170 36.9100   1
  -3  -4   5 671.480 42.4000   1
  -3  -4   5 346.750 21.8100   1
  -3  -4   5 538.870 31.7000   1
   6 -11   0 1045.11 45.0800   1
   6  11   0 994.680 33.1900   1
   6 -11   0 1030.76 38.0900   1
   6 -11   0 947.320 38.8600   1
   6  11   0 756.670 36.4700   1
   6 -11   0 798.750 47.3800   1
  -6 -11   0 1075.26 42.5300   1
   7  -9  -2 1172.32 46.2900   1
  -7   9   2 1240.73 37.8000   1
   7   9  -2 1189.66 34.1900   1
   7  -9   2 1466.44 48.2800   1
  -7  -9  -2 1174.74 52.6200   1
   7  -9  -2 1220.21 45.8700   1
  -7  -9  -2 1219.69 40.6200   1
  -7  -9   2 951.070 42.2100   1
  -9  -3   3 8479.36 92.7400   1
  -9   3   3 8033.50 96.3800   1
   9  -3  -3 8866.95 117.990   1
   4  12   1 9806.02 105.040   1
  -4  12   1 9176.87 134.880   1
  -4 -12  -1 10011.1 119.560   1
   4 -12  -1 9351.49 113.590   1
   4  12  -1 8931.50 99.9100   1
   4 -12  -1 10029.4 127.320   1
   4 -12   1 9658.11 116.160   1
   4 -12   1 9910.69 119.570   1
   0  -9  -4 35.4400 23.7500   1
   0  -9   4 13.6700 16.8700   1
   0  -9  -4 9.91000 19.2200   1
   0  -9  -4 17.0300 21.6300   1
   0  -9  -4 3.06000 10.4600   1
   0   9   4 7.72000 18.9900   1
   0  -9   4 -24.460 25.4300   1
   0  -9   4 5.00000 10.3100   1
  11   0  -1 17.1600 21.1100   1
  11   0   1 -3.9900 17.1400   1
  11   0   1 -6.2600 17.2700   1
 -11   0  -1 -6.2300 9.76000   1
   0  11   3 1331.44 56.9900   1
   0 -11   3 1235.66 58.7500   1
   0 -11   3 1380.53 45.1800   1
   0 -11  -3 1268.31 50.7500   1
   0 -11   3 1566.20 58.8500   1
   0 -11  -3 1543.29 59.0000   1
   2 -12  -2 5568.08 90.8500   1
   2 -12   2 6141.66 94.9200   1
   2  12   2 5677.23 124.910   1
   2  12  -2 6389.18 98.4600   1
   2 -12   2 6341.84 99.6800   1
   2 -12  -2 5651.70 95.3500   1
   6 -10  -2 992.050 38.8300   1
   6 -10  -2 1048.35 39.7300   1
   6 -10   2 1009.86 39.7900   1
  -6 -10  -2 1047.18 50.9100   1
  -6 -10  -2 1006.32 38.4200   1
   6 -10  -2 1014.06 43.6500   1
   6  10  -2 1043.75 34.6400   1
   6 -10   2 884.340 35.1600   1
   6  10   2 903.360 29.4100   1
  -6  10   2 732.070 30.4600   1
   6  10  -2 629.480 34.3300   1
   6 -10  -2 1006.16 44.7100   1
   2  -5  -5 1754.97 55.6000   1
   2  -5   5 1278.38 51.6000   1
  -2   5   5 1609.58 50.5000   1
  -2  -5   5 1840.40 52.0600   1
   2  -5   5 1321.78 51.1500   1
   2  -5  -5 1783.51 50.8300   1
   2  -5   5 1723.85 55.9600   1
  -2  -5  -5 1597.19 65.9100   1
  -2  -5   5 1268.35 44.6400   1
   2  -5  -5 1850.12 56.0800   1
  -2  -5  -5 1726.95 61.1100   1
  -7 -10  -1 12073.1 137.930   1
   7 -10  -1 11490.2 172.250   1
  11   1   1 7427.24 96.1000   1
  -4  -3  -5 2091.25 51.8600   1
   4   3   5 1780.48 58.4000   1
  -4   3  -5 1792.46 57.1800   1
  -4  -3  -5 1995.38 71.5500   1
  -4  -3  -5 2311.46 72.8900   1
   4  -3  -5 2205.35 61.7200   1
  -4   3   5 2305.91 67.3200   1
  -4  -3   5 2151.50 56.9200   1
  -4  -3   5 2327.36 70.0400   1
   4   3  -5 2033.07 48.7400   1
  -4  -3  -5 1803.94 75.4400   1
  -4  10   3 2553.48 63.2600   1
  -4 -10  -3 3042.98 78.9900   1
   4  10   3 3042.93 69.1500   1
   4 -10  -3 2345.15 68.0200   1
   4 -10   3 3218.63 71.2300   1
   1  -9  -4 582.790 36.0300   1
   1  -9   4 598.910 37.7300   1
   1   9   4 525.410 32.9600   1
  -1  -9   4 640.660 33.5100   1
  -1  -9  -4 344.020 31.7800   1
   1   9   4 535.440 31.1800   1
  -1  -9   4 757.190 45.5800   1
   1  -9  -4 329.010 27.3800   1
   1  -9  -4 642.230 38.3500   1
  -1  -9   4 377.280 29.0800   1
   1  -9   4 663.610 37.6100   1
  -1  -9  -4 568.520 39.6300   1
  -1   9   4 557.150 31.1800   1
  -1  -9  -4 536.980 35.5100   1
   1  -9  -4 571.340 28.3300   1
  -1  -9  -4 671.200 32.0300   1
   1  -9   4 475.960 30.5400   1
  -1  -9   4 305.260 30.8500   1
   1  -9  -4 540.110 30.5900   1
  10   6   0 12.8300 21.0200   1
  10  -6   0 42.7400 17.7300   1
 -10   6   0 16.8500 9.85000   1
  10  -6   0 17.5400 21.8500   1
 -10   6   0 31.0900 16.3500   1
  -1 -11  -3 1876.25 54.9700   1
   1 -11   3 1728.32 62.8600   1
  -1 -11   3 1638.16 50.6600   1
   1 -11  -3 1924.05 52.1200   1
   1 -11   3 1996.45 52.7900   1
  -1  11   3 1788.99 90.8100   1
   1  11   3 1922.73 57.0700   1
   1 -11  -3 1477.53 48.4900   1
   1 -11   3 2220.53 69.8400   1
   1  11   3 1655.69 74.0000   1
   1 -11  -3 1845.37 57.7100   1
   1 -11  -3 1974.45 70.4600   1
  -1 -11  -3 1596.39 62.6800   1
  -5   7  -4 132.180 18.6000   1
  -5  -7  -4 198.730 22.8900   1
   5  -7   4 103.940 16.3200   1
   5  -7  -4 192.560 20.6800   1
  -5  -7  -4 204.200 26.6300   1
   5  -7   4 130.120 19.7600   1
   5  -7  -4 265.090 25.6900   1
  -5   7   4 197.510 24.2500   1
  -5  -7   4 268.500 20.6500   1
   5   7   4 179.780 21.5100   1
   5   7  -4 207.690 17.3300   1
   5  -7  -4 125.740 16.3700   1
  -5   7   4 169.580 21.7500   1
   5  -7   4 270.090 24.5200   1
  -5  -7  -4 171.120 26.6600   1
  -5   7  -4 137.680 21.1700   1
   5  -7  -4 182.280 22.7900   1
  -7   4   4 162.790 20.1100   1
   7  -4  -4 244.410 21.5500   1
  -7   4  -4 250.690 23.2900   1
  -7  -4   4 315.520 23.4100   1
   7   4   4 282.540 23.5300   1
  -7   4   4 308.240 23.0700   1
  -7  -4  -4 221.060 27.0400   1
   7  -4  -4 346.980 25.5100   1
   7   4  -4 278.370 19.1800   1
  -7  -4  -4 131.070 22.1700   1
   7  -4   4 331.010 28.5400   1
   7   4   4 174.400 22.6300   1
  -2 -13   0 3871.81 77.6400   1
   2 -13   0 3831.86 79.2400   1
   2 -13   0 3574.70 71.3200   1
   0 -13  -1 611.100 38.9300   1
   0 -13   1 636.080 32.9700   1
   0 -13   1 629.990 32.6700   1
   0 -13  -1 579.750 33.1700   1
   0 -13   1 860.030 43.2900   1
   0 -13  -1 792.590 43.1500   1
  -8  -9  -1 16579.0 147.870   1
  -8  -9  -1 15710.8 164.770   1
  -8  -9   1 16831.6 149.900   1
   8  -9   1 17781.0 218.830   1
  -8   9   1 16303.2 150.660   1
   8  -8  -2 3820.58 81.0700   1
  -8   8   2 3656.40 64.6300   1
  -8  -8  -2 3121.00 58.9500   1
   8  -8  -2 3586.37 74.1100   1
  -8  -8  -2 3050.14 68.1900   1
   8   8  -2 3103.39 56.1200   1
   8  -6   3 1732.67 53.7800   1
   8   6  -3 1830.93 48.1100   1
  -8  -6  -3 1516.23 70.0300   1
   8  -6  -3 1577.31 46.0100   1
  -8   6   3 1554.30 42.5000   1
  -8  -6   3 1376.62 39.6100   1
   8  -6  -3 1419.77 45.4800   1
   8   6   3 1580.97 45.3400   1
  -9  -8   0 7650.70 104.310   1
   9  -8   0 8017.24 105.960   1
   9  -8   0 7328.24 123.520   1
  11  -3   0 2427.44 74.3800   1
   1 -13  -1 3821.96 72.5100   1
   1 -13   1 3807.73 76.8200   1
   1 -13  -1 3343.11 95.4800   1
   1  13   1 3317.23 69.1800   1
  -1 -13   1 3440.85 81.0300   1
  -1 -13  -1 3863.31 86.2100   1
   1 -13  -1 3475.19 78.1800   1
   1 -13  -1 3694.02 76.0400   1
  11  -2  -1 461.030 27.6200   1
  11  -2  -1 341.430 25.2300   1
  11   2   1 493.840 26.5000   1
  -6  11   1 6878.08 89.6700   1
   6 -11   1 7301.97 140.320   1
   6 -11  -1 7104.67 96.4600   1
   6 -11  -1 6793.71 105.370   1
   6 -11  -1 6529.14 123.770   1
   6  11  -1 6855.63 99.4600   1
 -10   4   2 272.490 19.3500   1
  10  -4  -2 292.390 22.2700   1
 -10  -4  -2 314.580 25.8400   1
  10  -4  -2 348.530 25.5300   1
  10   4   2 359.670 26.7800   1
  10   4  -2 380.560 26.5500   1
  10  -4   2 316.760 24.6600   1
  10  -4  -2 409.650 29.0700   1
  -6  -6  -4 743.340 48.7300   1
   6  -6  -4 885.970 39.1000   1
  -6  -6  -4 745.900 33.4800   1
   6  -6  -4 822.120 30.6700   1
  -6   6  -4 657.870 46.9400   1
  -6   6   4 802.500 32.9100   1
  -6  -6   4 777.780 28.6000   1
   6  -6  -4 764.480 41.7300   1
   6   6   4 647.880 37.9900   1
   6  -6   4 928.050 38.3000   1
  -6   6   4 522.970 35.5500   1
  -6  -6  -4 489.960 47.3700   1
  -5   0  -5 -9.2200 20.8500   1
  -5   0  -5 1.58000 11.8700   1
   5   0  -5 -6.1100 18.0100   1
  -5   0  -5 12.0200 14.5000   1
  -5   0   5 -8.2400 18.1500   1
   5   0  -5 7.71000 10.5400   1
  -5   0  -5 0.55000 16.7100   1
   5   0   5 -10.630 15.4700   1
   5   0   5 -1.7700 9.24000   1
   4  -8  -4 241.320 26.4500   1
   4  -8  -4 288.090 24.6800   1
  -4   8   4 283.850 26.7100   1
  -4  -8   4 250.940 18.9600   1
   4   8  -4 302.040 24.5300   1
  -4  -8  -4 183.410 20.6500   1
   4   8   4 236.350 22.1800   1
   4  -8  -4 160.700 23.0000   1
  -4   8   4 135.340 20.2300   1
   4  -8   4 202.960 22.4300   1
  -4  -8  -4 73.1900 18.2800   1
   4  -8  -4 164.880 18.0700   1
  -4   8  -4 106.370 21.5100   1
   4  -8   4 137.310 14.8500   1
  -4  -8  -4 228.020 25.9200   1
   4  -8  -4 318.990 30.0100   1
   4  -8   4 121.520 14.6400   1
  -2  -9  -4 1758.95 56.1400   1
   2  -9   4 1600.81 49.2300   1
  -2  -9   4 1514.25 49.4100   1
  -2  -9  -4 1994.15 76.7700   1
   2  -9  -4 1520.54 49.2600   1
  -2  -9   4 1111.90 66.9800   1
   2  -9  -4 1785.40 52.8900   1
   2   9   4 1554.14 65.3300   1
  -2   9   4 1672.47 58.4600   1
  -5   1  -5 2517.63 67.9500   1
  -5  -1  -5 2193.65 58.1800   1
  -5  -1   5 1791.05 55.0600   1
  -5  -1  -5 2100.32 87.1300   1
  -5   1   5 2098.24 68.8500   1
   5   1   5 1708.54 69.4100   1
   5   1  -5 2387.78 76.2300   1
  -5   1  -5 1867.55 64.3300   1
  -5  -1  -5 2473.96 91.1400   1
   5   1   5 1968.40 66.4400   1
   5  -1   5 2389.60 66.2500   1
  -5  -1   5 2022.51 58.5400   1
   5  -1   5 1682.09 64.7400   1
   5   1   5 2079.69 68.9900   1
  -2  11   3 370.060 32.4900   1
  -2 -11   3 275.930 33.5300   1
   2  11   3 505.770 28.9100   1
   2  11  -3 384.710 23.2500   1
  -2 -11   3 371.490 24.7100   1
   2 -11  -3 496.020 30.7900   1
   2 -11   3 483.040 27.4600   1
   2 -11  -3 491.960 29.6200   1
   2 -11  -3 493.660 30.0300   1
   2  11   3 479.790 41.6500   1
   2 -11   3 620.200 33.8100   1
  -2 -11  -3 566.530 34.8400   1
   2 -11  -3 383.330 28.3800   1
   2 -11   3 527.760 34.8000   1
  -2 -11  -3 420.200 32.1300   1
  -2 -11   3 521.140 38.4100   1
   2 -11  -3 467.920 32.3100   1
   0   6   5 1.78000 22.5700   1
   0  -6   5 1.14000 25.2300   1
   0  -6  -5 16.7700 18.8000   1
   0  -6  -5 -4.5100 18.0100   1
   0  -6  -5 22.1400 19.9500   1
   0  -6  -5 4.35000 28.9300   1
   0  -6   5 7.84000 20.7700   1
   5 -11  -2 3473.94 77.4600   1
   5 -11   2 3204.91 72.4500   1
   5 -11   2 3097.66 78.9300   1
   5 -11  -2 3353.29 76.5100   1
   5 -11  -2 3334.20 80.1400   1
   5  11   2 3070.35 60.7600   1
  -5  11   2 2728.78 54.7300   1
   5  11  -2 3156.15 54.7100   1
  -5 -11  -2 3219.17 85.8400   1
   5 -12   0 2195.28 57.6700   1
   5 -12   0 2599.66 84.3700   1
  -5 -12   0 2008.99 58.2700   1
   5 -12   0 2222.58 61.1700   1
   9  -4   3 5472.60 94.0500   1
  -9   4   3 5859.40 81.2800   1
   9   4  -3 6233.15 87.6400   1
  -9  -4  -3 5505.95 129.020   1
  -9  -4   3 5460.43 77.7000   1
  -8   0   4 18626.2 144.490   1
   8   0  -4 18479.0 177.160   1
   8   0   4 17903.6 176.620   1
   8   0  -4 16803.5 135.860   1
   8   0   4 18427.8 181.460   1
   3  12   2 9916.28 220.530   1
   3 -12  -2 11882.0 158.780   1
   3 -12   2 11125.5 146.800   1
   3 -12  -2 11547.6 136.190   1
  10  -6   1 2810.07 62.6900   1
  10  -6   1 2659.86 86.0600   1
   1  -6   5 9717.77 130.280   1
  -1  -6   5 8379.85 124.380   1
  -1  -6   5 9074.82 114.860   1
   1  -6   5 9099.88 127.100   1
  -1  -6  -5 8544.48 139.220   1
  -1  -6  -5 8750.30 134.900   1
   1  -6  -5 8743.89 117.390   1
   1  -6  -5 9119.68 139.880   1
  -1  -6  -5 9556.03 152.820   1
   3  -5  -5 6735.98 138.220   1
   3  -5   5 6521.66 115.160   1
   3  -5  -5 6417.23 98.4300   1
  -3   5  -5 5932.92 123.240   1
   8  -1  -4 601.410 32.5400   1
   8   1  -4 599.290 30.9600   1
  -8  -1  -4 564.690 41.7100   1
  -8   1  -4 433.660 34.1500   1
  -8   1   4 651.340 30.9200   1
  -8  -1   4 698.610 32.3200   1
   8   1   4 643.690 33.8600   1
   8  -1  -4 734.260 37.0200   1
   8   1  -4 526.540 24.4100   1
   8   1   4 714.760 38.2200   1
   8  -1   4 626.210 29.2700   1
  -4  -4  -5 8403.99 118.240   1
  -4  -4  -5 8846.81 130.780   1
  -4  -4  -5 8659.54 145.890   1
   4  -4  -5 9036.63 137.770   1
  -4  -4  -5 7643.43 148.070   1
  -5  -2  -5 1371.92 60.0200   1
  -5   2  -5 1222.13 50.8000   1
  -5  -2  -5 1396.28 48.5600   1
  -5  -2   5 1076.05 43.4800   1
  -5  -2  -5 1377.02 51.0300   1
   5  -2  -5 1545.19 50.0500   1
  -5  -2  -5 1206.89 61.8800   1
   5   2   5 951.450 56.1800   1
  -5  -2   5 872.820 52.0200   1
   5   2  -5 1513.20 45.8700   1
   5   2   5 1514.04 72.6600   1
  -5   2   5 1296.00 52.4000   1
   5  -2   5 1333.02 48.8800   1
   5   2   5 1271.57 57.3200   1
  -5   2  -5 1015.01 59.3000   1
   9  -8  -1 7771.10 118.370   1
  -9  -8  -1 8656.76 123.440   1
  11   3   1 5489.84 80.4200   1
 -11  -3  -1 5499.52 97.6300   1
  -3 -13   0 1955.79 69.9500   1
   3  13   0 2160.49 57.7100   1
   3 -13   0 1739.92 55.3300   1
   3 -13   0 1947.45 59.2500   1
  -3 -13   0 1976.14 56.0500   1
   6  -9  -3 15307.4 170.600   1
  -6  -9  -3 14623.4 153.890   1
  -6  -9  -3 14958.8 192.380   1
   6   9   3 13834.8 154.550   1
  -6   9   3 14261.3 180.440   1
   7  -8  -3 17337.8 162.720   1
   7   8  -3 18647.7 147.960   1
  -8  -2   4 5512.41 86.1700   1
   8  -2  -4 4574.98 80.0900   1
   8  -2  -4 5020.67 93.6000   1
  -8   2   4 5461.00 85.4900   1
   8   2   4 5081.54 100.080   1
   8  -2   4 5409.37 89.1800   1
   9  -7   2 2158.31 53.9100   1
   9  -7  -2 2022.06 54.8700   1
  -9  -7  -2 2492.77 72.8600   1
   9   7   2 2557.85 59.5000   1
   9  -7  -2 2028.30 56.4400   1
   7   5   4 388.000 24.7700   1
   7   5  -4 434.410 25.3100   1
  -7  -5  -4 196.180 26.1900   1
   7  -5   4 425.880 27.1600   1
  -7   5   4 252.540 23.2000   1
  -7   5   4 432.460 27.1400   1
   7  -5  -4 470.100 34.3000   1
  -7   5  -4 260.770 24.9200   1
  -7  -5   4 514.810 29.0200   1
  -7  -5  -4 279.950 30.0900   1
   7  -5  -4 307.750 31.6400   1
   2  -6   5 1279.61 62.1900   1
   2  -6   5 1323.88 50.0000   1
  -2   6   5 1344.59 51.0500   1
  -2  -6  -5 1342.98 60.4600   1
  -2  -6   5 1250.10 46.0900   1
   2  -6  -5 1204.47 52.1900   1
   2  -6  -5 1157.11 42.5500   1
   2   6   5 1352.76 62.5000   1
  -2  -6  -5 1286.53 53.7100   1
   2  -6  -5 1293.39 41.8100   1
  -2  -6  -5 1048.72 51.0300   1
   2  -6  -5 1214.26 67.5900   1
   5  12   1 1336.12 39.5100   1
   5  12  -1 1329.49 41.0300   1
   5 -12  -1 1255.54 46.9300   1
   5 -12  -1 1530.38 62.0900   1
   5 -12   1 1403.44 46.8500   1
   5 -12   1 1161.36 40.0500   1
   5 -12   1 1044.48 45.0500   1
   5 -12  -1 1554.88 52.4100   1
  -5  12   1 1089.48 38.2900   1
  -3  -9  -4 225.920 29.6200   1
  -3   9   4 194.990 25.8400   1
   3  -9  -4 136.180 19.1000   1
   3   9   4 216.020 27.6700   1
  -3  -9  -4 173.330 20.9800   1
   3  -9  -4 251.040 28.1300   1
   3  -9   4 116.780 16.5800   1
  -3  -9  -4 95.4300 21.8000   1
   3  -9   4 153.770 23.7900   1
  -3  -9  -4 57.1100 15.8600   1
   3  -9  -4 110.310 21.6700   1
   3  -9  -4 155.890 17.7700   1
  -3  -9  -4 219.260 23.9900   1
   3  -9  -4 210.030 24.6700   1
   3  -9  -4 219.770 28.0400   1
  -3   9   4 61.7200 18.4300   1
  -3  -9   4 257.240 38.9000   1
   3   9  -4 197.080 20.4000   1
   3   9   4 155.080 15.8000   1
  -3  -9  -4 157.080 18.0900   1
  -3  -9   4 181.400 17.4700   1
  -3  11   3 6988.44 121.910   1
   3 -11   3 7934.45 117.160   1
  -3 -11  -3 6333.97 185.240   1
   3 -11  -3 7672.13 131.020   1
   3 -11   3 7058.38 96.6600   1
  10  -5   2 22235.8 195.940   1
  10   5   2 21900.4 175.700   1
  10  -5  -2 21507.5 192.230   1
  -5  -3  -5 3356.97 95.9800   1
  -5  -3  -5 3795.39 80.1100   1
  -5  -3   5 3126.18 94.0300   1
  -5  -3   5 4235.35 70.7100   1
  -5  -3   5 3781.17 79.1300   1
   5   3   5 3501.43 78.4200   1
   5   3  -5 3939.84 71.3500   1
  -5   3   5 3614.07 88.4500   1
  -5  -3   5 3502.87 78.8400   1
  -5  -3  -5 3978.00 99.5900   1
   5 -10  -3 4228.92 89.7800   1
   5 -10   3 4514.75 89.3100   1
   5 -10   3 4557.96 96.9700   1
   5 -10  -3 4795.51 107.890   1
   5  10   3 4810.06 72.3000   1
   5  10  -3 4871.31 78.7500   1
  -3  13   1 12093.9 198.330   1
   3 -13  -1 12952.7 152.640   1
   3 -13   1 11913.7 136.680   1
  -3 -13   1 11300.5 146.730   1
   3 -13  -1 12536.3 139.350   1
  -9  -5   3 1569.17 47.8000   1
   9   5  -3 1413.34 42.1600   1
  -9   5   3 1332.57 37.3300   1
   9  -5  -3 1500.80 44.5800   1
  -9  -5  -3 1384.29 69.3200   1
   9  -5   3 1371.73 49.7200   1
   9  -5  -3 1905.58 65.6000   1
   8   3   4 1926.01 75.3100   1
   8  -3   4 2082.75 57.4500   1
   8   3  -4 2099.25 48.9100   1
   8  -3  -4 1936.50 65.5900   1
  -8   3   4 1910.70 50.2200   1
   8  -3  -4 1912.72 51.3900   1
  -8 -10   0 418.500 31.5100   1
  -8 -10   0 335.230 20.3300   1
   8 -10   0 362.790 24.2200   1
  -8  10   0 184.330 21.1100   1
   8 -10   0 384.430 28.1600   1
   8  10   0 496.110 30.5800   1
   8  10   0 260.020 22.7400   1
  11  -4  -1 1238.35 43.0400   1
 -11  -4  -1 1075.80 53.2900   1
   8  -7  -3 21241.1 187.950   1
  -8  -7  -3 20394.0 237.600   1
   8  -7  -3 20634.9 193.220   1
   8   7  -3 21382.0 153.900   1
   7  11   0 10978.6 107.990   1
 -10   0   3 8264.72 103.190   1
  10   0   3 8662.88 130.360   1
  10   0   3 8776.33 118.180   1
  -4 -12   2 451.330 28.7800   1
   4 -12  -2 597.730 32.8000   1
   4 -12   2 685.120 36.9500   1
  -4 -12  -2 467.480 36.0100   1
  -4 -12   2 693.710 73.6700   1
  -4  12   2 417.660 23.7900   1
   4  12   2 431.210 38.4100   1
   4 -12  -2 482.390 30.6000   1
   4 -12   2 485.310 27.6200   1
   4 -12  -2 521.390 31.6700   1
   4 -12  -2 533.070 31.9500   1
  -4 -12  -2 651.750 40.5200   1
   4 -12   2 674.350 37.9500   1
   4  12  -2 698.550 34.8600   1
   4  -5   5 3309.76 68.5100   1
   4  -5  -5 3490.01 79.2800   1
   4   5   5 3055.80 81.6100   1
  -4   5  -5 2699.23 88.8100   1
  -4  -5  -5 3489.10 77.3100   1
  -4  -5   5 2794.84 71.0000   1
   4   5  -5 3339.44 63.4900   1
  -4  -5  -5 2715.21 76.6400   1
  -4  -5  -5 3325.34 102.400   1
  11   0   2 3.59000 22.9200   1
 -11   0  -2 9.79000 14.2800   1
 -11   0  -2 -0.5300 12.9800   1
 -11   0   2 41.7400 22.7400   1
  11   0   2 -4.7000 19.8600   1
  11   0  -2 10.3100 15.1900   1
   5  -8   4 6642.37 149.810   1
   5  -8  -4 6657.89 123.140   1
   6   7   4 721.660 39.8400   1
   6   7  -4 990.420 35.4100   1
   6  -7   4 1058.01 43.5600   1
   6  -7  -4 1163.61 44.9200   1
  -6  -7  -4 888.160 52.6700   1
   6  -7  -4 1182.42 47.2500   1
  -6  -7  -4 1079.86 36.5500   1
  -6  -7  -4 715.060 52.9800   1
  -6   7  -4 550.450 47.1000   1
   6  -7  -4 1124.51 37.3700   1
  -6   7   4 1006.97 37.5000   1
  -6  -7   4 1030.70 33.5800   1
  10  -1  -3 368.910 27.6100   1
  10   1   3 377.550 25.7400   1
  10  -1   3 474.980 33.3700   1
  10   1  -3 340.640 22.5100   1
  10  -1  -3 363.190 25.9700   1
  10   1   3 279.640 21.2400   1
 -10  -1   3 362.310 24.8000   1
 -10   1   3 316.710 22.6700   1
   7 -10   2 397.500 34.7600   1
  -7 -10  -2 426.430 30.0500   1
   7 -10  -2 594.280 35.2200   1
   7 -10  -2 518.140 30.6100   1
   7 -10  -2 486.910 31.3500   1
   7 -10  -2 499.800 31.5400   1
  -7  10   2 285.110 29.8900   1
   7 -10   2 448.700 27.7700   1
   7  10   2 542.840 28.6600   1
  -7  10   2 445.870 23.7400   1
   7  10  -2 650.020 32.2900   1
  -7 -10  -2 438.610 26.8900   1
   7  10  -2 248.910 38.9900   1
 -11   1   2 707.970 29.4900   1
  11  -1  -2 698.310 30.5600   1
  11   1   2 795.800 34.4300   1
  11   1  -2 845.300 34.6000   1
  11  -1   2 1028.79 54.2700   1
 -11  -1  -2 632.590 35.1000   1
 -11   1  -2 558.470 42.5800   1
  11   1   2 796.580 35.7000   1
  11  -1   2 911.530 41.3500   1
  11  -1  -2 687.520 32.7600   1
  -3  -6  -5 834.330 43.6400   1
   3  -6   5 954.430 42.3700   1
  -3  -6   5 900.010 39.4300   1
  -3   6   5 1060.28 43.2300   1
   3   6   5 868.660 40.4900   1
  -3  -6  -5 777.910 46.1900   1
   3  -6  -5 1080.44 49.2000   1
   3  -6  -5 875.260 47.0000   1
   3  -6   5 597.570 37.7200   1
  -3  -6  -5 1046.11 53.9800   1
   3  -6  -5 900.870 36.9300   1
   3   6   5 703.230 44.2000   1
   0 -10  -4 1535.34 61.0800   1
   0 -10   4 1739.24 58.2200   1
   0  10   4 1607.95 60.6000   1
   0 -10  -4 1698.11 56.4600   1
   0 -10  -4 1528.92 59.0300   1
   4  13   0 4905.07 80.7600   1
   0  -7  -5 10461.8 116.610   1
   0  -7  -5 10756.3 142.270   1
   0  -7   5 10833.7 143.120   1
   0   7   5 10382.8 132.770   1
   0  -7  -5 9747.14 153.710   1
 -11   5   0 511.540 47.8800   1
  11  -5   0 576.340 29.5500   1
 -11   5   0 496.640 38.3700   1
  -6   0  -5 1329.38 48.5700   1
  -6   0  -5 1391.62 70.5500   1
  -6   0   5 1541.67 46.9800   1
   6   0   5 1413.92 53.9400   1
  -6   0   5 984.750 57.4200   1
   6   0  -5 1064.37 42.3100   1
  -6   0  -5 1238.76 76.4800   1
   0 -13  -2 23.4900 20.4900   1
   0  13   2 -0.6400 15.0500   1
   0 -13  -2 4.15000 12.8800   1
   0 -13   2 12.8900 15.6700   1
   0 -13  -2 -14.070 19.6900   1
   0 -13   2 20.2800 26.1900   1
   0 -13   2 8.25000 17.3900   1
   0 -13  -2 4.79000 22.4000   1
  -8   9   2 2967.08 52.6800   1
  -8  -9   2 3173.26 70.7800   1
  -8  -9  -2 3540.87 72.0700   1
  -8  -9  -2 3672.67 82.8700   1
   8  -9   2 2601.43 106.850   1
   8  -9  -2 3830.05 81.0700   1
   8  -9   2 3436.56 74.2300   1
 -10  -7  -1 1136.67 47.8700   1
  10  -7  -1 908.560 40.9500   1
  10  -7   1 656.920 47.1200   1
  10  -7   1 1128.58 43.1800   1
  10  -7  -1 1158.68 45.9500   1
   1 -10  -4 667.900 32.6100   1
  -1 -10  -4 672.690 44.8500   1
   1 -10  -4 738.110 33.1900   1
   1 -10  -4 435.430 34.4700   1
  -1 -10  -4 757.200 36.3600   1
   1 -10   4 565.360 37.1700   1
   1 -10  -4 824.120 39.1700   1
   1 -10  -4 673.220 38.7200   1
   1  10   4 513.510 26.6300   1
  -1 -10  -4 622.260 38.5800   1
  -1 -10   4 705.630 37.3700   1
  -1 -10  -4 383.900 29.9100   1
   1 -10   4 782.330 39.2500   1
   1 -10  -4 415.620 42.2600   1
  -1 -10  -4 285.080 43.1800   1
  -1 -10   4 643.970 36.9200   1
  -1  10   4 658.220 40.0300   1
   1  10   4 630.290 38.9300   1
   1 -10   4 720.490 69.0500   1
  -1 -10   4 457.390 34.3200   1
   9  -9   0 99.9800 23.0600   1
   9   9   0 103.420 21.4100   1
   9  -9   0 80.3100 19.9600   1
  -9  -9   0 77.5800 21.8200   1
  -1  -7  -5 88.3300 20.0900   1
   1  -7  -5 153.740 31.6400   1
  -1   7  -5 95.1600 16.9300   1
   1  -7  -5 119.560 22.7200   1
   1   7   5 162.560 27.5800   1
   1  -7  -5 105.340 22.0700   1
  -1  -7  -5 162.790 24.0500   1
   1  -7   5 105.340 21.7700   1
  -1  -7   5 153.900 21.1100   1
  -1   7   5 114.160 22.9900   1
  -1  -7   5 152.650 25.9800   1
   1  -7   5 170.830 25.3500   1
  -1  -7  -5 92.1200 23.3500   1
   1  -7  -5 134.210 22.6400   1
   5   4   5 1885.45 59.9000   1
  -5  -4   5 1991.10 64.9100   1
  -5  -4   5 2147.25 49.2000   1
  -5  -4  -5 2268.86 79.5300   1
  -5   4  -5 1823.69 62.4100   1
  -5  -4  -5 2076.87 58.4800   1
  -5  -4  -5 2716.38 118.840   1
   5   4  -5 2136.15 52.9100   1
  -6  -1  -5 409.940 38.4900   1
  -6  -1   5 738.140 31.8500   1
  -6   1   5 736.630 31.7500   1
  -6   1  -5 672.290 48.7300   1
  -6  -1  -5 507.120 35.6500   1
  -6   1  -5 587.940 34.9100   1
  -6   1   5 432.490 36.3700   1
   6   1  -5 806.330 33.8300   1
  -6  -1  -5 648.600 34.7200   1
   6   1   5 636.110 34.1000   1
   6  -1   5 668.350 40.4500   1
   6  -1  -5 431.980 32.4500   1
   6   1  -5 604.120 32.0800   1
  -6  -1  -5 477.480 48.6800   1
   6   1   5 683.340 36.0000   1
   6  -1   5 348.150 38.2200   1
   6   1   5 402.950 37.0700   1
  -6  -1   5 442.040 35.1500   1
  10  -2  -3 10446.0 119.800   1
  10  -2   3 11108.8 127.910   1
 -10   2   3 10066.3 109.090   1
  10   2   3 10989.5 127.070   1
  -1 -13  -2 10959.7 139.150   1
   1 -13   2 12054.5 156.070   1
   1 -13  -2 10998.6 135.930   1
   1  13   2 10964.2 122.640   1
  11  -2  -2 1341.30 43.7000   1
 -11  -2  -2 1059.85 46.3700   1
  11  -2   2 1158.80 40.3800   1
 -11   2   2 1163.35 39.8000   1
  11  -2  -2 1426.90 51.7300   1
   6 -11  -2 1839.80 63.0200   1
   6 -11   2 1859.46 61.7800   1
  -6 -11  -2 1664.46 66.9400   1
   6 -11  -2 1698.33 63.7000   1
   6 -11  -2 1670.93 50.9200   1
   6 -11  -2 1725.95 50.4500   1
   6  11  -2 1781.25 45.0200   1
   6  11   2 1777.73 42.9300   1
   6 -12   0 5214.80 118.180   1
  -6 -12   0 5778.07 88.3100   1
   6  12   0 5759.14 78.9400   1
  -8 -10   1 1434.91 49.0400   1
  -8 -10  -1 1334.90 37.9100   1
   8  10  -1 1120.03 46.1000   1
  -8  10   1 975.670 56.6800   1
   8 -10   1 1452.05 52.5000   1
   4  -9   4 8740.68 130.550   1
   4   9   4 8141.59 100.800   1
   4  -9  -4 8993.35 128.310   1
   4  -9  -4 8804.21 164.320   1
  -7  11  -1 242.880 32.7200   1
  -7 -11   1 504.620 33.2500   1
   7 -11   1 482.890 37.3800   1
   7  11  -1 357.660 29.2300   1
   7  11   1 603.850 28.2100   1
   7  11  -1 555.290 27.1500   1
   7 -11  -1 407.330 31.3900   1
   7 -11  -1 437.630 26.4400   1
   7 -11  -1 441.370 32.4800   1
  -7 -11  -1 571.740 35.5900   1
   4  11   3 1763.34 48.5100   1
   4 -11   3 2254.08 64.0100   1
   4 -11  -3 1909.12 71.2800   1
   4 -11  -3 2123.32 64.2300   1
  -4 -11   3 1619.41 43.2000   1
   4 -11  -3 2095.47 73.9000   1
  -4 -11  -3 1446.43 68.6400   1
  -4 -11  -3 2043.75 66.3800   1
   4 -11   3 2183.37 61.5400   1
  -4  11   3 1637.58 48.4300   1
   4  11  -3 1873.11 52.6300   1
   4  11   3 1642.23 81.3100   1
   4 -11  -3 2247.99 58.7900   1
   7  -6  -4 215.170 25.0700   1
  -7   6  -4 169.470 21.7200   1
  -7   6   4 218.820 23.1500   1
  -7  -6   4 256.070 22.7700   1
   7  -6  -4 197.900 21.4100   1
   7   6   4 228.700 26.5500   1
   7   6  -4 223.540 21.0900   1
  -7   6   4 121.130 19.0100   1
   7  -6   4 210.950 24.6500   1
  -7  -6  -4 105.720 20.2500   1
  -7  -6  -4 258.270 25.0700   1
  -7  -6  -4 232.150 25.8900   1
  -8  -4   4 2597.90 55.4300   1
   8  -4   4 2196.49 56.8100   1
   8   4  -4 2138.46 48.4200   1
   8   4   4 2436.23 61.0500   1
   8  -4  -4 2468.46 72.1500   1
  -8   4   4 2370.77 56.7500   1
   0 -12  -3 3.62000 20.8600   1
   0 -12   3 11.9600 12.9900   1
   0 -12  -3 -0.3100 23.4800   1
   0 -12  -3 5.32000 27.3700   1
   0 -12   3 1.27000 11.0600   1
   0 -12  -3 3.82000 15.9500   1
   0 -12  -3 13.1400 12.6000   1
   0  12   3 -2.0800 16.1900   1
   0 -12   3 16.7600 19.0700   1
   0 -12   3 -8.9400 23.3600   1
   0 -12   3 3.12000 8.84000   1
   6  -2   5 1310.69 54.3700   1
   6   2  -5 1025.65 37.8000   1
  -6  -2  -5 636.800 56.7700   1
  -6   2   5 924.920 47.3800   1
   6   2   5 678.330 45.3900   1
   6   2   5 859.910 45.1700   1
  -6  -2   5 986.830 45.0000   1
   6   2   5 1093.67 47.3900   1
  -6  -2  -5 872.270 50.4300   1
  -6  -2  -5 1247.93 46.4000   1
  -6   2  -5 1400.39 62.8200   1
  -6  -2  -5 917.790 50.1400   1
  -6   2  -5 948.230 53.9600   1
   0 -14   0 27063.7 245.630   1
  10   6  -2 2947.80 58.6600   1
  10   6   2 3073.40 61.7600   1
 -10  -6  -2 3046.51 76.4900   1
  10  -6  -2 3087.26 69.6300   1
 -10   6   2 3064.54 60.0600   1
  10  -6   2 2586.43 60.1500   1
  10  -6  -2 2879.87 65.7000   1
  -2 -10  -4 140.260 17.5100   1
  -2 -10  -4 131.350 29.8000   1
   2 -10  -4 293.120 32.7400   1
  -2 -10   4 349.010 36.6100   1
   2  10   4 322.340 23.6600   1
  -2 -10  -4 293.560 27.6900   1
   2 -10   4 316.590 27.5200   1
  -2 -10   4 178.040 25.7700   1
  -2 -10  -4 279.180 22.7200   1
   2 -10  -4 309.180 27.5600   1
  -2 -10  -4 123.800 19.8500   1
   2 -10  -4 307.550 27.0400   1
   2  10   4 432.430 39.0000   1
  -2  10   4 306.050 27.5400   1
   2 -10  -4 165.180 23.5900   1
   2 -10  -4 281.170 27.5000   1
   2 -10  -4 155.030 17.8400   1
  -2 -10   4 300.910 22.1600   1
  -2 -10  -4 281.560 28.0900   1
   2 -10   4 156.360 33.5200   1
   1 -12  -3 1940.58 67.1800   1
  -1 -12  -3 1555.43 52.3900   1
   1 -12   3 1532.76 65.5700   1
   1 -12  -3 1678.39 57.0700   1
  -1 -12   3 1632.42 59.0000   1
   1 -12  -3 1661.65 55.6100   1
   1  12   3 1319.96 58.8900   1
  -1  12   3 1339.10 68.1200   1
   1  12   3 1660.27 50.6400   1
  -1 -12  -3 1757.71 65.3300   1
   1 -12  -3 1798.21 72.0600   1
  -1 -12   3 1810.86 55.1200   1
   1 -12   3 1387.22 64.0300   1
  -1 -12   3 1657.83 46.8700   1
   1 -12   3 1917.99 55.5900   1
   1 -12  -3 1808.10 67.8200   1
  -2   7   5 2450.22 66.7100   1
   2  -7  -5 2232.41 74.9600   1
   2  -7   5 2519.40 76.1500   1
   2   7   5 2604.83 90.1700   1
   2  -7   5 2468.48 64.2100   1
  -2  -7  -5 2422.04 70.7700   1
   4 -13  -1 502.400 36.8500   1
   4 -13  -1 271.980 29.8600   1
   4 -13   1 560.570 34.0500   1
  -4 -13  -1 489.040 32.6800   1
   4  13   1 242.430 38.8100   1
   4  13  -1 572.390 31.0300   1
   4  13   1 387.200 20.3900   1
  -4  13   1 422.660 28.8300   1
   4 -13  -1 444.310 29.5700   1
  -4 -13   1 614.080 44.2300   1
  -4 -13  -1 554.420 41.4500   1
  -4 -13   1 506.110 33.8500   1
   4 -13  -1 440.870 25.6200   1
   4 -13   1 476.660 30.3900   1
   4 -13   1 543.580 32.2000   1
   4 -13  -1 548.190 33.3500   1
   4 -13   1 259.330 30.3000   1
   2  13  -2 10752.8 127.910   1
   2  13   2 11000.8 128.270   1
   2 -13   2 10766.0 119.330   1
  -1 -14   0 10765.2 125.240   1
  -1 -14   0 10783.4 147.620   1
   1 -14   0 11515.5 140.050   1
  10  -3   3 3921.70 81.2500   1
  10   3   3 3829.98 74.1600   1
  10  -3  -3 3768.00 75.0000   1
 -10   3   3 3170.31 59.7500   1
  10  -3  -3 3573.74 76.3200   1
  12   0   0 7318.10 103.560   1
   9  -9  -1 431.090 31.5700   1
   9  -9  -1 362.490 26.4400   1
   9   9   1 451.270 27.7400   1
   9  -9   1 417.550 27.5600   1
  -9  -9  -1 357.250 25.7700   1
   9  -9   1 402.500 30.8600   1
   9   9  -1 363.540 24.6400   1
  -9  -8  -2 2873.08 71.6300   1
   9   8   2 3068.35 68.6800   1
   9   8  -2 2872.75 60.4500   1
   9  -8   2 3264.32 80.5400   1
  -9   8   2 3042.64 62.3000   1
   9  -8  -2 2849.90 76.6400   1
   9  -8  -2 3102.64 74.2500   1
  11  -3  -2 3971.77 71.8000   1
  11  -3  -2 4108.72 81.5900   1
 -11   3   2 3771.64 65.0900   1
  11   3   2 4379.81 83.3700   1
  11   3  -2 4533.67 74.1500   1
  -9  -6  -3 2924.25 92.5300   1
  -9   6   3 2579.69 51.5700   1
   9  -6  -3 3075.34 72.8800   1
   9   6  -3 2956.32 60.3000   1
   9   6   3 3073.32 66.7500   1
  -9  -6   3 2630.63 51.3700   1
   9  -6   3 2812.91 68.1900   1
 -12   1   0 123.450 23.5600   1
  12  -1   0 245.660 22.8800   1
  12   1   0 262.440 24.7700   1
  12  -1   0 247.010 31.9300   1
   6 -12  -1 1277.55 60.3700   1
   6 -12   1 797.080 43.9600   1
   6 -12   1 1302.76 42.9200   1
   6  12   1 1378.06 44.9400   1
  -6  12   1 1170.96 36.6500   1
  -6 -12   1 1254.82 58.0500   1
   6 -12   1 1145.08 63.9700   1
   6 -12  -1 1099.86 41.0300   1
   6 -12  -1 1005.66 39.6600   1
  -6 -12  -1 1148.56 44.3300   1
   7  -9  -3 417.820 32.8900   1
  -7  -9   3 424.660 23.1700   1
   7  -9  -3 530.520 38.2100   1
   7  -9  -3 335.550 27.5000   1
  -7   9   3 321.160 23.2700   1
   7   9  -3 313.470 30.8600   1
  -7  -9  -3 378.890 31.1200   1
   7  -9   3 267.630 25.2500   1
  -7  -9  -3 305.330 22.5300   1
   7   9   3 432.880 25.1000   1
   7   9  -3 445.980 23.6700   1
   7  -9   3 429.130 29.6100   1
   7  -9  -3 634.450 44.4600   1
  -4  -6  -5 806.850 47.4600   1
   4  -6  -5 850.540 44.4400   1
  -4  -6   5 972.690 36.1800   1
   4   6   5 640.560 39.5500   1
   4  -6   5 921.320 39.4400   1
  -4   6  -5 829.340 53.7200   1
   4   6  -5 819.980 30.0800   1
   4  -6   5 488.170 36.0600   1
   4  -6   5 550.960 33.9500   1
  -4  -6  -5 774.510 33.8100   1
   4  -6  -5 869.350 41.2100   1
   4  -6  -5 817.610 37.3300   1
  -4  -6  -5 849.150 46.9300   1
  -6  -3   5 2972.92 70.8800   1
   6   3   5 3163.50 69.7100   1
  -6  -3   5 3019.93 106.630   1
  -6  -3  -5 2670.21 58.7800   1
  -6   3  -5 3531.30 82.4500   1
   6   3   5 2713.59 72.9900   1
  -6   3   5 2783.76 81.6600   1
   6   3  -5 3384.50 60.8200   1
  -6  -3  -5 3481.11 115.700   1
   2 -12   3 5450.30 105.650   1
   2 -12  -3 5619.57 126.000   1
   2 -12  -3 5694.65 124.400   1
   2 -12  -3 6098.30 95.7500   1
   2  12   3 6078.09 131.050   1
   2  12   3 5926.11 91.1000   1
   2 -12  -3 6102.22 126.980   1
  -6 -10  -3 3687.82 93.2300   1
   6  10   3 2870.44 59.0100   1
  -6 -10   3 3372.27 61.8100   1
  -6  10   3 3121.66 72.5400   1
   6  10  -3 3494.47 66.5200   1
   6 -10  -3 3595.38 97.4600   1
   6 -10  -3 3519.92 74.8900   1
   6 -10   3 3547.24 92.8500   1
   6 -10  -3 3738.18 75.6900   1
   6 -10  -3 3509.80 81.0800   1
   5 -12  -2 3011.53 88.9000   1
   5 -12  -2 2751.16 70.7300   1
   5  12  -2 2640.77 55.2300   1
  -5  12   2 2200.48 55.5000   1
  -5  -5  -5 6604.49 137.370   1
  -5  -5  -5 6595.82 113.350   1
   5   5   5 7242.45 121.150   1
  -2 -14   0 1496.37 60.9800   1
   2  14   0 1421.28 49.4100   1
   2 -14   0 1707.62 60.3700   1
   2 -14   0 1655.75 59.0100   1
   2 -14   0 1393.14 53.6100   1
  -2 -14   0 1446.69 43.8000   1
  10  -8   0 3406.30 74.8300   1
  10   8   0 3018.66 57.3700   1
 -10  -8   0 3025.90 66.5800   1
   0 -14   1 5.25000 16.7300   1
   0 -14   1 17.8800 22.5000   1
   0  14   1 4.48000 8.05000   1
   0 -14  -1 6.63000 23.3100   1
   0 -14  -1 5.82000 9.31000   1
   0 -14  -1 4.94000 21.0200   1
   0 -14  -1 -7.4600 26.5900   1
   0 -14   1 34.8300 23.8500   1
  12   2   0 6274.20 85.2000   1
   9   0  -4 -3.6200 13.2000   1
   9   0   4 4.20000 22.3600   1
   9   0   4 18.6400 19.3800   1
  -9   0   4 7.09000 16.7500   1
  -9   0  -4 10.3100 15.3500   1
   9   0  -4 17.2500 20.6500   1
  11  -6   0 3116.00 80.2300   1
   1 -14  -1 1321.16 51.6200   1
   1 -14   1 1161.74 45.5200   1
  -1 -14  -1 1159.48 46.5400   1
   1 -14   1 1325.64 47.8500   1
   1 -14  -1 1081.63 45.1100   1
  -1 -14   1 1040.66 42.1700   1
  -1 -14   1 1332.64 55.8200   1
   1  14   1 921.820 39.1300   1
  -1 -14   1 1189.53 45.4500   1
   1 -14   1 1196.15 44.0300   1
   1 -14   1 1165.84 46.8700   1
  -1 -14  -1 1053.24 49.8500   1
   1 -14  -1 1131.11 57.1600   1
   1 -14  -1 1209.88 45.7900   1
  -8  -8  -3 1485.18 66.8600   1
   8   8  -3 1607.55 39.7200   1
   8   8   3 1706.20 43.6700   1
  -8  -8   3 1630.36 45.7700   1
   8  -8  -3 1736.26 59.5900   1
  -8  -8  -3 1372.95 43.3100   1
   3 -10   4 6417.42 101.330   1
   3  10   4 6673.45 137.130   1
  -3 -10   4 6140.88 115.960   1
   3 -10  -4 6009.58 142.850   1
   9  -1  -4 1078.78 43.2600   1
   9  -1   4 968.320 45.3000   1
   9   1  -4 888.160 31.3500   1
   9   1   4 876.400 40.9000   1
  -9   1   4 956.970 34.4600   1
  -9  -1   4 975.830 36.4100   1
   9   1   4 732.580 34.8700   1
   9  -1  -4 892.400 37.2300   1
   5  13   0 2854.23 56.8600   1
   5 -13   0 2902.29 76.7100   1
  -3  -7  -5 171.750 21.8600   1
   3  -7  -5 219.540 27.0300   1
   3  -7   5 146.380 21.5000   1
   3   7   5 242.720 29.7700   1
   3  -7  -5 167.780 18.9400   1
  -3   7   5 252.430 28.9200   1
  -3  -7   5 255.990 32.7600   1
   3  -7   5 225.630 23.2900   1
   3  -7   5 118.070 17.5500   1
  -3  -7   5 166.060 20.9200   1
  -3  -7  -5 191.650 24.3500   1
  -3  -7  -5 255.050 28.4400   1
   3  -7  -5 235.630 24.7000   1
   3   7   5 112.500 14.2800   1
  -8  -5   4 5604.95 74.0500   1
   8  -5  -4 5214.17 112.530   1
   8  -5   4 6233.44 103.370   1
  -3 -13   2 2256.46 64.7900   1
   3 -13   2 2030.29 58.1600   1
   3 -13   2 1599.81 52.7500   1
  -3 -13  -2 2132.14 64.6200   1
   3 -13  -2 1861.74 67.1700   1
   3 -13  -2 2131.90 54.2000   1
   3 -13   2 1965.65 56.0900   1
  -3  13   2 1962.62 68.8700   1
  -3 -13  -2 2255.96 68.6900   1
   3 -13  -2 2238.88 60.5800   1
   3 -13  -2 1790.05 54.3200   1
  -6  -8  -4 265.450 32.5000   1
  -6  -8  -4 198.900 22.6300   1
  -6   8   4 198.480 23.1800   1
   6  -8  -4 154.140 16.8000   1
   6  -8  -4 216.780 24.7000   1
   6  -8   4 133.990 19.2500   1
   6  -8  -4 180.990 22.0600   1
  -6   8  -4 78.6200 15.8400   1
   6  -8  -4 94.3800 12.9500   1
  -6   8   4 108.160 16.9700   1
   6  -8   4 205.820 22.3900   1
  -6  -8  -4 105.040 20.8300   1
   6  -8  -4 193.970 20.9300   1
  -6   8  -4 86.0300 14.7500   1
  -6  -8   4 228.670 21.4800   1
   6   8   4 128.500 17.7900   1
   6  -8   4 96.1500 16.3300   1
   6  -8   4 103.180 15.5300   1
   6   8  -4 211.400 17.1300   1
   0   0  -6 22319.7 278.040   1
  10  -4  -3 9361.91 129.530   1
 -10  -4   3 8157.49 94.8500   1
 -10   4   3 8511.55 99.5600   1
  10   4   3 9197.07 116.410   1
  12   1  -1 691.080 27.8700   1
  12   1   1 871.700 40.2100   1
  12  -1  -1 890.780 40.4300   1
  12  -1   1 887.700 35.6800   1
  11  -4   2 6866.64 109.090   1
  11  -4  -2 7331.75 119.200   1
 -11  -4  -2 6835.24 118.160   1
   0  -1  -6 29.3300 19.3700   1
   0   1  -6 2.97000 18.2300   1
   0   1  -6 4.97000 12.5900   1
   0  -1  -6 13.4700 21.1600   1
   0  -1  -6 19.3900 15.8900   1
   0  -1   6 -11.550 32.1300   1
   0   1   6 11.5300 21.0200   1
   0  -1   6 4.01000 9.52000   1
   0   1   6 3.48000 12.4000   1
   0  -1  -6 8.78000 11.9400   1
   0  -1   6 13.5600 16.1400   1
   1   0  -6 3.56000 13.0100   1
  -1   0  -6 3.41000 12.2300   1
   1   0   6 1.92000 12.7600   1
   1   0  -6 -8.3300 18.9200   1
  -1   0   6 7.00000 19.4100   1
   1   0   6 7.04000 7.11000   1
   1   0   6 1.13000 10.6600   1
  -1   0  -6 9.95000 16.2400   1
  -1   0   6 13.5600 23.0000   1
   1   0   6 42.6300 33.1200   1
  -1   0  -6 5.51000 19.6700   1
   0  -8  -5 16.4200 19.0300   1
   0  -8  -5 18.7500 20.9400   1
   0  -8  -5 8.48000 19.6100   1
   0  -8  -5 4.20000 16.2800   1
   0   8  -5 9.09000 11.7200   1
   0  -8   5 -8.9500 28.9800   1
   0   8   5 22.3900 23.8700   1
   0  -8   5 8.01000 16.6000   1
  -5   9  -4 144.820 22.0700   1
   5  -9  -4 350.740 33.5400   1
  -5  -9  -4 254.690 30.9000   1
   5  -9   4 172.590 20.5500   1
   5  -9  -4 276.440 26.6600   1
  -5  -9  -4 128.950 27.3000   1
   5  -9   4 371.180 27.7200   1
  -5   9   4 160.810 26.3800   1
   5   9  -4 339.160 27.8300   1
   5  -9  -4 115.220 16.2400   1
   5   9   4 242.910 23.1200   1
  -5  -9   4 316.200 20.9300   1
  -5   9   4 320.010 25.2100   1
   5  -9  -4 246.130 21.5000   1
   5  -9   4 139.600 16.3500   1
   5  -9  -4 310.710 29.0400   1
   9   2   4 201.120 23.0400   1
   9  -2  -4 211.870 23.0100   1
   9  -2   4 244.880 25.2400   1
   9   2   4 200.730 22.4100   1
   9   2  -4 194.450 20.2400   1
  -9   2   4 181.550 21.0700   1
  -9   2  -4 113.490 19.0000   1
  -9  -2  -4 74.7400 15.0100   1
   9  -2  -4 194.050 22.5800   1
  -9  -2   4 161.650 17.2300   1
   5 -11   3 358.340 29.9000   1
   5 -11  -3 247.880 22.2500   1
   5 -11   3 463.690 26.9700   1
   5 -11   3 502.420 34.0200   1
  -5 -11  -3 480.320 35.4000   1
  -5 -11   3 298.570 19.2500   1
   5 -11  -3 441.020 28.9400   1
   5  11  -3 301.350 22.6800   1
  -5  11   3 321.820 22.3400   1
   5 -11  -3 453.240 30.6400   1
   5 -11  -3 395.330 35.3400   1
   5  11   3 370.820 22.4300   1
  -1   1  -6 19134.6 174.460   1
  -1  -1  -6 20946.6 217.180   1
  -1  -1  -6 18755.2 209.600   1
   1   1   6 19834.6 197.900   1
   1  -1   6 19618.6 194.660   1
  -2 -14  -1 8442.35 126.150   1
  10  -8  -1 1323.95 44.7000   1
 -10  -8  -1 1327.65 47.8800   1
  10  -8   1 1410.92 48.0600   1
  10  -8  -1 1145.67 48.5300   1
  10  -8   1 845.820 43.3200   1
  -7  -7  -4 1242.86 75.0200   1
  -7   7   4 1315.51 44.4200   1
  -7   7  -4 879.720 49.5300   1
   7   7   4 1038.85 41.8200   1
   7   7  -4 1408.71 41.1700   1
   7  -7   4 977.720 50.1400   1
  -7   7   4 827.380 53.5700   1
   7  -7   4 1520.10 52.7200   1
   7  -7  -4 1346.35 50.0800   1
  -7  -7  -4 1343.47 39.7600   1
  -1   8   5 13720.7 163.290   1
   1  -8   5 15526.3 228.350   1
  -1  -8  -5 15405.9 234.360   1
  -1  -8   5 14560.2 163.140   1
   1  -8  -5 13502.2 170.900   1
  -1  -8  -5 14841.3 207.060   1
   1  -8   5 15395.0 166.430   1
   1  -8  -5 15618.8 161.110   1
  -3 -12   3 200.920 21.7500   1
   3  12   3 340.130 24.4200   1
   3  12  -3 342.870 23.8400   1
  -3  12   3 221.200 36.3700   1
  -3 -12   3 321.180 30.9100   1
   3 -12   3 393.510 31.9800   1
   3 -12  -3 286.570 23.3500   1
  -3 -12  -3 284.830 25.6600   1
   3 -12   3 462.780 27.9000   1
  -3 -12  -3 504.070 38.5100   1
   3 -12  -3 447.320 34.6100   1
   3 -12  -3 600.720 55.8700   1
   3 -12  -3 355.910 27.0300   1
   3 -12  -3 411.170 26.3200   1
   3  12   3 516.690 50.2500   1
  -3  12   3 313.180 22.9000   1
   6  -4  -5 302.190 28.0900   1
  -6  -4   5 430.590 28.9100   1
  -6  -4   5 607.490 27.2500   1
   6  -4  -5 583.830 31.6400   1
  -6   4   5 601.870 31.4200   1
  -6  -4  -5 518.170 37.8300   1
  -6   4  -5 514.750 40.4300   1
  -6  -4   5 279.200 26.9200   1
  -6  -4  -5 661.720 32.3200   1
  -6  -4   5 417.310 30.9800   1
  -6  -4  -5 512.690 44.8200   1
   6   4  -5 475.010 21.1700   1
  -6  -4  -5 225.570 35.8000   1
   6  -4   5 677.010 32.5200   1
  -6   4   5 464.120 35.2800   1
  12  -2   1 2498.76 62.5700   1
  12  -2  -1 2186.85 56.0400   1
  12  -2  -1 2362.29 55.2100   1
 -11  -6  -1 3271.74 73.2700   1
  11  -6  -1 3589.44 110.190   1
   3 -14   0 427.970 34.6100   1
   3 -14   0 497.040 34.3900   1
  -3 -14   0 493.320 33.5400   1
   3 -14   0 509.990 33.4800   1
  -3 -14   0 584.220 45.4600   1
   3  14   0 521.440 31.2000   1
   0   2   6 8487.14 161.360   1
   8 -11   0 285.570 29.0800   1
  -8 -11   0 258.190 22.3300   1
   8  11   0 127.340 17.0600   1
   8  11   0 182.840 21.9700   1
   8 -11   0 170.090 25.8200   1
  -5 -13   1 3159.38 72.8400   1
   5 -13   1 3284.34 86.6900   1
   5 -13  -1 3378.56 97.0400   1
   5 -13  -1 3336.93 77.6500   1
   5 -13   1 3125.16 63.7000   1
   5 -13   1 2462.29 71.3300   1
   5 -13  -1 2731.55 67.6500   1
  -5 -13  -1 3283.75 76.6100   1
  -5  13   1 2605.20 57.8900   1
   5 -13   1 3065.41 73.1000   1
   5 -13  -1 3064.75 71.1700   1
 -10  -7  -2 9308.74 135.250   1
  10  -7   2 10164.7 149.450   1
  10   7   2 9628.36 125.340   1
  10  -7  -2 10233.4 146.840   1
  10  -7  -2 9810.37 142.770   1
   7   0  -5 -0.9300 10.0700   1
   7   0   5 -3.5600 15.0500   1
  -7   0  -5 8.23000 14.5700   1
   7   0  -5 12.6800 35.0500   1
   7   0   5 -1.3300 12.9000   1
  -7   0  -5 2.96000 19.9800   1
  -7   0   5 4.87000 15.9100   1
   7   0   5 0.41000 15.3300   1
   1   2   6 14.6300 10.8400   1
  -1   2   6 10.6000 8.39000   1
   1  -2   6 9.52000 8.97000   1
  -1  -2   6 11.4000 8.41000   1
  -1   2   6 45.8300 23.6200   1
  -1  -2   6 28.8200 24.0400   1
   1   2   6 37.3600 34.7600   1
   1  -2   6 35.4900 23.2400   1
   1  -2  -6 7.05000 19.3100   1
  -1  -2  -6 3.42000 21.1700   1
  -1  -2  -6 -1.8000 17.5400   1
   1  -2  -6 4.72000 14.4500   1
  -1  -2  -6 12.0300 14.2200   1
   1  -2  -6 6.48000 16.2600   1
  -1  -2  -6 24.6900 26.4000   1
  -1   2   6 16.1500 11.2700   1
  -1  -2   6 28.6000 19.9200   1
   1  -2   6 24.3600 17.4200   1
  -2   0  -6 6363.10 121.490   1
  -2   0  -6 6540.01 132.880   1
   2   0   6 6441.37 115.990   1
  -7   1   5 906.680 33.7700   1
  -7   1  -5 649.790 35.3200   1
  -7  -1  -5 676.120 44.7100   1
  -7   1  -5 535.680 34.7100   1
  -7  -1   5 796.500 31.9100   1
   7   1   5 964.320 49.8400   1
   7  -1  -5 568.050 32.3500   1
   7  -1   5 820.180 36.8300   1
   7   1  -5 846.830 36.1800   1
   7   1   5 835.690 43.9300   1
   7  -1  -5 898.290 44.9700   1
   7   1  -5 805.540 34.2700   1
  -7  -1   5 474.520 38.0400   1
   8 -10   2 1329.96 45.5200   1
  -8 -10  -2 1491.38 44.1000   1
   8 -10  -2 1483.89 57.2600   1
   8  10  -2 1434.60 39.7000   1
  -8 -10  -2 1536.60 58.7600   1
   8  10   2 1323.15 42.2700   1
   8 -10  -2 1678.57 54.8400   1
   7 -11  -2 3543.49 78.6300   1
   7 -11  -2 2886.59 65.5200   1
   7 -11  -2 3121.39 91.6300   1
  -7  11   2 2798.75 83.6000   1
  -7 -11  -2 3364.45 77.9500   1
  -7 -11  -2 3541.56 86.4700   1
   7 -11   2 3937.52 131.970   1
   7 -11  -2 3636.58 85.1700   1
   2  -1  -6 243.470 23.1300   1
  -2   1  -6 216.830 25.6700   1
  -2   1  -6 239.420 24.3100   1
   2   1  -6 323.980 27.0800   1
   2  -1  -6 232.790 21.8100   1
  -2  -1   6 245.110 24.9200   1
   2  -1   6 248.290 23.8700   1
  -2  -1  -6 236.570 23.5800   1
  -2   1   6 262.360 27.8800   1
   2   1   6 196.580 19.2500   1
   2  -1   6 133.910 17.0900   1
  -2  -1   6 135.950 22.9900   1
   2   1   6 121.950 15.8900   1
  -2   1   6 294.180 28.4600   1
  -2  -1   6 249.590 28.5400   1
   2   1   6 298.450 30.8400   1
   2  -1   6 335.560 35.1500   1
  -2  -1  -6 268.260 30.5900   1
  -2   1  -6 309.840 27.7000   1
  -2  -1  -6 326.850 27.9900   1
  -9  -3  -4 972.980 58.8000   1
   9  -3  -4 1705.50 55.1200   1
   9   3   4 1291.46 47.5100   1
   9  -3  -4 1516.95 51.7100   1
   9  -3   4 1377.86 54.0100   1
   9   3   4 1061.45 39.6700   1
   7 -12   0 942.980 38.2300   1
  -7 -12   0 877.420 42.5800   1
   7 -12   0 523.350 37.6900   1
   7  12   0 934.170 34.2600   1
   7 -12   0 923.950 47.5100   1
  -9   7   3 1023.08 33.4800   1
   9  -7  -3 1601.44 61.6900   1
   9   7  -3 1132.27 35.4100   1
   9   7   3 1427.00 42.8500   1
  -9  -7   3 1250.98 38.7300   1
   9  -7  -3 1172.06 47.9000   1
  -9  -7  -3 964.880 48.1900   1
   2  -8  -5 895.690 42.5200   1
  -2  -8  -5 857.610 41.9800   1
   2  -8  -5 1048.36 42.9500   1
  -2  -8  -5 774.400 42.9400   1
   2  -8  -5 766.410 40.4100   1
   2  -8   5 884.870 44.5300   1
   2  -8   5 906.550 57.1300   1
  -2   8   5 1145.02 55.0300   1
   2   8   5 1071.32 55.6900   1
  -2  -8   5 978.080 48.6300   1
  -2  -8  -5 789.670 45.0600   1
   2  -8  -5 1097.26 59.3100   1
   0 -11  -4 -13.200 21.8500   1
   0 -11  -4 -6.9800 22.3200   1
   0 -11  -4 19.3100 24.1200   1
   0 -11  -4 2.20000 10.3900   1
   0  11   4 -0.0200 18.9300   1
   0 -11   4 6.91000 12.1700   1
   0 -11  -4 35.4700 21.6200   1
   0 -11   4 -1.1400 9.22000   1
   0 -11   4 -0.4500 28.6500   1
   0 -11   4 2.28000 9.64000   1
   0 -11  -4 6.66000 10.4100   1
  -5  -6  -5 2472.24 76.9600   1
   5  -6  -5 2880.19 67.6900   1
  -5   6   5 2841.22 62.8800   1
  -5  -6  -5 2511.46 88.6500   1
  -5   6  -5 2414.84 92.9300   1
  12  -3  -1 1149.45 38.8400   1
  12   3   1 1437.87 36.9500   1
 -12  -3  -1 1380.33 47.9800   1
  -4 -10   4 340.030 37.6500   1
   4 -10  -4 160.970 19.7100   1
  -4 -10  -4 110.340 22.4900   1
   4 -10   4 272.040 29.1300   1
  -4  10   4 102.950 19.5900   1
   4 -10  -4 129.920 16.2300   1
   4  10  -4 256.770 23.4100   1
   4 -10   4 169.450 18.5500   1
  -4 -10  -4 312.540 34.8500   1
   4 -10  -4 237.200 25.2900   1
   4 -10  -4 274.510 25.0100   1
   4 -10  -4 253.240 22.6600   1
   4  10   4 289.060 29.4300   1
   4  10   4 159.870 16.4700   1
   4 -10   4 285.730 29.5900   1
  -4  10   4 266.050 26.3400   1
  -4 -10   4 271.300 19.7800   1
  -4  -7   5 769.230 58.7700   1
   4  -7  -5 672.860 35.2500   1
   4  -7   5 331.240 27.2100   1
  -4  -7  -5 576.840 38.9100   1
   4   7  -5 567.860 25.8100   1
   4   7   5 313.650 24.5700   1
  -4   7   5 751.000 38.2900   1
   4  -7  -5 693.980 36.1400   1
  -4  -7  -5 559.640 34.8400   1
   4  -7   5 728.020 35.6800   1
  -4  -7  -5 584.090 34.4900   1
  -4  -7   5 534.870 27.1200   1
   1 -11   4 3051.09 92.7700   1
  -1 -11   4 2720.21 103.430   1
   1  11   4 3558.86 99.6200   1
   1 -11  -4 2589.00 100.420   1
  -1 -11   4 3525.90 89.5100   1
  -1  11   4 3785.63 114.940   1
  -1 -11  -4 3591.11 85.3900   1
   7   2  -5 991.960 37.5600   1
  -7  -2  -5 632.220 59.5700   1
   7  -2   5 1255.67 54.8400   1
   7   2   5 1325.61 58.4500   1
  -7   2  -5 1167.89 49.1100   1
  -7  -2  -5 695.700 47.8400   1
   7  -2  -5 1216.56 43.8000   1
  -7  -2   5 729.920 46.8600   1
  -7  -2  -5 1022.44 52.6200   1
  -7   2  -5 694.000 41.5200   1
  -7   2   5 1247.06 41.9300   1
  -7  -2   5 880.200 45.2700   1
   7  -2  -5 809.090 39.8500   1
   0  -3  -6 -3.1900 14.3600   1
   0  -3  -6 -1.8200 17.8900   1
   0  -3  -6 -9.2600 22.0300   1
   0  -3  -6 -5.6100 22.2200   1
   0  -3   6 6.30000 22.6700   1
   0   3   6 42.4500 24.0600   1
   0  -3   6 1.30000 7.92000   1
   0  -3   6 6.87000 18.9300   1
  10  -5   3 910.550 42.2700   1
  10   5  -3 996.160 37.7300   1
  10  -5  -3 1036.73 48.1800   1
 -10  -5   3 971.240 38.2600   1
 -10   5   3 859.390 32.6600   1
  10  -5  -3 1060.99 53.0500   1
   4  13   2 3123.26 58.6400   1
   4 -13  -2 3138.82 81.5800   1
   4 -13   2 3090.27 73.2100   1
   4 -13  -2 3300.21 71.1900   1
  -4 -13   2 3431.19 93.0100   1
   4  13  -2 3274.89 64.3100   1
   4 -13  -2 3467.69 88.3100   1
   4 -13   2 3629.20 96.7600   1
  -4 -13   2 3170.67 68.1200   1
  -4 -13  -2 3125.61 105.430   1
   4 -13  -2 3478.86 92.5000   1
  12   4   0 302.760 26.4300   1
 -12   4   0 64.8200 15.8200   1
 -12   4   0 89.7100 19.1200   1
  12  -4   0 119.170 16.1800   1
  -3 -14  -1 86.7200 24.5200   1
   3 -14   1 133.470 29.6500   1
  -3 -14  -1 105.590 27.1900   1
  -3 -14   1 112.840 23.1200   1
   3 -14   1 106.010 22.2900   1
   3 -14  -1 98.3200 22.8900   1
  -3  14   1 76.2900 14.5900   1
   3  14   1 71.9600 18.2700   1
   3 -14  -1 92.6700 20.6300   1
   3 -14   1 30.1600 10.3700   1
  -3 -14   1 156.910 33.3300   1
   3 -14   1 83.4400 21.3100   1
   3  14   1 39.3800 12.3500   1
   3 -14  -1 104.130 21.2800   1
   3  14  -1 110.110 21.7600   1
   3 -14  -1 23.0500 9.43000   1
   3 -14  -1 117.290 19.2700   1
   3 -14  -1 33.1900 13.5600   1
 -11   5   2 220.660 21.4700   1
  11   5   2 252.820 25.6900   1
  11   5  -2 241.310 22.1600   1
  11  -5  -2 169.630 21.6300   1
 -11  -5  -2 184.170 23.9300   1
  11  -5   2 250.660 27.1000   1
  11  -5  -2 210.240 22.8700   1
   2  -2   6 2272.70 67.0100   1
  -2   2   6 1873.73 64.1200   1
  -2   2  -6 1410.98 73.6000   1
   2  -2  -6 2137.34 66.0400   1
  -2  -2  -6 2220.81 83.8500   1
  -2   2   6 1723.52 65.9300   1
   8  11   1 8324.53 100.810   1
   8 -11   1 8089.09 154.510   1
   8   6   4 294.390 23.5400   1
  -8  -6  -4 211.350 30.5600   1
   8  -6   4 290.990 26.9700   1
   8   6  -4 260.390 19.9800   1
  -8  -6  -4 127.170 20.5500   1
   8  -6  -4 228.920 24.6600   1
  -8  -6   4 272.410 20.2900   1
  -8   6   4 301.000 25.7300   1
  -8   6  -4 174.060 18.8900   1
  -8  -6  -4 258.930 24.0100   1
   8  -6  -4 312.230 31.9000   1
   1  -3  -6 2910.46 80.3500   1
  -1  -3  -6 2569.85 77.5300   1
  -1   3   6 3259.53 85.5400   1
   1  -3  -6 2825.05 81.3100   1
  -1  -3  -6 2559.47 84.7900   1
   1  -3  -6 2437.63 67.6100   1
  -1  -3  -6 2611.27 68.2100   1
  -1   3   6 2240.19 80.1300   1
   1  -3   6 3180.22 80.3700   1
   9   9   2 2386.53 52.3100   1
   9  -9  -2 2236.47 63.3400   1
  -9  -9  -2 1835.45 54.3400   1
   9   9  -2 1989.14 48.8600   1
   9  -9  -2 2469.20 67.9300   1
  -9   9   2 2083.05 45.7700   1
  -9  -9  -2 2032.48 62.9000   1
  11  -7   0 333.620 27.4400   1
  11   7   0 463.130 28.0200   1
   6 -12  -2 2991.00 94.8200   1
   6  12  -2 2907.01 58.6200   1
   6  12   2 2771.12 62.2400   1
   6 -12  -2 2769.41 64.2000   1
   6 -12  -2 2437.63 72.0200   1
   6   5   5 3626.30 84.2300   1
  -6   5  -5 4669.35 133.500   1
  -6  -5  -5 3675.95 94.8600   1
  -6   5   5 3303.06 102.310   1
  -3   0  -6 26.7300 16.0500   1
   3   0   6 3.94000 16.6400   1
  -3   0   6 26.2000 21.8000   1
  -3   0   6 -10.700 28.3800   1
   3   0   6 -6.1900 23.2000   1
  -3   0  -6 20.1200 17.6300   1
  -3   0  -6 25.9600 18.3300   1
  -3   0  -6 9.17000 18.7300   1
   3   0  -6 -29.250 17.2300   1
   7 -12  -1 2774.53 80.4100   1
   7 -12  -1 3819.81 77.9300   1
   7 -12   1 3512.78 98.4800   1
   7  12  -1 3849.46 83.7800   1
   7  12   1 3531.62 63.0300   1
   7 -12   1 3743.29 81.4700   1
   9 -10   1 1865.25 77.3300   1
   4 -12   3 1479.37 52.0800   1
   4 -12  -3 1153.91 51.4700   1
   4 -12   3 1464.93 50.5600   1
  -4 -12  -3 970.020 60.3900   1
  -4 -12   3 1624.29 62.1500   1
   4  12  -3 1412.70 46.9000   1
   4  12   3 1249.18 40.1700   1
  -4  12   3 1050.12 56.4500   1
   4  12   3 1307.51 77.1900   1
   4 -12  -3 1366.22 59.9600   1
   4 -12  -3 1773.09 59.4100   1
  -4 -12  -3 1701.24 66.1200   1
  -2 -11  -4 1176.79 58.2500   1
   2 -11  -4 1140.88 47.5300   1
   2 -11  -4 1189.28 44.3900   1
  -2 -11   4 916.970 43.8800   1
  -2 -11  -4 1176.30 48.5100   1
   2 -11  -4 1249.81 52.2100   1
  -2 -11  -4 1123.49 51.4200   1
   2 -11  -4 1065.60 52.1200   1
   2 -11   4 842.120 75.2700   1
   2  11   4 1307.87 77.8600   1
  -2  11   4 962.150 45.8100   1
  -2 -11   4 742.460 40.8400   1
   2 -11  -4 644.470 47.7700   1
   2  11   4 991.150 38.2700   1
  -2 -11   4 1147.95 51.8800   1
   2 -11   4 1048.65 41.7700   1
   2 -11  -4 652.150 44.7500   1
   2 -11   4 1053.79 42.9200   1
 -11   0   3 22.3400 21.7600   1
  11   0  -3 -6.5900 23.4300   1
  11   0   3 -9.7300 19.3700   1
  11   0   3 -12.900 22.2900   1
   4 -14   0 2131.31 61.8000   1
  -4 -14   0 2228.99 82.7900   1
  -4 -14   0 1807.56 56.8700   1
   4 -14   0 1940.65 60.1200   1
   4 -14   0 1581.11 46.3600   1
   4 -14   0 1675.18 67.4200   1
   4  14   0 2171.22 61.1100   1
  -3  -1  -6 187.480 24.8700   1
   3  -1  -6 257.120 26.2500   1
   3   1  -6 259.620 25.6300   1
  -3   1  -6 155.500 19.5000   1
  -3   1  -6 262.890 22.7800   1
   3  -1   6 252.090 28.2000   1
  -3  -1  -6 348.590 31.4900   1
  -3  -1  -6 216.400 21.5100   1
  -3   1  -6 257.830 24.4400   1
  -3  -1  -6 233.470 23.3700   1
  -3   1  -6 159.830 19.2600   1
   3   1   6 271.330 29.9700   1
  -3  -1   6 342.370 35.4400   1
  -3  -1   6 116.440 18.4800   1
   3   1   6 115.910 16.5400   1
  -3  -1   6 250.710 28.7700   1
  -3   1   6 209.240 33.3600   1
  -3   1   6 353.290 36.8700   1
   3  -1   6 249.180 23.5600   1
   3   1   6 202.080 21.8200   1
   9  -4  -4 4691.89 93.1500   1
  -9  -4   4 4837.65 78.9200   1
   3  -8   5 19.1800 10.9500   1
   3   8   5 32.0800 16.3000   1
  -3  -8   5 52.8600 18.8400   1
  -3   8   5 24.1000 20.0600   1
   3   8   5 58.5700 25.9400   1
   3  -8  -5 79.6400 23.4600   1
   3  -8   5 40.8800 19.5100   1
   3  -8  -5 28.8800 24.2800   1
   3  -8  -5 56.5900 18.9300   1
  -3  -8  -5 29.2300 21.5500   1
   3  -8  -5 43.5400 19.5000   1
  -3  -8  -5 21.0500 20.7600   1
  -3  -8  -5 62.5200 27.6600   1
  -3  -8   5 40.7000 26.8700   1
   7   3   5 506.690 40.4300   1
  -7  -3  -5 248.300 33.7500   1
  -7  -3   5 608.300 31.4800   1
  -7   3  -5 451.400 35.6900   1
  -7  -3  -5 376.120 28.8800   1
  -7   3  -5 268.380 26.6200   1
  -7   3   5 453.130 27.1900   1
   7  -3   5 603.340 34.1600   1
   7   3   5 326.760 22.7200   1
   7  -3  -5 311.020 28.0200   1
   7   3  -5 530.400 24.3700   1
  -7  -3   5 257.920 26.6200   1
   7  -3  -5 370.450 25.2900   1
  -7  -3  -5 308.150 30.2100   1
  -6 -13   0 1004.65 38.6400   1
   6 -13   0 896.560 44.5600   1
   6 -13   0 792.380 46.7100   1
   6 -13   0 1013.49 55.8500   1
 -10  -9   0 3351.28 75.4800   1
  10  -9   0 2671.11 81.3000   1
  10   9   0 2989.62 63.6300   1
  10  -9   0 2462.71 65.1900   1
   7 -10  -3 10975.3 175.030   1
   7 -10   3 12033.9 313.280   1
   7  10   3 12682.7 320.430   1
  -7  10   3 11117.8 136.490   1
   7 -10  -3 9935.63 150.630   1
   7 -10  -3 11246.2 150.020   1
  -7 -10  -3 11744.4 336.660   1
   7 -10   3 11563.0 313.500   1
   7 -10  -3 12034.0 325.390   1
  -7 -10  -3 11084.2 132.180   1
  11   1   3 8168.02 124.300   1
  11  -1  -3 7409.31 115.680   1
  11  -1  -3 8451.64 122.960   1
  11   1  -3 8177.11 119.670   1
  11  -1   3 8973.15 143.310   1
  11   1   3 7545.76 113.280   1
   0 -14   2 15132.9 391.050   1
   0 -14  -2 16884.1 435.250   1
   0 -14  -2 14847.3 386.760   1
   0 -14   2 18828.0 469.860   1
   0 -14   2 18405.0 467.870   1
   0 -14  -2 18103.2 457.420   1
  -2  -3  -6 2320.81 73.7900   1
  -2   3  -6 2439.50 61.5200   1
  -2  -3  -6 2617.52 85.2100   1
   2   3   6 2250.26 69.7200   1
   2  -3   6 2278.00 60.7100   1
  -2   3  -6 2468.63 74.5000   1
  12  -4   1 4685.52 85.2100   1
  12  -4  -1 5446.25 97.8800   1
  12   4  -1 5236.06 87.0100   1
 -12  -4  -1 4997.26 98.8000   1
  12  -4  -1 4932.23 92.0200   1
  -1 -14   2 4623.33 91.1300   1
  -1 -14   2 5208.00 91.3000   1
  -1  14   2 4389.56 105.410   1
   1 -14  -2 4457.79 103.310   1
   1 -14   2 5516.78 110.700   1
   0 -13   3 2914.41 89.7300   1
   0 -13  -3 2621.97 74.3000   1
   0 -13   3 2122.66 57.6900   1
   0 -13  -3 1977.51 63.9900   1
   0 -13  -3 2357.95 73.8300   1
   0  13   3 1873.10 86.8700   1
   0 -13  -3 2515.90 75.9400   1
   0 -13  -3 2701.53 91.7300   1
   0 -13   3 2458.96 64.1800   1
   8  -9   3 1892.17 54.5500   1
  -8  -9  -3 1819.83 61.3800   1
  -8   9   3 1909.38 44.6400   1
  -8  -9  -3 1472.10 38.3300   1
   8  -9  -3 2057.02 63.3100   1
   8   9  -3 1917.11 46.4400   1
   0  -4  -6 1218.25 47.6000   1
   0  -4  -6 1311.74 51.3400   1
   0  -4  -6 1132.97 54.9900   1
   0  -4   6 1199.75 48.9700   1
   0   4   6 1125.57 45.0700   1
   0  -4   6 1201.25 48.3600   1
   0  -4  -6 986.150 54.5500   1
 -12   0  -2 4902.95 124.620   1
  -3  -2  -6 5070.18 122.480   1
  -3   2   6 4869.91 161.830   1
  -3  -2   6 4992.15 114.830   1
   3   2   6 4854.76 119.890   1
  -3  -2  -6 4785.00 128.080   1
  -3   2  -6 4451.96 84.9900   1
 -11   7  -1 57.7900 29.2500   1
  11  -7   1 118.580 26.4600   1
  11  -7  -1 147.760 23.0200   1
  11  -7   1 120.980 26.7700   1
  11  -7  -1 143.730 27.1800   1
  11   7   1 142.640 21.7300   1
 -11   7  -1 51.2900 14.1700   1
 -11  -7  -1 158.880 25.7100   1
  11   7  -1 141.750 21.9000   1
  -6   9   4 1172.36 47.1000   1
   6   9   4 1015.00 44.8500   1
   6   9  -4 986.550 34.8300   1
   6  -9   4 1170.92 46.7800   1
  -6  -9  -4 572.050 50.4000   1
   6  -9  -4 878.290 53.8900   1
   6  -9   4 740.450 54.6300   1
   6  -9   4 780.990 43.4200   1
  -6  -9   4 959.400 33.9800   1
  -6  -9  -4 1228.98 57.7800   1
   6  -9  -4 1159.22 48.7000   1
   6  -9  -4 1090.41 39.8900   1
   6  -9  -4 1171.75 55.9800   1
   1 -13  -3 2773.27 75.6700   1
   1 -13  -3 3146.26 70.4100   1
   1 -13  -3 3135.91 93.5700   1
  -1 -13  -3 3185.36 95.2600   1
   1 -13  -3 2811.18 89.8600   1
   1  13   3 2586.90 106.700   1
  -1  13   3 2188.22 92.1700   1
  -1 -13   3 3145.84 82.2300   1
  -1 -13  -3 2623.77 79.0500   1
  -1 -13   3 2741.47 75.1300   1
   1 -13   3 3161.20 75.1500   1
  -1 -13  -3 2617.37 66.9300   1
  11   2   3 30.9500 21.3700   1
  11  -2   3 0.46000 26.3900   1
  11   2  -3 42.2300 22.7300   1
  11  -2  -3 16.3600 18.4600   1
  11   2   3 45.8300 21.4900   1
 -11  -2   3 24.3900 16.8200   1
 -11   2   3 67.8800 25.1900   1
  11  -2  -3 33.5100 31.1600   1
 -11  -2  -3 13.6700 12.5800   1
   6  11   3 7703.58 99.7300   1
  -6  11   3 6575.75 132.950   1
  -6 -11  -3 7829.08 134.300   1
   6 -11   3 7649.98 153.300   1
   6 -11  -3 7646.05 139.260   1
 -12  -1  -2 788.350 48.9300   1
 -12   1  -2 613.770 44.2200   1
  12  -1   2 1151.74 45.0500   1
  -1  -4  -6 1010.15 46.4800   1
  -1  -4   6 1443.12 56.3000   1
   1  -4   6 1260.79 48.3400   1
  -1  -4  -6 1255.53 52.6800   1
  -1  -4   6 1351.82 49.9000   1
  -1  -4  -6 1007.50 56.8800   1
  -1  -4  -6 1311.86 50.4600   1
   1  -4  -6 1028.84 44.3900   1
   1  -4   6 1443.70 69.8200   1
   1  -4  -6 1278.59 54.2700   1
   1  -4  -6 1143.31 63.9000   1
   7   8   4 879.670 37.5400   1
  -7  -8  -4 850.550 32.9200   1
   7  -8  -4 868.030 37.8200   1
  -7  -8  -4 972.410 75.3600   1
   7  -8   4 519.660 48.1100   1
   7   8  -4 927.200 36.4300   1
   7  -8   4 854.860 36.3000   1
  -7   8   4 881.480 38.7700   1
  -7  -8   4 832.800 32.8500   1
  12  -5   0 607.280 33.1200   1
  12  -5   0 844.890 41.6400   1
  12   5   0 789.070 36.2900   1
   0  -9   5 13709.5 353.890   1
   0  -9  -5 13975.5 389.410   1
   4  14   1 6973.58 104.170   1
  -4 -14   1 7559.34 108.970   1
  -4 -14  -1 6806.15 103.050   1
  -4 -14  -1 7355.62 127.280   1
   4 -14  -1 7712.25 118.880   1
   4 -14  -1 6779.59 123.120   1
  -4 -14  -1 7428.94 136.350   1
   4 -14   1 7856.76 115.960   1
   6  13   1 2593.14 61.8000   1
   6 -13  -1 2111.01 80.5100   1
   6 -13   1 2283.76 66.1500   1
   6 -13  -1 2216.14 65.9000   1
   6  13  -1 2023.65 54.1200   1
  -6 -13  -1 2495.76 65.6400   1
   6 -13  -1 2360.76 71.2000   1
  -6 -13   1 2371.12 68.3200   1
   6 -13  -1 2152.54 59.3500   1
   6 -13   1 2326.16 77.1700   1
  10  -9  -1 3292.19 81.3500   1
  10  -9   1 3159.91 73.2000   1
  10   9   1 2997.38 58.8400   1
  10  -9  -1 3206.97 82.0600   1
  10  -9   1 2422.78 84.9600   1
 -10  -9  -1 3136.37 75.3200   1
  -2 -14   2 3227.45 84.6500   1
   2 -14  -2 3532.43 105.290   1
   2 -14  -2 2809.44 74.8300   1
   2  14   2 2253.62 117.580   1
   2  14   2 2995.38 63.3100   1
   2 -14  -2 3050.66 68.0600   1
   2 -14   2 3344.06 81.7000   1
  -2 -14  -2 3352.10 88.3700   1
   2 -14   2 3172.20 68.6000   1
  -2 -14  -2 3053.91 75.7200   1
   2 -14   2 3114.96 65.9400   1
  10   8   2 448.940 25.8300   1
  10  -8   2 488.740 31.9500   1
  10   8  -2 497.370 28.7500   1
 -10   8   2 440.360 24.9800   1
  10  -8   2 251.340 26.6300   1
  10  -8  -2 476.590 30.8200   1
 -10  -8  -2 509.720 36.5700   1
  10  -8  -2 360.270 26.4000   1
  -3  11   4 283.050 28.1200   1
   3  11   4 413.340 39.5900   1
   3 -11  -4 318.800 25.1200   1
   3 -11  -4 374.280 29.2900   1
  -3 -11  -4 412.760 28.3600   1
   3 -11  -4 352.990 35.1500   1
  -3 -11   4 264.470 27.2500   1
   3 -11  -4 357.280 29.4600   1
   3 -11   4 328.170 25.3500   1
  -3 -11  -4 357.780 38.6300   1
   3 -11  -4 159.690 28.8900   1
   3 -11   4 379.060 32.9000   1
  -3 -11  -4 182.660 29.4400   1
  -3 -11   4 361.700 38.5000   1
   3  11   4 228.550 17.8200   1
  -3 -11   4 299.920 22.3100   1
  -1  -9  -5 466.410 38.6400   1
   1  -9   5 716.190 37.3900   1
  -1  -9   5 606.560 38.1100   1
  -1   9   5 561.330 32.6700   1
   1  -9  -5 420.040 34.9600   1
  -1  -9  -5 462.360 33.4900   1
   1  -9  -5 500.780 29.5300   1
  -1  -9  -5 606.150 40.5300   1
   1  -9  -5 534.380 34.0000   1
   1  -9   5 483.030 52.0900   1
   1  -9  -5 440.540 29.6800   1
  -1  -9   5 544.140 28.8500   1
   1   9   5 531.080 34.2100   1
  10   6  -3 3607.94 74.0900   1
 -10  -6   3 3384.21 68.0500   1
  10  -6  -3 2855.17 75.2700   1
 -10   6   3 3121.64 59.6600   1
  10  -6  -3 3216.38 69.2200   1
 -10  -6  -3 3122.16 103.070   1
  10  -6   3 3484.25 83.0400   1
   0 -15   0 35.4900 28.5700   1
   0 -15   0 10.2600 19.0600   1
   0 -15   0 8.33000 26.1700   1
 -11  -6  -2 5595.82 103.500   1
  11   6   2 5345.57 86.3500   1
  11  -6  -2 5571.63 98.3700   1
  11  -6   2 5445.02 92.7500   1
   5  10   4 8971.62 125.940   1
   5 -10   4 9337.09 144.710   1
   5 -10  -4 8766.85 171.120   1
  -5  -7  -5 468.930 31.5500   1
  -5   7  -5 330.210 34.1500   1
  -5  -7  -5 405.320 31.2000   1
  -5   7   5 403.480 25.6200   1
  -5  -7   5 468.390 23.8500   1
   5  -7  -5 514.190 34.8400   1
   5   7   5 439.540 33.2500   1
   5   7  -5 590.260 29.9500   1
   5  -7   5 626.370 34.4800   1
  -5  -7  -5 452.420 36.9300   1
   5  -7  -5 495.410 30.8500   1
   5  -7  -5 222.120 27.9700   1
   5  -7  -5 446.450 29.0000   1
  -7  -4  -5 1613.45 79.1700   1
   7  -4   5 2378.33 72.8800   1
  -7  -4  -5 1976.72 69.3700   1
  -7   4   5 2066.70 52.7600   1
  -7   4  -5 1609.04 70.9800   1
   7   4  -5 2068.59 52.3100   1
   7   4   5 1949.65 66.3400   1
  -7  -4  -5 2144.66 61.4700   1
  -7  -4   5 2218.12 51.8800   1
   2 -13   3 108.460 17.3400   1
   2 -13  -3 182.990 24.1000   1
  -2 -13   3 144.030 18.4200   1
   2 -13  -3 174.490 26.4200   1
   2 -13  -3 107.490 17.7100   1
   2 -13   3 123.810 22.7000   1
  -2 -13  -3 168.110 26.2500   1
  -2 -13   3 96.9700 35.1400   1
   2  13   3 109.050 19.1900   1
  -2  13   3 95.4600 17.2300   1
   2  13   3 107.370 23.1800   1
   2 -13  -3 161.540 21.3300   1
   2 -13  -3 187.910 23.1300   1
  -2 -13  -3 120.550 14.2900   1
   2 -13   3 88.4700 25.8700   1
  -2 -13   3 187.930 26.1700   1
   2 -13   3 150.540 19.6800   1
  -2 -13  -3 187.110 25.4800   1
   3  -3  -6 1786.20 59.0900   1
   3  -3   6 1912.88 59.4600   1
  -3   3  -6 1787.30 68.4400   1
  -3  -3  -6 1746.56 75.1400   1
   3   3   6 2075.47 62.7200   1
  -3  -3   6 2148.39 65.0000   1
  -3   3   6 1812.13 60.8300   1
  -3  -3   6 2281.00 81.3100   1
  -3   3   6 1140.48 82.8400   1
  -3  -3  -6 1495.93 62.2900   1
  -3   3  -6 1541.46 50.0200   1
  -3  -3  -6 1814.34 56.2900   1
   5 -13  -2 1887.32 51.1700   1
  -5 -13   2 2148.40 58.8200   1
  -5 -13  -2 2143.92 73.8000   1
   5 -13   2 2081.99 68.3400   1
   5 -13  -2 2072.99 76.4200   1
   5 -13  -2 1659.71 67.1300   1
   5  13   2 1897.36 50.8000   1
   5  13  -2 1894.67 53.0100   1
   5 -13   2 1835.00 57.9900   1
   5 -13  -2 1747.75 56.1700   1
  -5  13   2 1904.77 53.3100   1
   2  -4  -6 2781.78 80.6800   1
   2  -4  -6 2508.88 68.5000   1
   2  -4  -6 2908.21 80.5800   1
  -2  -4  -6 2644.89 59.8500   1
  -2  -4  -6 2405.13 83.2300   1
  -2  -4   6 2763.58 67.5900   1
   2   4   6 3183.89 85.4800   1
   2  -4   6 3292.52 91.9900   1
  -2  -4  -6 2342.70 70.9600   1
  -2   4  -6 2317.22 55.5100   1
  -2   4   6 2496.60 65.1300   1
   2  -4   6 2689.30 78.6100   1
  -1 -15   0 7028.86 111.280   1
   1 -15   0 6387.07 122.250   1
  -1 -15   0 7163.71 140.120   1
   1 -15   0 6865.74 108.950   1
   1 -15   0 7154.29 129.230   1
  -1 -15   0 6805.08 126.910   1
  -1 -15   0 6483.91 112.590   1
  -9  -8  -3 631.670 29.5100   1
   9  -8  -3 629.390 30.5300   1
  -9  -8  -3 665.300 45.7600   1
  -9   8   3 717.940 35.0500   1
   9  -8  -3 556.980 36.0800   1
  -9  -8   3 623.930 28.6200   1
   9   8   3 565.110 30.6900   1
   9   8  -3 586.040 27.5500   1
   9  -8   3 604.990 34.5000   1
  11  -3  -3 5749.00 103.290   1
  11  -3   3 6003.26 112.580   1
  11   3  -3 5301.26 84.0400   1
  11   3   3 6130.08 102.370   1
 -11  -3   3 6351.09 105.440   1
  -4   0   6 3120.26 72.6900   1
  -4   0  -6 3020.45 89.1300   1
  -4   0  -6 2429.58 87.7400   1
   4   0   6 2220.67 69.0500   1
   4   0   6 2855.38 114.180   1
   4   0  -6 3253.24 81.5100   1
  -4   0  -6 2693.89 71.3900   1
   9  -5  -4 3115.46 77.2200   1
  -9  -5   4 2931.26 57.1600   1
   9   5  -4 2879.52 56.6300   1
  -9  -5  -4 2574.11 97.9600   1
   9  -5  -4 3824.88 91.6900   1
   9  -5   4 3148.60 72.5600   1
  -9   5   4 3681.90 72.3000   1
   9   5   4 3684.60 82.5400   1
   6  -6  -5 312.130 28.3300   1
  -6  -6  -5 305.650 24.3500   1
  -6   6  -5 159.900 21.8900   1
  -6   6  -5 190.370 22.3800   1
  -6  -6  -5 235.620 29.0600   1
  -6   6   5 308.700 28.4100   1
  -6  -6   5 303.720 21.2400   1
   6  -6  -5 148.250 19.4900   1
   6   6   5 285.700 24.0400   1
   6   6  -5 372.030 25.1600   1
   6  -6   5 297.020 26.0600   1
  -6  -6  -5 273.230 27.6700   1
   4   1   6 990.580 45.4200   1
   4  -1   6 1544.72 67.5900   1
  -4   1   6 1412.17 47.0400   1
   4  -1  -6 1424.39 49.9500   1
  -4  -1   6 1520.91 48.9600   1
  -4   1  -6 1130.45 38.2700   1
  -4   1  -6 1266.40 50.9600   1
  -4  -1  -6 1368.28 41.9700   1
  -4   1  -6 1013.00 59.3800   1
  -4  -1  -6 1304.53 50.4000   1
   4   1  -6 1434.41 48.4300   1
  -4  -1  -6 961.590 45.2800   1
  -4  -1  -6 982.330 50.7600   1
  -8  -7  -4 2048.61 49.6300   1
  -8   7   4 1908.08 50.5900   1
  -8  -7  -4 1690.97 86.6500   1
   8  -7  -4 1459.51 60.3000   1
  -8  -7   4 1712.44 44.9600   1
   8   7   4 1681.67 47.7400   1
   8  -7   4 1903.04 54.6000   1
   8  -7  -4 1989.07 64.5500   1
  -4   8   5 94.4500 24.6200   1
   4   8   5 47.3500 24.6400   1
  -4  -8  -5 32.6300 17.6600   1
  -4  -8   5 53.9400 33.0800   1
   4   8  -5 28.8800 14.9900   1
   4  -8  -5 44.5200 19.6700   1
   4  -8  -5 65.8200 25.3700   1
   4  -8  -5 18.3500 8.59000   1
  -4  -8   5 43.5300 17.3200   1
   4  -8  -5 36.6500 18.5300   1
  -4  -8  -5 46.2500 21.3800   1
   4   8   5 16.4900 11.0200   1
  -4  -8  -5 35.1900 17.1800   1
   4  -8   5 49.3800 21.8600   1
  10   0   4 81.7800 20.4000   1
 -10   0   4 103.650 19.0200   1
  10   0  -4 82.4200 23.8200   1
  10   0   4 178.480 26.2600   1
  10   0  -4 137.330 19.4200   1
 -10   0  -4 74.4300 18.9400   1
  -2  -9  -5 3791.73 117.160   1
   2  -9  -5 3382.15 75.0200   1
  -2  -9  -5 3610.71 81.4500   1
  -2  -9  -5 3571.84 93.4500   1
   2  -9   5 3857.65 117.220   1
   2  -9   5 3542.19 81.1200   1
   2  -9  -5 3501.23 89.5100   1
  -2  -9   5 3996.29 93.9600   1
  -2   9   5 3910.02 94.6300   1
   2   9   5 4142.22 119.010   1
   2  -9  -5 3169.38 91.3500   1
  12  -5  -1 2531.30 64.2100   1
  12  -5   1 2709.69 77.4100   1
  12  -5  -1 2275.96 64.4400   1
 -12  -5  -1 2303.41 74.8300   1
  12   5  -1 2543.17 56.7700   1
  10   1   4 869.400 39.5100   1
  10  -1  -4 759.090 34.0700   1
  10   1   4 753.930 36.2100   1
  10  -1   4 942.310 43.5800   1
 -10  -1   4 729.580 28.8700   1
 -10   1   4 664.180 26.9900   1
 -10   1  -4 492.360 38.3000   1
  10  -1  -4 776.050 35.9100   1
  10  -1   4 743.610 40.6900   1
  10   1  -4 764.710 30.5800   1
   5 -12   3 2045.94 73.6500   1
   5 -12  -3 2785.91 81.4500   1
   5 -12  -3 1937.82 68.4200   1
  -5 -12  -3 2453.22 71.7300   1
   5  12   3 2188.86 59.4000   1
  -5  12   3 1999.80 58.5600   1
   5 -12  -3 2572.69 96.6500   1
   5 -12  -3 2018.26 56.3400   1
   5 -12   3 2478.25 70.6300   1
   0  -5  -6 -1.5700 18.2000   1
   0  -5  -6 2.86000 16.3500   1
   0  -5  -6 -3.1700 21.6900   1
   0  -5   6 4.77000 22.6100   1
   0   5   6 37.3800 24.7100   1
   0  -5  -6 -9.7500 19.7700   1
   0  -5   6 5.69000 26.6900   1
  12  -3  -2 3178.72 74.8700   1
  12   3   2 3043.64 65.5400   1
  12   3  -2 3468.31 69.5900   1
  12  -3   2 3448.13 80.6000   1
  12  -3  -2 3551.03 82.8700   1
   8   0   5 1173.56 48.1600   1
   8   0  -5 1583.04 53.2600   1
   8   0   5 1434.48 57.1500   1
   8   0  -5 1658.39 66.1200   1
  -8   0   5 1592.39 44.2800   1
   5  14   0 819.420 30.0800   1
   5 -14   0 776.640 39.8500   1
   5 -14   0 898.970 43.4700   1
   5 -14   0 898.040 55.3800   1
  -5 -14   0 932.780 45.8400   1
   5  14   0 424.970 69.0400   1
  11  -8   0 13735.2 359.080   1
  11   8   0 18745.3 467.550   1
  11  -8   0 17208.6 435.800   1
 -11  -8   0 15610.9 391.220   1
   2 -15   0 2280.17 67.4800   1
   2 -15   0 2113.89 73.6800   1
  -2 -15   0 1746.37 52.8500   1
   2  15   0 1993.64 56.6400   1
  -2 -15   0 2057.72 63.6300   1
  -4   2  -6 2533.25 85.5200   1
  -4  -2  -6 2439.79 59.6300   1
   4  -2  -6 2555.15 68.4400   1
  -4  -2  -6 1994.06 78.0700   1
   4   2   6 1851.64 70.9800   1
   4  -2   6 2300.54 71.2400   1
  -4  -2   6 2283.11 94.8400   1
  -4  -2   6 2543.48 65.4500   1
  -4   2   6 2275.79 62.3300   1
  -4  -2  -6 2176.42 91.2000   1
   0 -15   1 2331.16 61.6300   1
   0 -15  -1 1901.63 66.4900   1
   0 -15  -1 2577.53 75.6200   1
   0 -15   1 2227.00 60.6300   1
   0 -15  -1 2102.70 62.1700   1
   1  -5  -6 685.940 45.9400   1
  -1  -5  -6 1020.10 48.2200   1
  -1  -5  -6 669.300 41.3100   1
   1  -5  -6 687.070 44.4000   1
  -1  -5   6 782.850 45.6500   1
  -1   5   6 807.110 40.9900   1
  -1  -5   6 913.460 42.7900   1
   1   5   6 764.330 40.6800   1
   1  -5   6 1165.67 60.0800   1
  -1  -5  -6 734.040 44.1800   1
  -1  -5  -6 645.380 48.0800   1
   1  -5   6 654.920 36.9600   1
   1  -5  -6 810.810 42.4900   1
   1  -5  -6 802.420 46.0600   1
   3 -14   2 1815.12 53.8100   1
   3 -14   2 1870.00 66.2200   1
  -3 -14  -2 2162.07 72.1200   1
   3 -14  -2 1851.54 64.6800   1
   3 -14  -2 2046.52 56.8900   1
   3 -14   2 1639.73 53.2400   1
   3  14  -2 1776.22 56.5200   1
   3 -14  -2 1784.89 55.1000   1
  -3 -14  -2 2356.23 75.1400   1
   3 -14  -2 1450.76 72.9500   1
   3 -14  -2 1750.23 61.2000   1
   3  14   2 1597.06 76.4100   1
   3  14   2 1922.72 53.0300   1
   8  -1  -5 154.710 18.3100   1
  -8  -1  -5 99.4300 22.3600   1
  -8  -1   5 201.720 21.8800   1
   8   1   5 145.540 18.6400   1
  -8   1   5 208.330 22.9000   1
  -8  -1  -5 134.040 19.6800   1
   8   1  -5 145.650 33.9200   1
  -8   1  -5 135.640 22.1600   1
   8  -1   5 133.870 18.7400   1
   8   1  -5 142.480 16.4900   1
   8   1   5 167.020 19.5900   1
   8  -1  -5 220.510 24.1500   1
   8 -11  -2 355.890 27.2600   1
   8 -11  -2 415.180 30.3400   1
   8  11  -2 475.770 29.6900   1
   8  11   2 581.020 31.1200   1
  -8  11   2 518.660 29.5300   1
   8 -11   2 450.420 30.4700   1
  -8 -11  -2 626.010 32.1900   1
   8 -11  -2 568.380 36.5000   1
  -8 -11  -2 583.220 34.4700   1
   8 -11   2 411.590 33.8100   1
   8 -12   0 6941.60 126.890   1
   8  12   0 6725.50 95.2400   1
   8 -12   0 7032.94 115.820   1
   1 -15   1 169.120 23.3700   1
   1 -15  -1 209.910 26.4400   1
  -1 -15  -1 234.380 28.2500   1
   1 -15   1 185.790 26.3800   1
   1 -15  -1 232.950 29.5100   1
  -1 -15   1 240.790 28.7800   1
  -1 -15  -1 186.890 27.4600   1
   1 -15  -1 133.290 18.5600   1
  -1 -15   1 247.680 35.8000   1
  -1  15   1 72.7100 13.6700   1
   1  15   1 57.6800 12.2600   1
   1 -15  -1 191.600 30.7000   1
  -1 -15   1 201.160 23.7300   1
   1 -15   1 195.550 25.2700   1
   1 -15   1 111.860 17.9900   1
   1 -15   1 157.120 22.4700   1
   9 -11   0 1347.35 60.2100   1
   9 -11   0 1340.02 45.5800   1
   9  11   0 1306.52 39.0600   1
  -9 -11   0 1288.72 40.7300   1
  -9 -11   0 1459.24 50.6800   1
  13   0   0 18.8200 24.1600   1
  10  -2  -4 1040.91 38.0200   1
 -10   2   4 951.730 34.6800   1
 -10  -2   4 879.920 35.9700   1
  10   2   4 1032.22 40.4700   1
  10  -2  -4 1073.36 44.8800   1
  10   2  -4 1006.24 37.1700   1
  10  -2   4 958.630 47.0600   1
  10   2   4 872.140 36.6600   1
   3 -13  -3 1622.22 67.3100   1
   3 -13  -3 1447.76 66.0300   1
   3 -13  -3 1764.21 66.8900   1
  -3 -13  -3 1995.67 80.2400   1
   3 -13   3 1923.26 58.8400   1
  -3 -13   3 1820.69 54.6100   1
  -3 -13  -3 1951.35 72.3500   1
  -3 -13   3 2011.32 69.5000   1
   3  13  -3 1708.16 49.9300   1
   3  13   3 1810.35 54.1200   1
   3  13   3 1941.54 99.5900   1
   3 -13  -3 1497.04 60.3700   1
   3 -13  -3 1947.87 55.5100   1
   3 -13   3 1751.54 65.9900   1
   3  -4   6 4645.55 112.170   1
  -3  -4   6 4212.60 105.760   1
   3  -4   6 3996.96 90.2100   1
   3  -4  -6 4249.16 93.3000   1
  -3  -4  -6 3930.01 107.700   1
   3  -4  -6 3749.40 85.6700   1
  -3   4  -6 4292.49 83.1900   1
  -3  -4  -6 3957.91 117.690   1
  13  -1   0 10886.8 149.330   1
  13  -1   0 12794.0 329.130   1
 -11   4   3 680.220 35.7700   1
  11  -4  -3 521.760 29.4600   1
 -11  -4   3 567.300 30.4400   1
 -11  -4  -3 305.790 30.0800   1
  11   4  -3 514.950 25.3100   1
  11  -4  -3 382.240 24.0400   1
  11  -4   3 645.360 38.2100   1
  11   4   3 601.780 32.9600   1
   4  11   4 10862.5 194.930   1
  -4 -11  -4 11617.3 335.380   1
   4 -11   4 8540.54 152.980   1
  -4  11   4 9993.51 138.150   1
  -4 -11   4 10447.4 193.800   1
   4 -11  -4 11701.8 328.000   1
   4 -11  -4 10750.5 181.690   1
  12  -6   0 1292.70 46.9000   1
   7  12   2 80.1300 16.1000   1
   7  12  -2 108.610 30.0200   1
   7 -12   2 104.900 25.8500   1
   7 -12  -2 88.5600 21.0900   1
  -7  12   2 75.9000 15.4600   1
  -7 -12  -2 147.850 21.9200   1
   7 -12   2 76.3400 23.6400   1
   7 -12  -2 121.330 25.1500   1
   7 -12  -2 103.990 26.4700   1
   7 -12  -2 69.4000 17.3200   1
  -7 -12  -2 116.180 23.5800   1
   8   2  -5 1785.02 46.7600   1
  -8   2  -5 1695.68 64.1800   1
   8  -2  -5 2115.24 67.3200   1
  -8   2  -5 1319.43 71.5600   1
   8  -2   5 1867.50 67.9200   1
   8   2   5 1679.15 62.8600   1
   8   2   5 2142.96 68.1900   1
  -8  -2  -5 1571.91 69.4600   1
  -8  -2   5 2012.17 50.4200   1
  -9 -10  -2 6568.28 119.800   1
   9 -10  -2 7293.45 126.100   1
  -9 -10  -2 7005.76 100.340   1
  -9 -10   2 7062.77 118.400   1
  -9  10   2 6572.47 90.1800   1
  -7   5  -5 1029.43 59.2000   1
  -7  -5   5 1227.55 37.9500   1
   7  -5   5 1131.05 42.8100   1
  -7   5   5 1233.02 39.0900   1
  -7  -5  -5 955.930 52.2600   1
   7  -5  -5 1178.11 48.2800   1
  -7  -5  -5 1316.99 41.7500   1
  -7  -5  -5 988.590 54.4600   1
   7   5   5 1118.26 43.6700   1
   7   5  -5 1026.51 35.8300   1
   0 -12   4 7320.20 124.720   1
   0  12   4 7269.50 133.090   1
   0 -12  -4 6916.97 143.030   1
   0 -12   4 6268.88 120.270   1
   0 -12  -4 6309.10 116.300   1
   2   5   6 5161.76 113.910   1
   2  -5   6 5470.33 139.450   1
   2  -5  -6 4555.13 110.500   1
   2  -5  -6 4438.49 97.6100   1
  -2  -5  -6 3889.13 112.650   1
  -2   5  -6 4719.43 91.4400   1
   2  -5   6 4266.68 88.2400   1
  -2  -5   6 4908.29 98.2600   1
  -2   5   6 4379.99 88.1000   1
  -2  -5  -6 5202.24 102.520   1
  -3  -9   5 688.960 43.2300   1
   3   9   5 549.280 38.0700   1
   3  -9  -5 536.670 32.8000   1
  -3  -9   5 581.580 32.9300   1
   3  -9  -5 629.460 35.5000   1
  -3  -9  -5 574.290 34.8900   1
   3  -9  -5 573.950 31.4000   1
  -3   9   5 488.760 31.9000   1
  -3  -9  -5 571.070 36.7700   1
   3  -9   5 732.490 41.9000   1
  -3  -9  -5 551.080 43.5500   1
   3  -9  -5 831.900 46.7100   1
  -4  -3  -6 8874.31 175.350   1
  -4   3  -6 9550.67 167.480   1
  -4  -3  -6 9663.70 194.570   1
  -4  -3  -6 9637.90 124.080   1
  -5 -14  -1 31.8300 29.8800   1
   5 -14   1 32.1200 18.6400   1
   5  14  -1 34.0700 18.9400   1
   5 -14   1 18.2200 13.7500   1
  -5 -14   1 33.1900 22.9200   1
   5 -14   1 19.8200 22.2300   1
   5 -14  -1 25.3600 21.2400   1
   5 -14  -1 37.6900 23.2900   1
   5 -14   1 17.5200 19.0500   1
   5 -14  -1 29.6700 16.1200   1
  -5 -14  -1 -0.3000 22.3800   1
   5  14   1 15.4600 16.9200   1
   5 -14  -1 28.2500 21.1900   1
   5  14   1 29.8700 16.4600   1
  -5 -14   1 32.9300 36.4400   1
  11   8   1 1760.00 42.9200   1
  11   8  -1 1999.42 55.0000   1
  11  -8   1 2134.56 67.7800   1
  11  -8  -1 2060.68 62.4200   1
  11  -8  -1 2099.81 68.2700   1
   2 -15  -1 1010.50 42.2200   1
  -2 -15  -1 841.420 54.3100   1
   2 -15   1 975.520 51.2800   1
  -2 -15   1 967.890 47.4000   1
   2 -15  -1 835.660 38.7800   1
   2 -15  -1 989.830 43.9300   1
   2 -15   1 860.410 35.0800   1
   2  15   1 844.720 32.4100   1
   2  15  -1 775.510 33.1100   1
  -2 -15   1 822.780 39.6300   1
  -2 -15  -1 1076.40 49.5800   1
   2 -15   1 889.850 44.9800   1
  -1 -12   4 938.220 44.9900   1
  -1 -12  -4 1186.76 48.4800   1
   1 -12  -4 1062.23 47.8600   1
  -1 -12  -4 911.250 41.2300   1
   1 -12  -4 1175.44 56.6300   1
  -1 -12  -4 795.280 42.7100   1
   1 -12   4 807.960 47.0900   1
   1  12   4 1140.95 55.6000   1
  -1  12   4 1033.40 52.1800   1
  -1 -12   4 1251.43 51.5400   1
  -1 -12  -4 1132.15 55.3000   1
   1 -12  -4 959.130 43.9100   1
   1 -12   4 959.930 40.0800   1
   1 -12  -4 1033.11 47.8000   1
  -7 -13   0 7972.37 112.580   1
   7 -13   0 7802.89 153.590   1
   7  13   0 8178.73 104.970   1
  13  -2   0 1422.89 48.1300   1
  13   2   0 1129.69 35.8100   1
  13  -2   0 1545.20 57.2400   1
  12   4   2 1625.82 53.5500   1
  12  -4   2 1738.31 64.4800   1
  12  -4  -2 1360.28 43.0200   1
  12  -4  -2 1347.10 52.6100   1
  12  -4  -2 1332.76 47.9500   1
 -12  -4  -2 1358.52 49.8900   1
   3 -15   0 351.580 29.2800   1
   3 -15   0 318.250 29.0500   1
  -3 -15   0 357.910 35.8000   1
   3  15   0 321.610 24.6900   1
   3 -15   0 309.820 25.8400   1
  -3 -15   0 323.690 27.2400   1
  10  -3  -4 3453.04 78.5200   1
  10   3   4 3387.88 81.2900   1
  10  -3  -4 3503.12 78.7400   1
 -10   3   4 3672.09 76.9900   1
  10   3  -4 3776.07 75.4900   1
 -10 -10   0 304.070 33.7300   1
  10 -10   0 190.290 22.5900   1
  10 -10   0 447.940 30.0000   1
  10  10   0 417.530 27.3200   1
 -10 -10   0 268.770 21.2100   1
  10   7  -3 614.120 28.7900   1
 -10   7   3 504.320 27.2800   1
  10  -7  -3 398.580 25.9200   1
 -10  -7  -3 353.670 35.5700   1
  10  -7   3 636.710 34.5000   1
  10  -7  -3 629.110 31.6600   1
  10   7   3 745.730 37.6100   1
 -10  -7   3 618.340 32.5200   1
   8  12   1 651.570 42.7700   1
   8 -12  -1 448.010 33.9900   1
   8 -12  -1 611.220 33.1800   1
   8 -12   1 494.420 31.2800   1
  -8 -12   1 634.690 34.1100   1
  -8 -12  -1 706.010 37.7600   1
   8  12  -1 510.070 25.8400   1
   8 -12   1 447.240 35.0800   1
   8 -12  -1 383.840 28.7600   1
  -9 -11  -1 5920.42 93.2100   1
  -9 -11  -1 5884.72 107.530   1
   9 -11  -1 5833.83 135.110   1
  -9 -11   1 5426.15 94.6600   1
   9  11   1 6573.04 104.180   1
   9 -11  -1 6681.03 127.880   1
  13   0   1 31.2200 22.3200   1
  13   0   1 17.7100 18.0700   1
  13   0  -1 16.9200 24.2000   1
 -11  -7  -2 657.780 37.8900   1
  11  -7  -2 666.090 37.4700   1
 -11   7   2 773.900 30.1400   1
  11  -7   2 830.650 36.6100   1
  11  -7  -2 982.760 44.5600   1
   9  -6   4 7867.77 122.100   1
   9  -6  -4 6624.49 129.010   1
  -9   6   4 7846.94 106.340   1
   9   6   4 7163.57 116.110   1
  -5   0   6 -9.4300 22.1300   1
  -5   0  -6 13.8700 23.4900   1
  -5   0  -6 10.8800 19.4900   1
  -5   0  -6 10.1200 14.3400   1
   5   0   6 8.00000 15.4300   1
   5   0   6 -3.6200 15.3700   1
  -5   0  -6 2.64000 15.5200   1
   5   0  -6 10.6800 33.0400   1
  13   1   1 6.06000 24.6700   1
  13   1  -1 23.1000 15.2000   1
  13  -1   1 36.5500 25.8700   1
  13  -1  -1 61.4100 24.2500   1
  13  -1   1 37.5200 20.0800   1
   8  -3   5 2374.00 78.8200   1
   8   3   5 1900.28 74.3400   1
   8  -3  -5 1721.71 73.6900   1
   8   3  -5 2206.62 49.4600   1
  -8  -3   5 2228.72 54.7600   1
  -8   3   5 2203.66 59.5800   1
  -8   3  -5 1695.19 65.9100   1
   8   3   5 2232.05 69.0400   1
  -8  -3  -5 1737.86 69.7500   1
   8 -10  -3 632.420 33.9800   1
   8  10   3 585.480 30.0000   1
   8 -10   3 615.280 32.6100   1
  -8 -10  -3 584.070 29.4300   1
  -8  10   3 467.250 24.5900   1
   8 -10  -3 632.870 47.9600   1
  -8 -10  -3 557.070 36.7300   1
   8  10  -3 579.730 27.1100   1
   7  -9  -4 1008.54 41.4000   1
  -7   9   4 830.580 33.8600   1
   7  -9  -4 929.610 47.5400   1
  -7  -9   4 1113.36 41.7600   1
   7   9   4 1177.59 49.7600   1
   7   9  -4 901.550 37.5300   1
   7  -9   4 870.320 39.4600   1
   7  -9  -4 967.410 58.0000   1
  -7  -9  -4 800.680 36.8400   1
   7  -9  -4 935.490 48.0000   1
  -7  -9  -4 691.280 52.4300   1
   7  -9   4 635.600 40.5000   1
  -7 -11  -3 357.400 33.7600   1
   7 -11   3 262.800 25.8500   1
   7 -11  -3 343.340 30.5500   1
   7 -11  -3 423.970 28.7000   1
   7 -11  -3 375.880 32.4100   1
  -7  11   3 311.650 20.9800   1
   7  11   3 545.070 33.9300   1
   7  11  -3 505.460 32.8200   1
   7 -11   3 426.990 32.1000   1
   7 -11  -3 341.460 31.9500   1
  12  -6   1 56.8200 19.7400   1
  12  -6  -1 84.4800 25.3100   1
  12   6   1 72.3400 20.5400   1
  12   6  -1 54.3700 19.7700   1
  12  -6   1 65.7400 21.4800   1
  12  -6  -1 102.950 29.5300   1
 -12  -6  -1 80.5900 22.1500   1
   5   1   6 2273.01 77.9000   1
   5   1  -6 2860.16 66.4500   1
  -5  -1  -6 3036.52 66.4600   1
  -5  -1  -6 2614.97 69.0200   1
  -5   1  -6 2634.41 72.5400   1
   5  -1  -6 3143.69 74.0700   1
  -5  -1  -6 2511.26 93.6900   1
   5  -1   6 2428.82 72.1900   1
  -2 -12  -4 2690.27 74.6400   1
   2 -12  -4 3048.28 80.8900   1
   2 -12   4 2912.70 72.6000   1
  -2 -12  -4 2829.03 82.9600   1
   2 -12  -4 2982.91 73.5300   1
   2 -12   4 2752.22 104.620   1
   2  12   4 2513.74 83.6600   1
  -2 -12   4 2883.92 73.4700   1
  -2 -12  -4 3006.55 106.590   1
   2 -12  -4 2707.32 79.7100   1
   2 -12  -4 2964.96 70.5500   1
  -2 -12   4 2140.64 84.7200   1
   6 -10  -4 752.410 36.2700   1
   6  10  -4 718.920 30.3700   1
   6 -10  -4 835.570 37.2500   1
   6 -10  -4 1215.28 62.4400   1
  -6  10   4 874.460 34.7200   1
  -6 -10   4 713.580 30.4000   1
   6  10   4 1033.89 42.5000   1
   6 -10   4 904.300 47.9000   1
   6 -10  -4 629.780 40.3100   1
  -6 -10  -4 872.590 67.0300   1
   6 -10   4 768.610 43.9000   1
   6 -10   4 520.080 37.8000   1
  -5  -8   5 3819.65 76.0400   1
   5  -8   5 3666.62 75.9400   1
   5  -8  -5 3565.98 93.9500   1
  -5  -8  -5 3286.29 103.900   1
   5  -8  -5 3913.21 97.9000   1
   5  -8  -5 3337.92 73.9800   1
  -5  -8  -5 3740.33 97.3100   1
  -5  -8  -5 3418.22 106.360   1
  -5   8   5 3764.87 84.2200   1
   6   7   5 3432.43 74.3200   1
   6  -7  -5 4194.00 88.6200   1
  -6  -7  -5 4066.60 113.190   1
  -6   7   5 3862.65 84.8600   1
   6  -7   5 4299.36 90.8800   1
  -6  -7  -5 3538.03 97.5600   1
   0  -6   6 161.860 27.1300   1
   0   6   6 108.590 23.4900   1
   0  -6  -6 156.100 24.1700   1
   0  -6   6 184.230 26.2000   1
   0  -6  -6 174.360 26.7600   1
   0  -6  -6 191.710 23.1800   1
   0  -6  -6 157.970 23.3800   1
   4  14   2 2913.18 68.7900   1
  -4 -14   2 2439.06 62.1800   1
   4 -14  -2 2438.86 66.0200   1
  -4 -14  -2 2254.53 66.1800   1
   4  14   2 2329.45 107.140   1
   4 -14  -2 2560.87 65.5200   1
   4 -14  -2 2376.37 75.6300   1
   4 -14   2 2738.00 71.0800   1
   4 -14  -2 2538.54 68.4700   1
   4 -14   2 2697.33 86.7800   1
   4  14  -2 2752.37 66.5000   1
  -4 -14   2 2693.97 88.1900   1
  -4 -14  -2 2971.90 88.6400   1
   4 -14   2 2914.18 71.3000   1
  -6 -13   2 680.470 36.6800   1
   6 -13  -2 620.020 33.6300   1
   6  13   2 494.540 27.0600   1
   6  13  -2 356.940 18.9000   1
  -6 -13  -2 619.900 37.2600   1
   6 -13  -2 432.710 27.7700   1
   6 -13  -2 558.750 30.5200   1
   6 -13   2 704.330 40.3600   1
   6 -13  -2 531.750 38.8500   1
  -6  13   2 552.530 28.5100   1
   6 -13   2 565.910 35.9400   1
  10  -9  -2 4905.28 98.3000   1
 -10  -9  -2 6024.29 127.450   1
 -10   9   2 4856.18 80.5000   1
  10   9   2 5343.61 84.1100   1
  10  -9   2 4814.57 101.440   1
  13   3   0 3420.54 76.7100   1
  13  -3   0 2943.76 73.1800   1
   1  -6   6 2800.85 86.9400   1
  -1  -6   6 2770.82 82.7900   1
   1  -6   6 2475.00 72.1300   1
  -1   6   6 2208.96 66.3400   1
   1   6   6 3008.95 99.5800   1
  -1  -6  -6 2035.42 78.9300   1
  -1  -6  -6 2629.47 87.3900   1
   1  -6  -6 2108.55 70.6800   1
   1  -6  -6 3016.88 84.1600   1
  -1  -6  -6 2391.89 82.9900   1
   1  -6  -6 2802.28 77.1600   1
  -1  -6  -6 2448.48 68.0500   1
  -1   6  -6 2361.63 69.8200   1
  -1  -6   6 2639.69 69.9800   1
  -3   5   6 149.600 28.3200   1
  -3  -5   6 160.990 25.3300   1
   3   5   6 47.9900 11.1300   1
  -3  -5   6 230.590 36.7000   1
   3  -5   6 147.920 22.0700   1
  -3  -5  -6 149.030 25.0000   1
   3  -5  -6 162.140 30.6300   1
  -3   5  -6 133.860 19.7800   1
   3  -5  -6 176.910 23.6700   1
  -3  -5  -6 188.690 28.8700   1
  -3  -5  -6 131.240 22.6600   1
   3  -5  -6 183.260 24.2000   1
   3  -5   6 102.180 26.1900   1
   3   5   6 215.050 34.6000   1
   7 -13   1 114.380 21.6800   1
   7 -13  -1 131.430 19.9400   1
  -7 -13   1 56.9100 24.4800   1
  -7 -13  -1 64.1200 23.3500   1
   7 -13   1 92.6600 22.1600   1
   7 -13  -1 96.0200 22.7900   1
   7 -13  -1 82.4600 23.0800   1
   7 -13  -1 87.1200 18.1700   1
   7 -13   1 48.2800 11.4700   1
   7  13   1 111.460 24.5900   1
   7  13  -1 136.520 28.0700   1
  13   2  -1 1960.95 57.1600   1
  13   2   1 1910.24 62.7100   1
  13  -2   1 1942.66 56.4000   1
  13  -2   1 2085.24 61.4700   1
  13  -2  -1 1890.10 62.4500   1
   0 -10  -5 4.13000 20.8800   1
   0 -10  -5 -12.920 22.9100   1
   0 -10  -5 0.22000 22.7200   1
   0 -10   5 -14.260 24.0400   1
   0  10   5 1.82000 21.6200   1
   0 -10   5 8.36000 18.5500   1
   0 -10  -5 21.1900 22.1400   1
   0  10  -5 1.27000 9.61000   1
   4  13   3 69.4900 13.6600   1
  -4  13   3 76.3400 15.7800   1
   4  13   3 93.2400 24.6500   1
   4 -13  -3 118.730 22.0300   1
   4 -13  -3 107.770 25.7500   1
   4 -13  -3 122.130 27.3300   1
  -4 -13  -3 116.200 23.6700   1
   4 -13   3 115.430 20.0900   1
   4 -13   3 152.350 27.4600   1
  -4 -13  -3 94.3200 22.1000   1
   4  13  -3 102.010 21.1200   1
  -4 -13   3 102.600 31.4800   1
   4 -13  -3 91.5000 19.1200   1
 -11   5   3 7044.33 110.230   1
  11  -5   3 6041.04 103.760   1
  11  -5  -3 6971.38 133.550   1
  11  -5  -3 6355.21 119.210   1
  11   5  -3 6179.48 99.3600   1
 -11  -5   3 6303.05 100.310   1
   4  -4  -6 1125.42 46.5400   1
  -4  -4  -6 1013.17 49.3500   1
  -4   4  -6 1061.14 56.0000   1
  -4  -4  -6 949.000 51.4400   1
  -4  -4  -6 918.360 52.4200   1
  -4   4   6 1385.61 47.7000   1
   4  -4   6 1247.96 49.8900   1
  -4  -4   6 1214.49 56.1200   1
  -4  -4   6 1413.04 53.3700   1
   4  -4  -6 1219.00 44.5000   1
  -8  -8  -4 3837.51 127.800   1
   8  -8  -4 4060.70 92.1000   1
  -5  -2  -6 525.700 31.8600   1
  -5   2  -6 483.810 33.9800   1
  -5  -2  -6 456.540 34.9200   1
  -5   2   6 596.910 33.7100   1
  -5  -2   6 539.300 30.2400   1
   5   2   6 343.120 28.5000   1
   5  -2   6 397.200 29.6400   1
   5   2   6 304.310 25.2000   1
  -5  -2  -6 652.410 34.0500   1
   5  -2  -6 601.820 34.3500   1
  -5  -2  -6 534.130 48.7700   1
  -3 -15  -1 8838.77 147.090   1
  -3 -15   1 10294.4 167.580   1
   3  15   1 9312.83 131.750   1
   3 -15  -1 9918.64 165.050   1
   3 -15   1 9530.15 126.250   1
   3 -15  -1 9566.26 146.770   1
   3 -15   1 9572.24 137.720   1
   3 -15  -1 10027.5 157.490   1
  10  10   1 1398.41 44.1600   1
  10  10  -1 1450.30 41.5400   1
  10 -10   1 1305.41 50.5400   1
 -10 -10  -1 1438.28 50.3300   1
  10 -10  -1 1375.59 55.1700   1
  10 -10  -1 1283.98 51.1100   1
 -10 -10  -1 1363.76 45.8000   1
 -10 -10   1 1494.78 46.7000   1
  10 -10   1 1631.45 85.2100   1
   1 -10   5 9740.40 153.930   1
  -1 -10   5 9679.27 191.790   1
   1  10   5 8088.82 141.650   1
  -1 -10  -5 9810.95 157.440   1
  -1 -10  -5 9280.49 184.570   1
   1 -10  -5 9320.77 173.400   1
  -9   9   3 425.770 26.7700   1
   9   9   3 331.310 22.2600   1
   9   9  -3 335.220 20.9500   1
   9  -9   3 306.100 32.5600   1
  -9  -9  -3 467.360 39.1300   1
   9  -9   3 220.710 22.0600   1
   9  -9  -3 357.240 29.2600   1
   9  -9  -3 391.890 25.9200   1
  -9  -9  -3 435.910 28.9100   1
  -9  -9   3 237.360 22.4600   1
  -9   9  -3 160.830 21.8200   1
  10   4   4 810.710 38.3500   1
  10  -4   4 772.350 38.3600   1
  10   4  -4 843.130 32.7800   1
  10  -4  -4 813.650 43.5000   1
 -10   4   4 822.850 33.9600   1
  10  -4  -4 756.590 37.4300   1
 -10  -4   4 756.970 30.2800   1
  -6  12   3 135.140 28.2600   1
   6 -12  -3 90.8200 27.9600   1
   6 -12  -3 79.4800 30.3300   1
   6 -12  -3 193.750 25.1800   1
   6 -12   3 107.430 22.8400   1
   6 -12   3 195.230 32.7000   1
  -6 -12  -3 98.9600 29.1800   1
   6  12   3 138.020 19.2500   1
   6 -12  -3 64.7200 23.1700   1
   6  12  -3 132.990 30.0200   1
  -4  -9  -5 392.260 30.5000   1
  -4  -9  -5 424.060 40.3500   1
   4  -9  -5 406.950 38.7700   1
  -4   9   5 573.060 39.1100   1
  -4  -9   5 454.500 31.2500   1
   4   9   5 369.100 31.5500   1
   4   9   5 423.370 45.2300   1
  -4  -9   5 607.760 52.2600   1
   4  -9   5 456.470 34.4000   1
  -4  -9  -5 562.090 49.2100   1
   4  -9  -5 483.770 36.6300   1
   4  -9  -5 438.770 35.0900   1
   7  -6  -5 7576.19 123.610   1
   7   6  -5 6433.07 90.1500   1
   7   6   5 6601.35 127.230   1
  -7  -6  -5 7659.19 153.010   1
  -7  -6  -5 7083.91 94.6400   1
   6 -14   0 5227.21 129.490   1
  -6 -14   0 5756.33 93.7500   1
   6 -14   0 5997.29 111.020   1
   6  14   0 5447.47 80.9700   1
   6 -14   0 4903.30 117.370   1
   6 -14   0 5246.63 84.8200   1
  12  -5   2 830.050 45.7400   1
  12  -5  -2 892.500 46.9400   1
 -12  -5  -2 865.600 47.5700   1
  12  -5  -2 661.760 35.3700   1
  12   5  -2 965.300 42.9900   1
  12   5   2 1000.10 45.7400   1
  12  -5  -2 1029.78 59.2200   1
  -8  -4  -5 1784.59 72.2800   1
  -8   4   5 2237.14 51.2500   1
  -8  -4   5 2315.76 56.6200   1
   8   4   5 2269.63 67.6000   1
   8  -4  -5 2288.94 67.2700   1
   8  -4   5 1947.06 58.7500   1
   8  -4  -5 1629.09 60.1100   1
   8   4  -5 2117.89 53.0700   1
  -8   4  -5 1780.52 77.8700   1
   2  -6   6 823.440 49.9000   1
   2   6   6 842.620 56.0000   1
  -2  -6  -6 551.510 44.0600   1
  -2   6   6 761.020 43.3000   1
  -2  -6   6 672.350 38.1100   1
  -2  -6   6 693.240 43.1900   1
   2  -6   6 933.400 50.4700   1
  -2   6  -6 449.050 30.3300   1
   2  -6  -6 548.980 35.6100   1
  -2  -6  -6 547.170 43.9300   1
   2  -6  -6 603.210 43.1700   1
  -2  -6  -6 504.620 40.8800   1
   2  -6  -6 630.960 41.4600   1
   2  -6  -6 588.010 44.1800   1
   5 -11  -4 1797.12 63.0900   1
   5 -11  -4 1536.52 76.9800   1
   5 -11   4 1854.02 57.7100   1
  -5 -11   4 2147.37 55.3200   1
   5  11   4 1868.03 49.9500   1
   5  11  -4 2250.74 58.7000   1
   5 -11   4 2101.10 61.5200   1
  -5  11   4 2008.95 57.0600   1
   5 -11  -4 2443.28 73.5200   1
  -5 -11  -4 2138.12 94.4100   1
   4  15   0 1271.75 47.0900   1
   4 -15   0 1273.58 51.5500   1
  -4 -15   0 1166.52 46.1000   1
   4 -15   0 1135.80 47.2900   1
  -4 -15   0 1279.84 53.5500   1
   4 -15   0 1062.98 49.6300   1
   4 -15   0 1016.19 44.2500   1
  12   7   0 15840.7 130.590   1
  13   3   1 582.880 37.5000   1
  13  -3  -1 747.750 45.8100   1
  13  -3   1 717.380 40.3300   1
  13   3  -1 758.180 40.6400   1
 -13  -3  -1 646.060 43.8200   1
  13  -3   1 601.310 36.7300   1
  13  -3  -1 753.530 44.4200   1
   0 -14   3 16.1400 29.9500   1
   0 -14   3 16.5500 29.8800   1
   0 -14  -3 4.90000 25.0000   1
   0  14   3 13.3700 26.4000   1
   0 -14  -3 -7.5000 26.9200   1
   0 -14  -3 -6.7700 25.1000   1
   0 -14   3 -1.0100 24.5500   1
   0 -14  -3 15.7400 27.9600   1
   0 -14  -3 -5.2800 33.1200   1
   3 -12  -4 15135.6 179.070   1
   3  12   4 15915.0 160.870   1
  -3  12   4 14153.6 173.330   1
   3 -12  -4 15140.2 210.180   1
  -3 -12  -4 15781.0 187.420   1
  -3 -12  -4 13904.8 198.550   1
   3 -12   4 13904.3 147.870   1
 -11  -9   0 6818.88 105.170   1
   2 -10  -5 896.120 46.9300   1
  -2 -10  -5 687.300 50.1300   1
   2 -10   5 643.270 40.9200   1
  -2 -10   5 830.180 52.6700   1
  -2 -10   5 530.290 50.7700   1
  -2  10   5 715.520 46.9800   1
   2  10   5 833.190 61.0400   1
   2 -10   5 704.390 55.3300   1
   2 -10  -5 784.910 41.3800   1
   2 -10  -5 652.190 41.4200   1
  -2 -10  -5 626.590 46.5600   1
   2 -10  -5 642.370 46.7500   1
  -2 -10  -5 685.180 39.6900   1
   0 -15   2 17.1700 34.6300   1
   0 -15  -2 -16.600 28.1600   1
   0 -15  -2 -10.530 34.1200   1
   0 -15   2 -14.310 30.2600   1
   0 -15  -2 -0.5800 30.3000   1
   0 -15   2 -18.590 28.8500   1
   0 -15  -2 -10.290 26.0000   1
   0  15   2 -1.6400 22.8200   1
  -5  -3  -6 2286.65 53.4900   1
   5  -3  -6 2594.21 68.6100   1
  -5  -3  -6 2676.89 84.9700   1
  -5  -3  -6 1999.15 81.6200   1
   5   3   6 2421.39 96.5400   1
   5  -3   6 2411.99 72.2800   1
  -5   3  -6 2361.49 77.6700   1
  13   4   0 109.900 30.0200   1
  13  -4   0 147.780 30.3800   1
  13  -4   0 47.8900 28.9500   1
   1 -14  -3 961.480 54.3900   1
   1 -14  -3 846.210 47.3900   1
  -1 -14  -3 759.510 40.0700   1
  -1 -14   3 1168.99 46.8100   1
   1 -14  -3 1079.53 61.3200   1
   1 -14   3 1050.74 48.7100   1
   1 -14  -3 1100.22 44.0800   1
  -1 -14   3 1326.11 58.9500   1
   1 -14   3 893.760 40.8200   1
  -1 -14   3 1079.40 47.9500   1
  -1 -14  -3 971.570 61.8800   1
  -1 -14  -3 1077.09 54.8400   1
   1 -14   3 1150.90 50.8900   1
   1  14   3 832.930 53.9900   1
   1 -14  -3 1008.22 58.1300   1
   1 -15  -2 8391.33 165.400   1
   1 -15  -2 9427.37 165.120   1
   1 -15  -2 9375.96 126.340   1
  -1 -15   2 8926.58 133.030   1
   1 -15  -2 8733.86 128.500   1
  -1 -15  -2 9758.33 147.790   1
   1 -15   2 8975.26 117.330   1
 -12   0   3 1828.61 48.8300   1
  12   0  -3 2297.36 64.3300   1
  12   0   3 2327.78 72.4000   1
 -12  -1   3 28.9800 25.9300   1
  12  -1  -3 46.6500 28.2300   1
  12  -1   3 31.6100 30.9800   1
  12  -1   3 25.5700 30.6400   1
  12   1  -3 26.5900 26.7600   1
  12   1   3 15.2000 29.3900   1
 -12   1   3 18.9300 27.3800   1
  12   1   3 2.54000 30.3400   1
   6  14  -1 2754.66 58.3000   1
   6 -14  -1 3251.14 88.6600   1
   6 -14   1 3110.80 73.8800   1
   6  14   1 3312.57 65.4100   1
   6 -14  -1 2610.89 88.0000   1
   6 -14   1 2459.32 87.3100   1
   6 -14  -1 3244.95 70.0100   1
   6 -14  -1 2980.16 92.2500   1
   6 -14   1 3442.64 95.4600   1
  -6 -14  -1 3025.39 70.3400   1
  -9  -7  -4 1759.68 94.1400   1
   9   7  -4 2554.60 53.3900   1
   9  -7   4 2705.69 75.3500   1
   9  -7  -4 2780.58 76.6100   1
  -9  -7   4 2629.37 59.9500   1
   9  -7  -4 2143.44 74.1400   1
   9   7   4 2718.80 63.8800   1
  -9   7   4 2467.75 57.6500   1
   4   5   6 10710.3 174.320   1
   4  -5  -6 10734.2 136.780   1
  -4   5  -6 10201.0 179.270   1
  -4  -5  -6 10780.5 133.780   1
  -4  -5  -6 9630.49 160.090   1
   2  14   3 4069.19 125.770   1
   2 -14  -3 4421.84 115.710   1
   2 -14  -3 4757.24 88.5800   1
   2 -14   3 4088.24 79.3500   1
  -2 -14  -3 4604.31 110.070   1
   2 -14  -3 5117.20 122.620   1
   2 -14   3 4820.35 87.0600   1
  -2 -14  -3 4458.91 98.8300   1
   2 -14   3 4978.78 90.7900   1
  -2 -14  -3 4898.64 105.900   1
   2 -14  -3 4020.12 100.270   1
  -2 -14   3 4101.53 101.720   1
   2 -14  -3 4833.66 144.110   1
  10   8  -3 1200.12 35.5700   1
  10  -8  -3 1578.17 61.4600   1
  10   8   3 1554.90 49.3000   1
 -10  -8  -3 1261.70 56.1900   1
  10  -8   3 1293.24 41.8200   1
  10  -8  -3 1370.06 50.6300   1
 -10   8   3 1226.42 39.1600   1
   4 -15   1 1657.13 49.2900   1
   4 -15   1 1346.02 49.1900   1
  -4 -15  -1 1359.57 52.2300   1
   4 -15  -1 1321.99 47.6000   1
  -4 -15   1 1990.71 70.7400   1
  -4 -15  -1 2000.41 68.1400   1
  -4 -15  -1 1250.97 49.9600   1
  -4 -15   1 1406.45 48.0300   1
   4 -15  -1 1509.10 51.4100   1
   4 -15   1 1797.58 58.9700   1
   4 -15  -1 1710.47 67.0900   1
  12  -7  -1 2176.52 66.1500   1
  12  -7   1 1980.65 56.9400   1
 -12  -7  -1 2099.05 67.2200   1
  12  -7  -1 2068.78 79.9700   1
  12   7   1 1935.43 52.2300   1
  12   7  -1 1869.33 46.3400   1
  -3  -6  -6 12924.2 183.420   1
   3  -6  -6 14092.4 186.770   1
   3  -6   6 13456.0 151.590   1
   3  -6  -6 13345.6 150.210   1
   3  -6   6 13210.6 181.530   1
  -3   6  -6 13347.2 138.000   1
  11  -9  -1 1360.72 49.6200   1
  11  -9   1 1346.84 45.4700   1
  11   9   1 1332.97 41.8500   1
 -11  -9  -1 1123.51 46.9500   1
   5  14   2 2753.57 58.7100   1
   5 -14  -2 2250.58 64.1500   1
   5 -14   2 2837.63 83.4800   1
   5 -14  -2 2437.13 54.3900   1
   5 -14  -2 2582.83 82.7300   1
  -5 -14   2 3159.72 74.3400   1
   5 -14  -2 3065.40 86.0400   1
  -5 -14  -2 2740.02 76.5900   1
   5 -14   2 2969.91 74.1500   1
  -5 -14  -2 2397.28 98.6600   1
  11  -8  -2 8014.53 124.590   1
  11  -8   2 7503.59 127.690   1
 -11  -8  -2 7676.10 123.280   1
 -11   8   2 8538.94 107.930   1
  12   2  -3 5776.51 88.9200   1
  12  -2  -3 5394.46 88.5200   1
 -12   2   3 5715.76 89.7100   1
  12  -2   3 5179.48 101.910   1
 -12  -2   3 5104.25 75.0800   1
  -2  15   2 655.740 52.1100   1
   2  15   2 930.640 45.7500   1
  -2 -15   2 887.560 44.8000   1
   2 -15  -2 902.690 55.6100   1
   2 -15   2 896.560 46.0400   1
  -2 -15   2 771.510 40.1300   1
   2 -15   2 939.380 45.7900   1
   2 -15  -2 964.710 47.3200   1
   2 -15   2 826.540 39.9700   1
   2 -15  -2 902.420 42.6600   1
  -2 -15   2 905.210 49.4100   1
  -2 -15  -2 884.700 49.7300   1
  -2 -15  -2 1064.15 56.0700   1
   2 -15  -2 884.360 46.8200   1
   2 -15  -2 660.480 41.3100   1
  10  -5  -4 9017.34 127.610   1
 -10  -5   4 8498.88 103.090   1
  10  -5  -4 8650.86 136.230   1
  -9   0   5 -3.1200 27.3300   1
   9   0  -5 -5.5300 28.5700   1
  -9   0  -5 7.39000 24.9900   1
   9   0   5 -9.3300 27.1800   1
   9   0  -5 15.1000 24.2400   1
   9   0   5 9.96000 27.7500   1
  11  -6  -3 276.420 31.3900   1
 -11  -6  -3 290.780 36.9700   1
  11  -6  -3 482.220 41.7300   1
 -11   6   3 418.570 35.1500   1
  11   6   3 379.850 34.5300   1
  11   6  -3 371.730 31.3000   1
  11  -6   3 300.380 31.1300   1
   0  -7  -6 -0.8000 30.6400   1
   0  -7  -6 17.1600 26.2900   1
   0  -7   6 -4.8600 25.3300   1
   0  -7  -6 -9.9400 26.7500   1
   0  -7   6 15.4100 30.5900   1
   0  -7  -6 -6.2200 29.1200   1
   0   7   6 -10.790 29.3900   1
  13   4  -1 3741.25 67.3300   1
  13  -4  -1 3521.48 71.2000   1
  13  -4   1 3923.24 95.1300   1
  13  -4  -1 3293.66 76.3500   1
 -13  -4  -1 2900.44 71.9000   1
   6   0   6 4743.20 124.810   1
   6   0   6 4191.02 102.810   1
  -6   0  -6 4452.08 106.620   1
   3  10   5 830.610 58.1700   1
  -3 -10   5 632.070 44.2000   1
   3  10   5 545.650 37.7600   1
  -3 -10   5 897.120 54.8500   1
   3 -10   5 1049.70 54.9100   1
  -3 -10  -5 794.320 51.4400   1
   3 -10  -5 834.950 53.1800   1
  -3  10   5 791.300 50.9900   1
   3 -10   5 393.380 58.2500   1
   3 -10  -5 603.200 43.7700   1
  -3 -10  -5 652.940 47.1000   1
  -3 -10  -5 755.360 43.6000   1
   3 -10  -5 854.310 45.7000   1
   3 -10  -5 732.690 47.1600   1
   9  -1   5 4133.91 97.0500   1
   9   1  -5 3992.82 92.6300   1
   9  -1  -5 3535.49 91.0500   1
   9   1   5 4044.90 93.0500   1
  -9   1   5 4652.88 78.8900   1
  -9  -1  -5 3577.83 95.1300   1
   9   1   5 3643.30 85.6200   1
   5  13   3 2017.59 59.2300   1
   5 -13  -3 1556.20 62.2200   1
  -5  13   3 1806.35 77.4800   1
   5  13   3 1318.20 71.8300   1
  -5 -13  -3 2025.46 85.3700   1
  -5 -13   3 1755.94 69.6700   1
   5  13  -3 1850.42 50.1000   1
   5 -13  -3 1736.30 74.7200   1
   5 -13   3 2100.28 74.2500   1
   5 -13   3 2027.31 73.7700   1
   5 -13  -3 1793.47 56.1500   1
   5 -13  -3 2106.56 80.9700   1
  -5 -13  -3 1643.86 55.1800   1
  -8 -12  -2 9394.45 143.040   1
  -8 -12  -2 8771.74 153.040   1
   8 -12  -2 9895.85 140.320   1
   8 -12  -2 9529.12 132.790   1
   1  -7  -6 103.830 34.2000   1
  -1  -7  -6 154.000 28.7800   1
   1  -7  -6 163.720 39.6700   1
  -1  -7  -6 146.550 31.3100   1
  -1   7  -6 155.800 27.6400   1
   1  -7  -6 151.450 31.7000   1
  -1  -7  -6 171.300 34.1200   1
   1  -7  -6 135.570 36.2100   1
   1  -7   6 158.450 32.9900   1
  -1  -7   6 190.850 35.7000   1
  -1   7   6 145.900 34.0400   1
  -1  -7   6 170.960 30.2200   1
   1   7   6 126.200 33.0300   1
   1  -7   6 179.680 33.2000   1
  -1  -7  -6 86.6500 33.1700   1
   8  -5  -5 3265.20 89.1300   1
  -8  -5  -5 3264.77 70.1000   1
  -8  -5  -5 2885.34 99.0700   1
  -8   5   5 2849.28 64.7100   1
   8   5   5 2805.51 70.1800   1
   8   5  -5 3075.48 59.7800   1
   8  -5   5 3093.62 74.2800   1
   9  11   2 2364.27 52.9000   1
   9  11  -2 2146.31 46.3100   1
   9 -11   2 2667.45 75.8000   1
   9 -11  -2 2105.37 63.7300   1
  -9 -11  -2 2217.19 76.7800   1
  -9 -11  -2 1970.49 51.0300   1
  -9  11   2 2113.94 53.2400   1
 -13   0  -2 -7.5300 23.3100   1
  13   0   2 22.6000 29.4800   1
  13   0  -2 6.27000 26.0100   1
  13   0   2 9.89000 30.3600   1
  -6  -1  -6 194.910 30.5400   1
  -6  -1  -6 217.350 32.6800   1
  -6   1  -6 148.660 26.9900   1
  -6  -1  -6 90.9300 25.7900   1
   6  -1  -6 235.730 31.2100   1
  -6  -1  -6 176.280 31.1400   1
  -6   1  -6 176.110 31.5700   1
  -6   1   6 225.580 30.2000   1
  -6  -1   6 256.930 31.7800   1
   6   1   6 155.530 27.7600   1
   6  -1   6 218.430 29.9900   1
   6   1   6 202.660 29.5000   1
   6   1  -6 262.560 36.8200   1
  -9 -12   0 4272.57 92.7900   1
   9 -12   0 3497.18 87.0300   1
   6  -8  -5 386.100 34.8400   1
  -6  -8  -5 371.800 40.3300   1
   6  -8   5 413.920 38.1900   1
  -6   8   5 304.410 30.9200   1
   6   8  -5 310.310 29.0500   1
   6  -8  -5 325.040 35.0200   1
   6   8   5 283.260 32.2400   1
   6  -8  -5 212.010 31.4800   1
  -6  -8   5 361.090 30.1500   1
  -6  -8  -5 343.930 39.7900   1
   6  -8  -5 315.760 34.0400   1
   0 -16   0 6412.58 131.180   1
   0 -16   0 5770.00 92.0800   1
   0 -16   0 7154.68 130.880   1
  13  -1   2 8797.36 131.010   1
  12  -6  -2 1461.02 53.6300   1
 -12  -6  -2 1201.68 48.9700   1
  12   6  -2 1410.18 46.5200   1
  12  -6   2 1474.85 58.1300   1
  12   6   2 1381.33 42.7200   1
  -4 -12   4 1404.16 44.5800   1
   4 -12   4 1717.05 59.1000   1
  -4 -12  -4 1173.77 79.7900   1
   4  12  -4 1702.92 52.4200   1
   4  12   4 1163.26 38.1600   1
   4  12   4 1435.83 74.3500   1
  -4  12   4 1164.22 54.1500   1
   4 -12  -4 1205.31 61.7000   1
  -4 -12  -4 1722.74 74.4800   1
   4 -12  -4 1477.93 66.6800   1
   4 -12  -4 1564.11 49.9300   1
   4 -12  -4 1834.98 71.8800   1
   4 -12   4 1158.51 43.8800   1
  -8 -13   0 903.690 41.6300   1
   8 -13   0 1094.12 60.0500   1
   8 -13   0 1302.80 46.5100   1
  11   0   4 18.8700 29.6300   1
 -11   0   4 -11.860 25.5800   1
  11   0   4 26.0300 28.6000   1
  11   0  -4 -6.5800 29.9600   1
  -1 -16   0 2035.58 55.5500   1
   1 -16   0 1599.44 56.3100   1
  -1 -16   0 1789.26 59.5700   1
   1 -16   0 1758.33 53.8800   1
   1 -16   0 2017.11 70.3400   1
  -1 -16   0 2151.38 68.6900   1
  13   5   0 2738.56 62.0500   1
  -5  -9   5 1181.71 57.9300   1
   5  -9  -5 1036.42 52.6500   1
  -5  -9  -5 880.310 54.5200   1
   5  -9   5 902.720 43.0600   1
   5   9  -5 1247.73 45.6300   1
   5   9   5 694.020 42.3600   1
  -5  -9   5 1070.82 49.3500   1
  -5   9   5 1158.45 43.9200   1
   5  -9  -5 1025.73 61.0300   1
  -5  -9  -5 973.880 62.6000   1
  -5  -9  -5 1056.15 55.5100   1
   5  -9  -5 1128.87 44.5900   1
  -9  -2  -5 453.370 41.6800   1
   9   2  -5 704.700 40.4700   1
   9  -2  -5 511.580 37.9300   1
   9   2   5 577.980 43.7400   1
  -9  -2   5 631.740 36.0200   1
  -9   2   5 660.590 36.3500   1
   9  -2  -5 602.410 42.9400   1
  -9   2  -5 361.260 42.6200   1
   9   2   5 655.260 45.1200   1
   9  -2   5 678.110 46.0900   1
  -6  -2  -6 7538.50 195.810   1
  -6   2   6 7623.58 99.1000   1
   6   2   6 6991.58 138.850   1
   6  -2   6 7824.42 145.670   1
  -6   2  -6 7504.16 142.040   1
  12   3   3 2646.26 67.0700   1
  12   3  -3 2354.27 54.2500   1
  12  -3  -3 2214.04 60.3800   1
 -12  -3   3 2474.74 57.0100   1
  12  -3   3 2785.44 72.0500   1
   7 -10  -4 1665.20 70.3100   1
   7 -10   4 1511.16 52.1400   1
   7  10  -4 1225.50 36.2600   1
   7  10   4 1704.07 51.9300   1
  -7  10   4 1573.37 47.2100   1
  -7 -10  -4 1345.55 66.5400   1
  -7 -10   4 1680.55 50.0800   1
   7 -10  -4 1324.95 55.4300   1
   7 -10  -4 1549.37 59.6000   1
   7 -10  -4 1575.25 51.4900   1
  11   1   4 94.5100 32.0200   1
  11  -1   4 113.100 27.3500   1
  11   1  -4 122.570 28.8000   1
  11  -1  -4 101.980 27.1600   1
  11   1   4 120.150 30.5600   1
  11  -1   4 140.640 34.6300   1
  11  -1  -4 135.220 29.9100   1
 -11   1  -4 62.8100 23.6600   1
 -11   1   4 111.430 27.4300   1
 -11  -1   4 119.060 28.6300   1
   7  -7   5 169.920 29.6800   1
   7  -7  -5 122.100 26.1700   1
  -7  -7   5 195.430 29.2700   1
   7   7   5 186.570 27.5400   1
  -7   7   5 211.790 29.9000   1
  -7  -7  -5 185.330 32.7800   1
  -7   7  -5 105.910 27.2100   1
  -7  -7  -5 167.440 29.4600   1
   7   7  -5 176.840 25.6600   1
   7  -7  -5 187.350 33.4000   1
  -7  -7  -5 150.800 31.0100   1
 -10 -11   0 6795.73 94.0900   1
 -10 -11   0 7378.34 115.430   1
  10 -11   0 6862.03 146.950   1
  10 -11   0 7178.50 124.920   1
   7 -13  -2 8278.62 125.900   1
  -7 -13  -2 8353.37 158.520   1
  -7 -13   2 8215.63 117.960   1
   7 -13   2 9214.77 137.250   1
   7 -13   2 7240.18 177.580   1
   7 -13  -2 8188.03 110.680   1
   7  13   2 8844.93 97.2800   1
   7  13  -2 8591.14 102.510   1
  -2   7  -6 8937.16 130.990   1
  -2   7   6 9699.59 127.330   1
  -2  -7   6 9644.07 133.320   1
   2  -7   6 10459.6 163.310   1
   2  -7  -6 10629.6 152.650   1
  13   2   2 287.170 36.5200   1
 -13  -2  -2 146.480 27.2300   1
  13   2  -2 381.260 38.7500   1
  13  -2   2 269.030 31.5300   1
  13  -2   2 389.150 35.7600   1
  13  -2  -2 313.810 33.3600   1
   5  15   0 2659.94 59.3000   1
  -5 -15   0 2921.18 80.0300   1
   5 -15   0 2723.45 88.5600   1
   5 -15   0 2452.99 61.1300   1
   5 -15   0 2486.56 78.2600   1
  -5 -15   0 2677.77 72.5000   1
   5 -15   0 2925.01 76.2700   1
  -3 -14  -3 209.090 35.7600   1
   3 -14   3 304.840 31.5600   1
   3 -14  -3 268.850 34.0800   1
   3 -14   3 279.500 36.6500   1
  -3 -14   3 297.710 43.7500   1
   3 -14  -3 182.720 34.7200   1
   3 -14  -3 251.600 30.8100   1
   3  14   3 243.420 35.5900   1
  -3  14   3 263.020 35.1500   1
   3  14  -3 266.910 30.2000   1
   3  14   3 330.670 32.7200   1
   3 -14  -3 289.890 34.6900   1
   3 -14   3 249.010 28.4700   1
   3 -14  -3 252.730 34.4800   1
  -3 -14  -3 281.500 38.7600   1
  -3 -14   3 434.260 41.3700   1
  -3 -14   3 322.260 33.9800   1
   0  13   4 11.4900 28.3100   1
   0 -13   4 -14.310 33.7000   1
   0 -13  -4 0.75000 24.2100   1
   0 -13  -4 10.1700 27.3700   1
   0 -13  -4 -16.090 30.4300   1
   0 -13   4 0.28000 23.3400   1
   0 -13  -4 2.52000 28.0500   1
   0 -13  -4 -6.8600 30.3500   1
   0 -13   4 8.88000 29.0200   1
  -8   9   4 2853.28 62.6200   1
  -8  -9   4 2735.37 61.1700   1
   8  -9  -4 2788.02 78.6300   1
  -8  -9  -4 2863.92 98.7900   1
   8  -9  -4 2558.58 78.5200   1
  -8  -9  -4 2342.27 57.9300   1
   8   9   4 2461.64 73.5800   1
   3 -15   2 296.100 37.0900   1
  -3 -15   2 264.190 39.0900   1
   3 -15  -2 211.870 30.1000   1
   3 -15  -2 276.300 31.5500   1
   3 -15   2 354.250 40.5100   1
  -3 -15  -2 278.910 37.0900   1
   3  15  -2 274.880 30.0100   1
   3  15   2 228.820 29.3000   1
  -3  15   2 168.790 25.7500   1
   3  15   2 180.900 31.1600   1
   3 -15  -2 145.900 29.6100   1
   3 -15   2 266.730 30.8000   1
   3 -15  -2 272.050 34.1800   1
   3 -15  -2 271.100 35.4500   1
  -3 -15   2 261.040 31.9100   1
  -3 -15  -2 264.460 39.4800   1
   8  11   3 1857.66 55.6600   1
  -8  11   3 1386.72 37.3600   1
   8  11  -3 1610.72 44.4800   1
   8 -11   3 1661.15 57.6900   1
  -8 -11  -3 1863.51 57.5800   1
   8 -11  -3 1452.25 67.0300   1
   8 -11  -3 1740.77 70.2900   1
  -8 -11  -3 1467.14 68.7400   1
 -10 -10  -2 21.4100 25.7500   1
 -10 -10   2 32.4500 24.6900   1
  10 -10  -2 33.8900 28.6300   1
  10 -10   2 34.7100 28.6200   1
 -10 -10  -2 36.0300 28.3300   1
  10 -10   2 27.5900 28.4900   1
  10  10  -2 18.4400 32.8200   1
  10  10   2 16.1400 29.1200   1
  10 -10  -2 32.5100 31.4800   1
 -10  10   2 40.6300 26.8800   1
   9 -12   1 1351.87 56.7900   1
   9  12   1 1511.22 48.8900   1
   9  12  -1 1202.99 38.3900   1
  -9 -12  -1 1403.59 50.6500   1
   9 -12   1 1105.63 61.2300   1
   9 -12  -1 1104.46 48.3300   1
   9 -12  -1 1201.15 50.3800   1
  -9 -12  -1 1547.42 51.8100   1
  -9 -12   1 1424.02 50.4700   1
   1  13   4 8618.04 156.770   1
  -1 -13  -4 10092.4 174.080   1
   1 -13  -4 9342.96 157.150   1
   1 -13  -4 8683.65 147.380   1
  -1 -13  -4 8933.51 147.630   1
  -1  13   4 8199.87 176.740   1
  11   2   4 1179.88 45.4600   1
  11  -2  -4 1230.17 47.9800   1
  11   2  -4 1403.52 44.8600   1
  11  -2   4 1348.62 61.6400   1
  11   2   4 1073.66 52.5300   1
 -11   2   4 1066.53 45.0800   1
 -11  -2   4 1138.51 36.9900   1
   6 -11  -4 3104.39 89.2200   1
  -6 -11   4 3506.41 71.3400   1
   6 -11   4 2493.99 80.5700   1
   6 -11   4 3629.87 87.3100   1
  -6 -11  -4 2655.27 94.3200   1
   6 -11  -4 3239.11 98.1000   1
   6 -11  -4 2882.93 64.7200   1
   6 -11  -4 2910.09 81.2200   1
  -6  11   4 3121.27 67.8200   1
  -2 -16   0 235.460 33.0000   1
   2 -16   0 225.490 32.7400   1
   2 -16   0 254.070 34.5900   1
   2 -16   0 291.140 41.1000   1
  -2 -16   0 190.310 33.6600   1
  -2 -16   0 276.750 37.2900   1
   2  16   0 205.680 28.5600   1
   0 -16  -1 -12.080 32.2600   1
   0 -16  -1 3.86000 23.0800   1
   0 -16   1 2.83000 33.6300   1
   0 -16   1 16.0800 30.5900   1
   0 -16  -1 0.10000 29.4600   1
   0 -16   1 -18.110 32.6000   1
   0 -16  -1 6.41000 27.2300   1
   0 -16   1 15.7100 28.4900   1
 -12  -8   0 857.500 43.6200   1
  12   8   0 727.700 34.7600   1
  12  -8   0 908.830 45.7500   1
  12  -8   0 611.160 42.1400   1
  -9   3  -5 3359.20 97.9300   1
  -9  -3  -5 3291.69 83.3400   1
   9   3  -5 3677.00 65.8200   1
   9  -3   5 3883.76 83.8500   1
   9   3   5 3212.38 82.3500   1
   7 -12   3 463.170 37.6800   1
   7 -12  -3 546.390 38.8500   1
   7 -12  -3 562.010 36.2700   1
   7 -12  -3 508.160 44.5100   1
   7  12  -3 532.420 32.8700   1
   7 -12   3 562.320 41.1300   1
  -7  12   3 388.500 29.2800   1
  -7 -12  -3 592.560 47.6100   1
   7  12   3 431.590 29.7200   1
   7 -12  -3 453.980 37.7800   1
   9  10   3 977.630 46.3300   1
  -9  10   3 1041.26 42.0300   1
  -9 -10  -3 1153.65 40.2300   1
   9 -10  -3 1080.11 62.3600   1
  -9 -10  -3 897.550 56.1300   1
   9 -10  -3 1364.51 62.6400   1
   9 -10   3 1365.15 55.0700   1
   9  10  -3 1069.36 44.3200   1
   4   6   6 161.330 33.8300   1
   4  -6   6 194.400 29.9800   1
   4  -6  -6 176.370 30.6200   1
  -4  -6  -6 156.600 33.5300   1
  -4  -6   6 189.280 35.0300   1
   4   6   6 65.7100 22.7600   1
  -4  -6   6 183.710 29.7800   1
   4  -6  -6 201.380 29.5800   1
   4  -6  -6 211.970 35.1800   1
  -4  -6  -6 152.910 29.9700   1
  -4  -6  -6 205.230 32.7100   1
  -4   6   6 174.920 31.2100   1
   8  13  -1 1311.51 37.1100   1
   8  13   1 1556.55 49.4400   1
   8 -13   1 1440.71 72.5300   1
  -8 -13  -1 1653.91 50.3300   1
  -8 -13   1 1806.04 59.8400   1
   8 -13  -1 1320.45 57.3300   1
   8 -13   1 1326.52 48.1800   1
   8 -13  -1 1572.23 57.5300   1
  -1 -16  -1 145.880 36.4500   1
  -1 -16   1 207.400 36.9500   1
   1 -16  -1 102.610 26.2700   1
   1 -16   1 246.140 37.0900   1
   1 -16  -1 172.050 32.6100   1
  -1 -16   1 157.780 30.2400   1
  -1 -16  -1 170.410 33.7400   1
   1 -16  -1 162.510 31.2200   1
  -1 -16  -1 179.580 34.6100   1
   1 -16   1 219.460 38.0500   1
   1 -16  -1 168.820 32.9600   1
  -1 -16   1 142.820 30.4000   1
   1 -16   1 158.550 32.8300   1
  13  -5  -1 863.260 46.8500   1
 -13  -5  -1 952.170 50.4800   1
  13  -5  -1 1274.17 48.7700   1
  13  -5   1 942.510 47.7400   1
  13   5  -1 1033.43 43.3700   1
  13   5   1 967.490 43.8900   1
  13  -5  -1 837.130 42.8800   1
   0 -11  -5 4423.38 105.980   1
   0  11   5 4552.93 97.4300   1
   0 -11  -5 5291.81 96.3100   1
   0 -11  -5 5255.85 117.460   1
   0 -11  -5 4695.46 120.560   1
   0 -11   5 5222.63 103.550   1
   0 -11   5 4652.20 94.7300   1
   6   3  -6 119.290 24.9000   1
   6   3   6 73.1700 24.3500   1
   6  -3   6 94.3400 29.4000   1
   6   3   6 86.6800 26.5400   1
  -6  -3   6 103.840 28.9300   1
  -6   3   6 135.880 29.0400   1
  -6  -3  -6 106.790 26.9600   1
  -6   3  -6 125.490 28.4500   1
  -6  -3  -6 163.220 33.5200   1
  -6  -3  -6 182.480 31.0800   1
   6  -3  -6 191.940 33.2400   1
  -6  -3  -6 68.8400 24.2300   1
   7 -14   0 2820.88 91.0000   1
   7 -14   0 3417.08 86.5400   1
  -7 -14   0 3418.38 76.8800   1
  -5  -5  -6 1002.43 63.8300   1
   5  -5  -6 1164.66 54.7900   1
  -5  -5  -6 1398.20 63.1800   1
  -5   5  -6 1070.96 65.6300   1
  -5  -5  -6 1144.80 66.9600   1
  -5   5   6 1439.22 47.5700   1
  -5  -5   6 1306.36 39.3600   1
   5  -5   6 1337.28 50.2400   1
  -4 -10  -5 2694.85 67.6900   1
   4 -10  -5 3459.09 79.9900   1
  -4 -10  -5 2962.23 97.0000   1
   4 -10   5 3323.71 81.7000   1
   4  10   5 3243.72 120.420   1
   4 -10  -5 3184.06 101.660   1
  -4 -10   5 3028.13 66.8200   1
  -4 -10  -5 2719.86 89.8100   1
  -4  10   5 2488.07 74.1800   1
  13   3  -2 3071.34 65.7900   1
  13   3   2 2683.62 60.3700   1
  13  -3  -2 2750.68 82.6000   1
  13  -3  -2 2418.21 59.6600   1
 -10 -11   1 133.950 30.0200   1
 -10 -11   1 136.930 27.0800   1
 -10 -11  -1 142.400 26.4400   1
 -10 -11  -1 142.140 30.6100   1
  10  11  -1 311.470 36.7200   1
  10  11   1 292.750 31.3100   1
  10 -11  -1 279.720 33.5600   1
  10 -11   1 241.230 32.5400   1
  10 -11  -1 134.460 29.6800   1
  10 -11   1 113.380 27.8900   1
 -10  -6   4 1853.32 47.6100   1
 -10   6   4 1837.51 45.7000   1
  10  -6  -4 2115.60 65.9300   1
  10  -6   4 2134.83 64.8700   1
  10   6   4 1970.23 51.5300   1
  10  -6  -4 2067.21 66.0300   1
   1 -11  -5 1112.82 56.2200   1
  -1 -11  -5 806.500 53.2800   1
  -1 -11  -5 1017.87 64.1300   1
   1 -11  -5 1045.50 59.0600   1
   1 -11  -5 1125.25 45.3900   1
  -1  11   5 1235.55 70.1400   1
   1  11   5 1051.96 65.3400   1
  -1 -11  -5 1172.91 56.4000   1
   1 -11  -5 782.330 48.0300   1
   1 -11   5 973.190 54.0800   1
   1 -11   5 1183.06 52.2900   1
  -1 -11   5 1275.02 59.9500   1
  -1 -11   5 850.240 59.9300   1
   5 -15  -1 5032.09 118.500   1
  -5 -15  -1 4390.66 97.8000   1
   5  15   1 5319.50 89.5300   1
  -5 -15  -1 4489.65 80.7000   1
  -5 -15   1 4628.55 89.1500   1
   5  15   1 3940.46 158.460   1
   5 -15   1 4733.87 104.060   1
   5 -15   1 4861.48 89.5800   1
  -5 -15   1 5188.81 112.650   1
   5 -15  -1 4183.36 102.560   1
   5 -15  -1 5122.14 111.220   1
  12  -4  -3 2713.87 73.5000   1
  12  -4  -3 3187.84 81.5800   1
  12   4   3 3350.37 74.5700   1
  12  -4   3 3204.24 85.9200   1
   2  13   4 6658.96 128.960   1
   2 -13   4 5534.09 199.000   1
  -2 -13   4 7067.54 109.470   1
  -2 -13  -4 6314.87 102.920   1
   2 -13  -4 7119.38 129.980   1
  -2 -13  -4 7371.21 157.720   1
   2 -13  -4 7203.22 135.000   1
  -2 -13  -4 7342.66 155.450   1
  -2  13   4 6224.09 148.640   1
   3   7   6 8.69000 32.3600   1
  -3  -7  -6 28.9100 25.8800   1
   3  -7  -6 34.9200 28.4400   1
   3  -7   6 17.3900 30.2100   1
  -3  -7  -6 24.4200 25.9800   1
  -3  -7   6 21.6800 27.8300   1
   3  -7  -6 33.6500 29.2700   1
   3  -7   6 45.8800 27.4400   1
  -3  -7   6 36.5900 35.9200   1
  -3   7   6 17.4800 30.2000   1
  -8  -6  -5 961.600 66.8600   1
   8  -6   5 1252.32 52.4800   1
   8   6  -5 1050.87 45.9500   1
   8   6   5 1311.56 60.4300   1
  -8   6   5 1089.88 46.0000   1
  -8  -6  -5 1050.47 65.1300   1
   8  -6  -5 1047.67 50.7100   1
  -8   6  -5 720.250 53.6000   1
  -8  -6  -5 1121.53 39.9500   1
   9   8   4 925.090 51.5900   1
  -9   8   4 1075.84 45.4700   1
   9  -8  -4 1058.31 54.2000   1
   9  -8   4 1061.16 55.8600   1
   9   8  -4 1147.06 38.8700   1
  -9  -8   4 1196.37 43.8600   1
  -9  -8  -4 1021.79 44.4700   1
  -9  -8  -4 995.260 54.8900   1
 -11  -3   4 2000.19 51.8300   1
 -11   3   4 1965.42 51.0400   1
  11  -3  -4 1659.58 58.0500   1
  11  -3   4 1871.41 59.6700   1
  11   3  -4 1877.22 52.2200   1
  11  -3  -4 1850.92 63.7400   1
  11   3   4 2040.77 66.1600   1
 -11 -10   0 2106.84 69.1500   1
  11 -10   0 2314.34 65.4000   1
  11   7  -3 321.590 32.2700   1
  11   7   3 270.190 31.0400   1
 -11   7   3 349.040 36.1400   1
  11  -7  -3 249.130 30.6700   1
 -11  -7  -3 238.540 35.6300   1
  11  -7   3 269.500 32.2300   1
  11  -7  -3 329.400 33.5100   1
  -2 -16  -1 9802.72 142.990   1
   2 -16  -1 8449.56 122.970   1
   2 -16  -1 8478.68 129.140   1
   2  16   1 8390.89 105.430   1
  -2 -16   1 9919.57 138.850   1
   2 -16  -1 8625.03 135.280   1
   2 -16   1 9499.66 157.250   1
  -2 -16  -1 9564.53 210.960   1
 -12  -8  -1 267.930 35.6200   1
  12  -8  -1 212.030 29.8300   1
  12  -8   1 180.020 29.8200   1
  12   8   1 249.840 30.6000   1
  12  -8   1 264.680 32.7600   1
  12   8  -1 279.600 30.8100   1
  12  -8  -1 298.400 33.7800   1
   6 -14  -2 6207.24 94.1000   1
   6 -14  -2 6698.07 163.630   1
  -6  14   2 6471.81 126.790   1
  -6 -14  -2 6692.11 136.530   1
  -6 -14   2 6898.10 117.380   1
   6  14   2 6366.35 95.5400   1
   6  14  -2 7018.80 109.010   1
   6 -14   2 6816.96 114.170   1
   6 -14  -2 6374.44 119.430   1
   6 -14  -2 6986.73 144.280   1
   3 -16   0 56.5900 30.2500   1
  -3 -16   0 46.2500 30.8100   1
   3  16   0 20.2800 31.1400   1
   3 -16   0 13.6700 28.5700   1
   3 -16   0 25.3500 30.7300   1
  -3 -16   0 28.0500 33.0900   1
   2  11   5 3153.08 104.880   1
  -2 -11  -5 3279.43 103.310   1
   2 -11  -5 3457.26 116.600   1
  -2 -11  -5 2877.27 72.2600   1
   2 -11  -5 3626.10 99.0600   1
   2 -11  -5 3457.27 87.1900   1
  -2 -11  -5 3503.20 98.1600   1
  -2  11   5 2818.21 81.7300   1
  -2 -11   5 3081.01 87.0600   1
  -2 -11   5 3326.86 78.5300   1
   2 -11   5 2375.88 112.390   1
   0  -8  -6 302.150 35.1400   1
   0  -8  -6 219.380 31.3700   1
   0  -8  -6 190.470 33.5700   1
   0   8   6 292.880 36.3800   1
   0  -8   6 365.930 36.4900   1
   0  -8   6 326.460 34.7500   1
   0  -8  -6 203.770 32.9300   1
   7 -14  -1 1160.92 65.5700   1
   7 -14  -1 1542.73 48.9300   1
   7  14   1 1523.98 43.0000   1
   7 -14   1 1379.73 54.8100   1
  -7 -14  -1 1442.12 54.7000   1
   7 -14  -1 1107.84 50.7500   1
   7 -14  -1 1472.91 65.4200   1
   7 -14   1 1199.47 67.1300   1
  -4 -14  -3 3753.80 127.370   1
  -4  14   3 3304.68 99.7900   1
   4  14   3 3370.86 132.500   1
   4 -14  -3 3799.01 110.300   1
   4 -14  -3 3516.51 82.4000   1
   4 -14  -3 3881.54 104.100   1
  -4 -14  -3 3940.08 102.340   1
   4 -14   3 3555.35 82.2800   1
   4 -14   3 3189.36 70.7700   1
   4  14  -3 3646.38 76.8900   1
   4 -14  -3 3421.81 101.710   1
   4 -14   3 3546.60 70.6300   1
   5 -12   4 1284.97 47.2300   1
   5 -12   4 1097.17 43.4300   1
  -5 -12   4 1463.29 60.6100   1
  -5 -12  -4 756.710 65.5400   1
   5 -12  -4 1032.15 65.5100   1
  -5 -12  -4 1507.46 80.7700   1
   5 -12  -4 1088.01 53.5600   1
   5 -12  -4 1153.54 41.9700   1
   5 -12  -4 1143.16 64.0200   1
   5  12   4 971.450 65.8700   1
  -5  12   4 880.480 42.2900   1
  -5 -12   4 1203.52 43.7400   1
   5  12  -4 1118.71 38.7000   1
   9  -4  -5 907.280 54.6300   1
  -9  -4  -5 966.150 64.1700   1
   9  -4  -5 1479.31 52.5400   1
  -9  -4  -5 1193.87 61.1900   1
  -9   4   5 1222.51 38.9300   1
  -9  -4   5 1321.38 41.4500   1
   9   4   5 1359.00 49.2000   1
   9  -4   5 1352.94 58.3700   1
  14   0   0 10789.2 143.560   1
   6 -13   3 90.4400 30.6800   1
  -6 -13  -3 88.6900 29.4700   1
   6 -13  -3 84.6200 32.6600   1
   6 -13  -3 86.3300 31.9100   1
   6 -13  -3 49.1600 27.3100   1
  -6  13   3 84.1500 25.2800   1
   6  13   3 96.6500 28.6900   1
   6 -13  -3 61.8100 26.8700   1
   6 -13   3 107.450 30.7200   1
   6  13  -3 59.6200 30.1200   1
  10  -9  -3 270.110 31.8800   1
 -10  -9  -3 297.260 31.7100   1
 -10   9  -3 130.270 26.7500   1
  10   9   3 317.640 31.4900   1
  10   9  -3 502.980 43.3600   1
 -10  -9  -3 276.490 33.8500   1
  10  -9   3 321.190 37.6400   1
  10  -9  -3 316.120 35.7200   1
 -10   9   3 370.270 33.7700   1
  -4  15   2 103.590 26.1100   1
   4  15   2 106.880 27.1500   1
   4 -15  -2 146.390 30.9200   1
   4 -15   2 140.560 27.5500   1
   4 -15  -2 169.850 32.8700   1
   4 -15  -2 129.370 32.0800   1
  -4 -15  -2 166.260 35.0700   1
   4 -15  -2 140.290 27.4600   1
   4 -15   2 167.040 31.3300   1
  -4 -15  -2 173.790 34.2600   1
  -4 -15   2 208.440 40.7500   1
   4  15  -2 151.390 38.7600   1
   4  15   2 190.670 30.7100   1
   4 -15   2 189.120 35.1600   1
  -4 -15   2 160.960 29.5300   1
  12  -7  -2 6194.03 112.190   1
  12  -7   2 6175.07 114.550   1
  12   7  -2 6034.05 83.4400   1
   1  -8  -6 3726.23 89.7600   1
   1  -8  -6 4080.39 104.320   1
   1  -8  -6 4818.19 110.790   1
  -1  -8  -6 3642.30 102.180   1
   1  -8  -6 4082.85 113.750   1
  -1   8   6 4515.20 95.1000   1
  -1  -8   6 4605.98 101.970   1
  -1  -8   6 4824.51 104.960   1
   1   8   6 4241.05 96.1800   1
   1  -8   6 4590.51 92.7600   1
  -1  -8  -6 4240.25 88.9100   1
 -11   9   2 1278.91 39.0400   1
  11   9   2 1525.51 46.2200   1
  11   9  -2 1560.04 46.3700   1
  11  -9   2 1460.96 58.2200   1
  11  -9  -2 1469.13 57.1800   1
 -11  -9  -2 1253.87 53.4800   1
   6  -4  -6 2464.59 72.3500   1
  -6  -4  -6 2352.20 84.5900   1
  -6  -4  -6 1835.06 83.2700   1
  -6   4   6 2171.38 63.0900   1
   6   4   6 1813.42 62.9600   1
  -6  -4  -6 2383.11 53.3000   1
   6  -4   6 2000.99 56.5800   1
  -6   4  -6 1787.61 73.6900   1
   6   4  -6 2152.74 52.4600   1
  14   1   0 1120.64 46.3300   1
  14  -1   0 1093.75 50.9200   1
  13  -4  -2 795.840 51.8700   1
  13   4  -2 998.630 50.4700   1
  13   4   2 708.180 38.0400   1
  13  -4  -2 543.490 37.6100   1
 -13  -4  -2 402.020 39.6500   1
  13  -4   2 644.620 40.4900   1
  -7   0  -6 8.12000 27.0100   1
   7   0   6 1.23000 24.5200   1
  -7   0   6 13.4000 25.8600   1
   7   0   6 -13.150 26.1100   1
   7   0  -6 -3.4500 29.8200   1
  -7   0  -6 6.36000 30.3600   1
  11  10  -1 435.560 31.6900   1
  11  10   1 522.980 35.7800   1
 -11 -10  -1 262.260 28.5700   1
 -11 -10  -1 300.850 31.8600   1
  11 -10   1 509.730 38.3500   1
  11 -10  -1 234.080 28.9900   1
  11 -10   1 249.910 33.6900   1
  11 -10  -1 443.130 35.9100   1
  -3 -13  -4 202.600 39.0500   1
   3 -13   4 212.770 29.0000   1
   3 -13  -4 191.920 33.9700   1
   3 -13   4 334.130 40.2600   1
  -3 -13  -4 173.190 33.3300   1
  -3 -13   4 334.430 42.5000   1
   3  13   4 242.010 27.5300   1
  -3  13   4 256.060 33.3500   1
   3  13   4 230.480 36.1500   1
   3 -13   4 111.390 37.2100   1
   3 -13  -4 195.390 29.0700   1
   3 -13  -4 178.750 28.0400   1
  -3 -13  -4 192.000 27.7100   1
   3 -13  -4 200.880 32.0400   1
  -3 -13   4 199.270 32.5300   1
   3 -13  -4 266.460 37.0200   1
  -6   9   5 11416.0 152.980   1
   6  -9  -5 11654.7 220.990   1
   6  -9  -5 12195.9 426.810   1
  -6  -9  -5 11681.7 193.950   1
  -6  -9  -5 11766.9 212.400   1
  -6  -9   5 13514.5 454.870   1
   6  -9   5 12224.7 412.610   1
   7  -1   6 8082.77 184.250   1
   7   1  -6 6316.47 146.110   1
  -7  -1  -6 8133.80 160.350   1
  -7  -1  -6 8338.12 215.650   1
  -7   1  -6 7734.52 192.260   1
   7   1   6 6735.96 168.470   1
   7   1   6 8795.49 227.910   1
 -11   4   4 2938.42 78.3800   1
  11  -4  -4 2601.27 77.8400   1
 -11  -4   4 3007.38 83.7100   1
  11   4   4 2278.74 72.8000   1
  11  -4   4 2147.92 66.4900   1
  -7  -8  -5 7932.49 190.610   1
   7   8   5 6914.57 150.940   1
  -7  -8  -5 7164.40 185.390   1
  14  -2   0 3803.14 99.4400   1
  14  -2   0 3789.85 103.690   1
  14   2   0 3526.66 90.9700   1
   3  16   1 125.920 20.7900   1
  -3 -16  -1 135.950 27.4900   1
   3 -16  -1 143.160 22.2400   1
   3 -16   1 129.910 22.7300   1
   3  16  -1 95.0300 22.7600   1
   3 -16  -1 122.570 25.8400   1
   3 -16   1 98.8600 28.7400   1
  -3 -16   1 134.740 25.2100   1
  -3 -16  -1 81.1000 27.1900   1
   3 -16  -1 93.4300 20.3500   1
  -3 -16   1 136.170 30.2500   1
   3 -16  -1 100.920 21.6700   1
   3 -16   1 189.230 27.3600   1
  13  -6  -1 6990.39 151.420   1
  13   6  -1 6758.96 134.960   1
 -13  -6  -1 5619.66 137.870   1
  13   6   1 6469.35 135.840   1
   2   8   6 129.870 30.0100   1
  -2   8   6 166.510 32.7000   1
  -2  -8   6 156.480 24.8200   1
  -2  -8   6 118.080 25.6100   1
  -2   8  -6 84.2900 14.9100   1
   2  -8   6 185.450 27.2600   1
   2  -8  -6 119.000 24.2600   1
  -2  -8  -6 96.4200 20.2500   1
   2  -8  -6 93.5200 20.4900   1
  -2  -8  -6 80.6400 21.2300   1
  -2  -8  -6 155.690 29.9300   1
   2  -8  -6 121.420 30.2600   1
   2  -8  -6 69.7200 25.3200   1
   2  -8   6 158.730 28.0400   1
  12  -5  -3 2673.55 84.5500   1
  12  -5  -3 2038.89 60.3300   1
 -12  -5  -3 1832.71 99.5400   1
 -12   5   3 2124.32 58.2100   1
  12   5  -3 2700.62 71.7700   1
  12  -5   3 2764.07 83.5700   1
  -6 -15   0 940.080 48.1800   1
   6 -15   0 1028.15 52.4300   1
   6  15   0 695.120 34.0100   1
   6 -15   0 675.090 40.9900   1
   6 -15   0 886.990 57.0400   1
   6 -15   0 765.240 55.9200   1
  -5   6   6 3657.61 100.440   1
  -5  -6  -6 3363.19 125.510   1
  -5   6  -6 3013.73 122.060   1
   5  -6  -6 3804.41 101.020   1
   5  -6  -6 3145.55 87.5600   1
  -5  -6  -6 2640.50 107.640   1
  -5  -6  -6 3856.27 124.660   1
   5  -6   6 3738.91 107.030   1
  -5  -6   6 4106.85 126.480   1
  -5  -6   6 3569.69 91.4200   1
  14   0   1 564.780 38.8100   1
  14   0  -1 657.040 41.3500   1
   3 -11  -5 3846.79 108.230   1
  -3 -11  -5 4433.78 127.540   1
   3 -11  -5 4519.53 117.410   1
  -3 -11  -5 3914.29 125.140   1
   3 -11  -5 4178.38 128.640   1
   3  11   5 5091.28 166.880   1
  -3 -11  -5 3743.46 105.810   1
   3 -11  -5 3961.11 128.040   1
  -3  11   5 4419.69 119.440   1
   3 -11   5 3890.33 106.100   1
  -3 -11   5 3576.92 98.3400   1
  -3 -11   5 4660.59 124.310   1
  -4  -7   6 4845.62 123.030   1
   4  -7  -6 4748.36 128.600   1
   4  -7  -6 4746.98 117.310   1
  -4  -7  -6 4268.61 139.890   1
  -4  -7  -6 3728.03 126.030   1
   4  -7  -6 4456.19 141.820   1
  -4   7   6 5362.56 134.680   1
   4  -7   6 4431.38 115.120   1
  -4  -7   6 4259.05 118.110   1
   4   7   6 5048.94 146.550   1
  -4  -7  -6 5260.14 165.280   1
  -7   2  -6 49.4200 19.1100   1
  -7  -2  -6 39.8800 24.6000   1
   7   2   6 40.9600 13.9800   1
  -7  -2  -6 91.2600 24.3100   1
  -7   2   6 63.5100 18.3700   1
  -7  -2   6 50.9600 20.4200   1
   7   2   6 58.3300 21.3600   1
   7   2  -6 54.2400 14.5600   1
   7  -2   6 58.6400 21.1100   1
  -7  -2  -6 69.6300 21.5900   1
  -7  -2  -6 43.7300 16.0800   1
   7  -2  -6 86.4300 21.3000   1
  -7   2  -6 25.2100 16.8300   1
   0 -15  -3 172.110 33.0800   1
   0 -15  -3 179.040 27.9700   1
   0 -15   3 272.640 33.6400   1
   0  15   3 145.050 22.7300   1
   0 -15  -3 143.910 21.3700   1
   0 -15   3 203.610 24.0700   1
   0 -15   3 148.970 22.0800   1
   0 -15  -3 212.590 26.7500   1
   0 -15  -3 214.200 22.6500   1
  14  -1  -1 1674.07 71.8500   1
  14   1  -1 1579.92 65.0700   1
  14  -1   1 1647.15 71.1800   1
  14   1   1 1371.41 57.3000   1
   5  10   5 3183.77 110.490   1
  -5 -10  -5 3759.45 99.9900   1
   5 -10  -5 4205.07 109.500   1
  -5 -10  -5 3213.46 115.540   1
   5 -10   5 3202.40 113.980   1
   5 -10  -5 3499.14 102.950   1
  -5 -10  -5 4168.52 139.750   1
   5 -10  -5 3843.00 110.980   1
  -5  10   5 3885.68 111.570   1
  -5 -10   5 3875.05 97.0400   1
   5  10   5 3391.18 93.7200   1
   5  10  -5 4006.74 98.8000   1
   5 -10   5 3847.36 103.510   1
  10  -7  -4 6952.49 165.580   1
  10  -7  -4 6168.07 160.410   1
 -10   7   4 6332.04 128.420   1
  10   7  -4 6467.59 135.040   1
  10  -7   4 6790.20 156.380   1
 -10  -7  -4 5973.81 169.660   1
  -1 -15  -3 1619.69 84.8600   1
   1 -15  -3 1223.56 65.8300   1
  -1 -15  -3 2094.29 77.3300   1
   1 -15  -3 1735.85 77.0300   1
  -1 -15   3 1580.83 69.5000   1
  -1 -15  -3 1634.98 79.3200   1
   1 -15  -3 1253.87 65.6900   1
   1 -15  -3 1485.83 73.2400   1
   1 -15   3 1673.78 71.8900   1
   1 -15  -3 1771.35 83.1500   1
   1 -15   3 1592.76 65.5000   1
  -1 -15   3 1809.35 79.9700   1
  -1  15   3 1206.37 78.7100   1
  -1 -15   3 2017.64 82.8500   1
   1 -15   3 1924.64 67.1100   1
  -1 -15  -3 2198.29 85.6900   1
  -4 -16   0 34.4300 20.0100   1
   4 -16   0 70.5300 22.2400   1
   4 -16   0 47.4900 21.6200   1
   4 -16   0 16.4500 27.3000   1
   4  16   0 43.9000 19.6700   1
  -4 -16   0 94.1500 35.0600   1
   4 -16   0 32.5600 18.7400   1
  -9 -12  -2 2166.86 75.2200   1
   9 -12  -2 1953.40 71.6700   1
   9 -12   2 1970.93 71.2900   1
   9  12  -2 2542.07 73.5900   1
   9  12   2 1778.11 64.6500   1
  -9  12   2 2172.71 65.2600   1
   9 -12  -2 2236.00 82.1300   1
   9 -12   2 1660.16 88.0500   1
  -9 -12  -2 2159.54 78.0600   1
   9  -5  -5 609.540 47.8400   1
   9   5   5 846.700 47.9300   1
   9  -5  -5 912.200 49.5500   1
  -9  -5  -5 629.080 41.2200   1
  -9   5   5 853.530 42.0300   1
   9  -5   5 759.670 45.3000   1
   9   5  -5 912.960 44.8800   1
  -9   5  -5 606.270 49.8400   1
  -9  -5  -5 677.550 52.8900   1
  -9  -5   5 829.320 41.9500   1
  -9  -5  -5 503.170 49.0900   1
   0   0  -7 3.59000 27.5500   1
   0   0   7 16.9700 22.1000   1
  14  -3   0 3787.83 99.9200   1
  14   3   0 3897.73 102.460   1
  14  -3   0 3353.69 95.4100   1
   0 -16  -2 10415.8 204.220   1
   0 -16  -2 12011.8 434.280   1
  -8  10   4 935.440 47.4800   1
   8 -10   4 718.430 42.9900   1
  -8 -10  -4 809.090 43.6500   1
   8 -10  -4 567.300 44.0600   1
   8 -10  -4 963.190 58.5400   1
  -8 -10  -4 733.920 46.4400   1
   8  10   4 755.700 40.6800   1
  -8 -10   4 643.620 35.9200   1
   8  10  -4 673.200 36.5100   1
 -12  -9   0 821.310 43.1500   1
  12  -9   0 580.460 42.8300   1
  12   9   0 835.070 42.9600   1
  12  -9   0 773.950 49.7400   1
   8  -7  -5 7929.28 169.080   1
  -8   7   5 7565.71 152.500   1
   8   7   5 6473.09 137.870   1
  -8  -7  -5 6450.33 177.430   1
  -6  -5  -6 7196.17 192.670   1
  -6  -5  -6 6252.07 144.150   1
  -6  -5  -6 6144.94 183.890   1
  -6  -5  -6 6622.30 160.240   1
   6  -5   6 7280.90 165.280   1
  -6  -5   6 7096.10 144.540   1
  -6   5   6 7178.47 155.330   1
 -14  -2  -1 310.790 24.1700   1
  14  -2   1 479.680 38.2200   1
  14   2  -1 598.160 41.0900   1
  14   2   1 466.320 35.8100   1
  14  -2  -1 556.410 42.1600   1
  14  -2   1 500.570 36.8600   1
   7 -11  -4 1722.02 81.9400   1
  -7 -11   4 1394.93 56.2500   1
  -7  11   4 1607.41 68.4300   1
   7 -11  -4 1902.54 69.5200   1
   7 -11  -4 1643.00 74.8200   1
  -7 -11  -4 1690.64 86.7400   1
   7 -11  -4 1534.91 70.6000   1
   7 -11   4 1172.76 66.5100   1
   7  11  -4 2055.10 62.8400   1
   7  11   4 1427.31 64.9800   1
   7 -11   4 1945.53 71.9000   1
   0  -1   7 956.560 53.6400   1
   0   1   7 969.030 49.1100   1
   0  -1   7 1005.73 51.5100   1
   0  -1  -7 670.300 47.6800   1
   0   1  -7 763.640 51.4200   1
   0  -1  -7 744.920 47.9400   1
  10   0   5 7761.48 177.130   1
  10   0   5 7065.21 175.710   1
  10   0  -5 6966.40 156.350   1
 -10   0   5 8044.51 158.510   1
  10   0  -5 7789.57 166.650   1
   8 -13   2 1000.84 51.7300   1
  -8 -13   2 695.650 42.3500   1
  -8 -13  -2 660.960 50.7600   1
   8 -13   2 530.010 48.0100   1
   8 -13  -2 644.150 51.3200   1
  -8  13   2 774.610 40.5000   1
   8  13   2 855.150 40.8300   1
  -8 -13  -2 655.570 40.8900   1
   8 -13  -2 878.980 55.5800   1
   8 -13  -2 762.160 44.6500   1
  -1   0  -7 17.0300 21.5900   1
   1   0  -7 -8.0300 27.9300   1
  -1   0  -7 10.5700 19.1800   1
   1   0   7 -4.3700 22.8600   1
  -1   0   7 -8.4800 17.2300   1
  -1   0   7 -30.690 24.5700   1
   1 -16  -2 581.570 42.1100   1
  -1 -16   2 789.150 51.6000   1
   1 -16   2 648.620 44.1200   1
   1 -16   2 445.170 36.5300   1
   1 -16  -2 483.550 40.4400   1
  -1 -16  -2 604.950 41.2500   1
  -1 -16   2 534.260 39.8100   1
   1 -16   2 452.070 36.5100   1
  -1 -16  -2 460.010 38.4600   1
   1 -16  -2 475.700 42.9800   1
  -1 -16  -2 370.910 39.3200   1
  -1  16   2 271.820 33.0000   1
   1  16   2 279.090 28.6600   1
   1 -16  -2 378.990 44.4600   1
  -1 -16  -2 521.590 40.3900   1
  -1 -16   2 434.290 40.4300   1
  13  -5   2 2675.95 88.9100   1
  13   5  -2 2717.84 76.5900   1
  13   5   2 2658.07 81.4100   1
  13  -5  -2 2309.56 74.3500   1
 -13  -5  -2 2426.53 80.3500   1
  13  -5  -2 2109.89 77.0700   1
  13  -5  -2 2935.69 93.1800   1
   6 -15  -1 425.370 41.9800   1
   6 -15  -1 434.620 40.2300   1
   6 -15   1 348.830 23.4600   1
   6 -15   1 289.240 27.5600   1
   6 -15  -1 339.020 27.9500   1
  -6 -15   1 469.050 40.0200   1
   6  15  -1 516.060 38.3600   1
  -6 -15  -1 480.510 40.0800   1
   6 -15   1 416.140 38.8100   1
   6 -15  -1 489.820 42.1400   1
   6 -15   1 454.200 41.1300   1
   6  15   1 433.830 37.0200   1
  -9 -13   0 491.300 40.8000   1
   9 -13   0 420.100 41.7800   1
   9  13   0 425.280 36.8700   1
   9 -13   0 470.630 40.2900   1
 -10  -1   5 376.320 36.2600   1
 -10   1  -5 213.890 24.5100   1
  10   1   5 356.900 39.3800   1
  10  -1  -5 317.960 24.5300   1
 -10   1   5 424.310 38.1200   1
  10  -1  -5 311.770 28.7600   1
  10   1  -5 382.830 36.4800   1
  10  -1   5 398.470 42.4400   1
  10   1   5 274.490 23.7100   1
  10  -1   5 390.320 44.1700   1
 -10  -1  -5 237.040 26.7400   1
  -1  -1  -7 1030.83 59.4000   1
   1  -1   7 1589.63 70.4700   1
   1  -1   7 1107.87 56.4400   1
  -1  -1   7 969.610 53.4600   1
  -1   1   7 1562.22 67.9600   1
  -1  -1   7 1628.94 74.6300   1
  -1  -1  -7 1168.01 59.6400   1
  -1   1  -7 949.160 50.0500   1
   1   1  -7 1323.47 64.6000   1
   1  -1  -7 1248.41 60.9200   1
   3  -8  -6 5556.52 168.940   1
   3  -8  -6 6663.70 149.330   1
   3   8   6 7207.53 182.700   1
   3  -8  -6 5608.09 142.470   1
  -3  -8  -6 6481.75 181.910   1
  -3   8   6 6924.32 158.800   1
  -3  -8   6 7018.72 159.900   1
   3  -8   6 7044.34 166.050   1
   3  -8   6 7411.30 206.480   1
   7   3   6 5946.35 159.180   1
  -7   3  -6 5891.44 164.390   1
  -7  -3  -6 6071.01 153.220   1
   7   3  -6 5741.81 133.450   1
   7  -3   6 6393.97 156.950   1
   7   3   6 5541.69 160.170   1
  10 -11   2 5089.91 127.830   1
 -10 -11  -2 5432.36 119.850   1
  10 -11  -2 4648.62 120.380   1
 -10 -11  -2 4766.66 122.930   1
  10 -11  -2 4949.84 126.040   1
  10  11  -2 5194.98 108.140   1
  10  11   2 5268.40 117.730   1
 -10  11   2 4448.91 99.7300   1
  13  -7   0 377.210 38.8900   1
  13  -7   0 555.810 41.3700   1
  13   7   0 488.140 34.5000   1
  10 -12   0 118.940 23.7300   1
  10  12   0 178.500 26.8400   1
 -10 -12   0 139.080 20.5800   1
  10 -12   0 97.8800 22.3600   1
 -10 -12   0 147.670 25.4500   1
   5  14   3 110.260 25.7500   1
  -5  14   3 102.070 17.2200   1
   5  14   3 167.860 18.7200   1
   5  14  -3 175.330 24.0100   1
  -5 -14   3 143.380 30.1700   1
   5 -14  -3 107.310 19.8800   1
   5 -14   3 178.390 29.2100   1
   5 -14   3 174.490 26.2500   1
  -5 -14   3 174.950 23.8900   1
   5 -14  -3 100.190 17.9100   1
  -5 -14  -3 117.340 22.6400   1
   5 -14  -3 173.860 26.8800   1
   5 -14  -3 175.570 25.6900   1
  -5 -14  -3 107.920 23.8100   1
  11  -8  -3 102.120 21.7100   1
  11   8  -3 118.690 22.6500   1
  11   8   3 56.5100 17.3100   1
 -11   8   3 117.540 23.6500   1
  11  -8  -3 118.950 24.4900   1
 -11  -8  -3 112.310 22.6900   1
  11  -8   3 93.1600 25.8300   1
   2 -15   3 1621.57 70.3000   1
   2 -15  -3 1585.30 77.9600   1
   2 -15   3 1886.23 67.6600   1
  -2 -15  -3 1489.96 80.7200   1
   2 -15  -3 1361.23 79.8000   1
  -2 -15   3 1601.92 69.9700   1
   2 -15  -3 1449.41 68.0200   1
  -2 -15   3 1731.14 77.6500   1
  -2 -15  -3 1108.30 52.3200   1
   2 -15  -3 1223.97 65.8300   1
   2 -15   3 1497.74 67.9500   1
   2 -15  -3 1349.80 67.5900   1
   2  15   3 1830.49 106.700   1
  -2  15   3 1374.56 71.4000   1
   2  15   3 1242.63 53.3000   1
  -2 -15   3 1746.72 81.5200   1
  -2 -15  -3 1534.80 67.9500   1
   4  13   4 1190.47 55.7800   1
  -4 -13   4 1718.61 80.3000   1
   4 -13  -4 1436.56 78.5900   1
  -4  13   4 1054.74 49.8700   1
   4  13   4 1489.72 86.0000   1
   4  13  -4 1493.76 64.1200   1
   4 -13   4 1655.16 70.8700   1
   4 -13  -4 1265.23 69.5200   1
   4 -13   4 1492.74 66.9100   1
  -4 -13  -4 1423.59 78.2800   1
   4 -13  -4 1493.00 64.3100   1
   4 -13  -4 1048.72 63.1100   1
   5 -15  -2 3628.91 109.650   1
   5 -15   2 3274.59 99.2000   1
  -5 -15  -2 3821.32 109.380   1
   5  15  -2 3564.73 99.5100   1
   5 -15  -2 3553.64 119.060   1
   5 -15   2 3443.32 100.980   1
  -5 -15  -2 2804.29 97.6200   1
   5  15   2 2917.35 76.7100   1
   5 -15  -2 3032.62 104.160   1
   5 -15  -2 2968.81 80.2900   1
 -11  -5   4 56.3100 22.2000   1
  11  -5  -4 46.2700 18.0900   1
 -11   5   4 73.1800 24.8300   1
  11  -5  -4 50.1300 21.7900   1
 -11  -5  -4 6.77000 15.7000   1
  11   5  -4 49.8100 18.3000   1
  11  -5   4 49.4800 25.9600   1
  11   5   4 55.7800 29.9400   1
   0   2   7 3.42000 19.4600   1
   0  -2  -7 0.64000 11.7500   1
   0  -2   7 -1.3600 19.2500   1
   0  -2   7 -5.2100 20.2100   1
   0  -2  -7 -14.640 18.7700   1
   0  -2  -7 3.45000 21.5600   1
  -8 -12  -3 927.680 59.0400   1
   8  12   3 854.540 42.6100   1
   8 -12  -3 864.810 55.9700   1
   8 -12   3 969.370 52.5700   1
   8  12  -3 1155.92 55.0700   1
   8 -12   3 589.600 57.5900   1
  -8  12   3 948.540 42.6400   1
   8 -12  -3 800.770 59.0100   1
   8 -12  -3 899.680 41.9500   1
   8 -12  -3 1051.66 59.0400   1
  -9  -9  -4 697.470 52.7900   1
   9  -9  -4 840.210 44.4000   1
  -9  -9  -4 1005.24 46.4000   1
  -9   9   4 785.280 40.8800   1
  -9  -9   4 930.130 42.9900   1
   9   9   4 841.990 42.5400   1
   9  -9   4 1315.56 62.5200   1
   9  -9  -4 1414.76 78.5900   1
   9   9  -4 1014.48 46.2300   1
   9  11   3 1895.08 57.1700   1
   9  11  -3 2334.98 64.8600   1
   9 -11   3 2274.68 72.5600   1
   9 -11  -3 2712.54 96.3100   1
  -9 -11  -3 2168.14 88.0900   1
  -9  11   3 2211.48 63.1400   1
  -9 -11  -3 2365.12 66.5800   1
   9 -11  -3 2110.40 83.7700   1
 -13   0   3 36.3000 19.1800   1
  13   0   3 19.2700 19.4300   1
  13   0  -3 -17.600 19.4400   1
  13   0   3 17.4900 23.1700   1
  10   2   5 5144.68 137.560   1
  10  -2   5 5564.47 149.540   1
  10   2   5 4594.45 121.160   1
 -10  -2   5 5045.02 107.170   1
 -10  -2  -5 4162.25 130.410   1
  10  -2  -5 4371.73 114.130   1
   4 -16  -1 10686.9 214.150   1
   4 -16   1 9988.12 204.000   1
   4  16   1 10782.9 221.230   1
   4  16  -1 10073.5 201.140   1
  -4 -16   1 11385.8 261.450   1
  -4 -16  -1 10596.8 239.450   1
   4 -16   1 10516.6 221.900   1
   4 -16  -1 10564.3 225.120   1
  -4 -16  -1 10954.6 240.850   1
   4 -16   1 10514.3 232.430   1
   4 -16  -1 10940.5 262.570   1
  -4 -16   1 9931.77 201.050   1
  -1  -2  -7 688.080 50.6400   1
   1  -2   7 967.030 53.9300   1
   1   2   7 1139.74 68.4400   1
  -1   2   7 892.190 51.2300   1
   1  -2  -7 637.760 43.8500   1
  -1  -2  -7 686.490 47.9600   1
   1  -2  -7 801.110 50.6100   1
  -1  -2   7 1021.26 49.1400   1
  -1  -2   7 677.920 44.2000   1
   1  -2   7 902.400 52.8000   1
  -1  -2  -7 729.700 52.1500   1
  -1  -2  -7 933.500 46.3300   1
   8  14   0 738.860 37.2300   1
   8 -14   0 841.590 49.6700   1
   8 -14   0 816.090 53.0700   1
  -8 -14   0 953.600 50.6000   1
  -2   0   7 4277.61 133.990   1
  -2   0   7 5265.81 118.850   1
  -2   0  -7 4806.01 128.110   1
   2   0  -7 4672.15 132.600   1
  14   3   1 1464.26 67.2900   1
  14   3  -1 1795.09 81.2200   1
  14  -3   1 1606.01 72.4400   1
  14  -3  -1 1388.63 62.2700   1
  14  -3   1 1291.15 59.0800   1
 -14  -3  -1 1121.91 54.7100   1
   2  16   2 4151.45 103.180   1
   2 -16  -2 4758.31 124.520   1
   2 -16  -2 4116.59 109.300   1
  -2 -16   2 4432.47 111.780   1
   2 -16   2 3923.29 102.880   1
  -2 -16  -2 4651.57 116.550   1
   2 -16   2 4624.74 116.190   1
   2 -16   2 4080.67 100.340   1
   2 -16   2 4100.20 112.880   1
  -2 -16  -2 4430.56 123.130   1
   2 -16  -2 4677.14 146.700   1
  -2 -16   2 4016.98 111.410   1
   6 -12  -4 4127.63 103.000   1
   6 -12  -4 3881.66 120.960   1
  -6 -12  -4 4029.82 124.910   1
   6 -12   4 3757.49 122.340   1
   6 -12  -4 3464.98 108.620   1
   6 -12  -4 3268.55 105.190   1
   6  12   4 3520.25 99.2700   1
  -6 -12   4 3396.69 83.7300   1
  -6  12   4 3735.32 93.7700   1
   6  12  -4 4218.64 100.410   1
 -13  -1   3 2574.30 77.0800   1
  13   1   3 2064.25 75.2000   1
  13  -1   3 1946.50 64.4800   1
  13   1   3 2375.14 86.5400   1
  13  -1   3 2012.19 69.4600   1
  13   1  -3 2025.04 62.7800   1
  13  -1  -3 2050.07 71.7700   1
 -13   1   3 1816.13 75.7600   1
  12   9  -1 8610.30 168.410   1
  12  -9   1 7825.56 172.860   1
  12  -9  -1 7914.56 202.120   1
 -12  -9  -1 7577.33 171.240   1
  12  -8  -2 93.7400 23.2700   1
  12   8  -2 77.8900 22.3800   1
  12   8   2 94.3500 20.8700   1
  12  -8  -2 57.8200 18.8100   1
 -12  -8  -2 103.610 22.1400   1
  12  -8   2 91.2800 27.7700   1
   2  -1   7 134.000 19.1000   1
   2  -1   7 172.800 29.8800   1
  -2   1   7 149.560 23.7100   1
  -2  -1  -7 92.4000 19.5100   1
   2  -1  -7 127.370 23.9900   1
   2   1  -7 94.4800 23.4100   1
  -2  -1  -7 94.2200 19.0700   1
  -2  -1  -7 131.070 22.4100   1
  -2   1  -7 141.570 25.3400   1
  -2  -1  -7 106.950 23.1000   1
  -2  -1   7 141.330 24.6700   1
   2   1   7 175.710 36.1000   1
  -4  11   5 1802.83 80.3200   1
   4  11   5 1678.78 93.5000   1
   4 -11  -5 1835.68 87.5300   1
   4 -11   5 1648.22 74.1900   1
  -4 -11  -5 1541.64 83.2400   1
   4 -11  -5 1809.16 94.5800   1
  -4 -11   5 2212.51 84.4700   1
   4 -11   5 1816.07 88.2200   1
   4 -11  -5 2015.06 69.9800   1
  -4 -11  -5 1569.52 72.0600   1
  -4 -11  -5 1494.17 78.6200   1
  -4 -11   5 1709.20 67.9300   1
  12  -6  -3 1233.62 61.3200   1
 -12   6   3 1130.00 45.8100   1
  12  -6  -3 1472.17 79.5000   1
  12  -6   3 1628.87 72.0200   1
  12   6  -3 1543.21 61.1700   1
  12   6   3 1267.54 56.4200   1
  14  -4   0 2653.32 92.6200   1
  14   4   0 3723.06 99.7900   1
  14  -4   0 3068.51 95.3800   1
   0  -9  -6 26.5600 23.3200   1
   0  -9   6 18.1600 22.1800   1
   0   9   6 -18.470 25.6600   1
   0  -9   6 2.35000 25.4900   1
   0  -9  -6 27.7100 21.0600   1
   0  -9  -6 11.7200 23.4400   1
   0  -9  -6 -14.540 34.3900   1
  -9 -13   1 4249.07 114.650   1
   9 -13   1 2878.32 103.720   1
  -9 -13  -1 3511.57 98.0100   1
   9 -13  -1 3402.48 108.080   1
   9  13   1 3571.19 81.0800   1
   9 -13   1 3409.85 95.1500   1
   9 -13  -1 3551.28 104.240   1
   0 -12   5 -1.1400 20.9500   1
   0 -12  -5 21.0800 23.8500   1
   0  12   5 15.6500 22.2900   1
   0 -12  -5 10.2800 24.3900   1
   0 -12  -5 14.3900 19.7000   1
   0 -12   5 12.2700 24.4700   1
   0 -12  -5 -9.2700 20.1500   1
   7 -14  -2 373.830 38.5100   1
  -7 -14   2 263.870 28.6400   1
  -7 -14  -2 331.510 35.6700   1
   7 -14  -2 304.980 28.3600   1
   7 -14  -2 324.590 24.9000   1
   7 -14  -2 316.840 30.2700   1
  -7  14   2 295.810 19.7800   1
   7  14   2 364.250 37.7600   1
   7  14  -2 329.550 21.5500   1
   7 -14   2 398.200 40.9200   1
   7 -14   2 251.700 29.0800   1
   0 -14  -4 7115.20 154.300   1
   0 -14  -4 7229.57 170.720   1
   0  14   4 7231.33 208.260   1
   0 -14  -4 7050.16 170.080   1
   0 -14  -4 8890.14 221.400   1
   1  -9  -6 1364.54 61.9900   1
  -1  -9  -6 1254.24 67.0400   1
   1  -9  -6 1601.30 80.0000   1
   1  -9   6 1322.89 62.2000   1
  -1  -9  -6 1001.55 66.0800   1
   1  -9  -6 963.380 63.1300   1
   1  -9   6 1227.93 66.3200   1
  -1   9   6 1280.76 65.6800   1
  -1  -9   6 1466.41 73.4000   1
   1  -9  -6 1354.67 76.6900   1
   1   9   6 1314.77 67.6600   1
  -1  -9   6 1418.46 68.3900   1
  -1  -9  -6 1285.65 77.0200   1
  -1  -9  -6 1608.32 70.9100   1
  13  -7   1 583.130 41.4000   1
  13   7   1 645.750 40.2500   1
  13  -7  -1 435.380 41.2100   1
 -13  -7  -1 580.720 43.1700   1
  13  -7  -1 853.840 49.0000   1
  13   7  -1 762.180 43.5300   1
  10 -12  -1 2987.39 91.9000   1
  10 -12   1 3155.35 90.0800   1
  10  12  -1 3019.18 74.0200   1
  10  12   1 2868.93 70.7400   1
 -10 -12  -1 3220.42 93.2800   1
 -10 -12  -1 3028.84 79.1300   1
 -10 -12   1 3597.57 101.490   1
 -10 -12   1 3428.82 101.530   1
  10 -12  -1 3545.49 118.610   1
 -11 -11   0 1641.55 71.2400   1
 -11 -11   0 1492.55 60.8600   1
  11 -11   0 1347.66 71.1900   1
  11 -11   0 1792.80 86.5200   1
  11  11   0 1847.17 53.0600   1
   1  12   5 2010.52 76.8800   1
   1 -12  -5 2905.65 97.6300   1
  -1 -12  -5 2864.91 98.0200   1
   1 -12  -5 2846.90 84.2500   1
  -1 -12  -5 2767.18 80.6800   1
  -1 -12  -5 2253.52 90.7300   1
  -1  12   5 2174.56 89.3600   1
  -1 -12   5 2035.33 81.7300   1
   1 -12   5 2332.17 102.030   1
   1 -12  -5 2376.72 93.0200   1
  -1 -12   5 3032.68 94.5400   1
  -1 -12  -5 2280.95 99.7300   1
   1 -12  -5 2329.61 94.8300   1
   0  -3   7 194.770 23.6400   1
   0   3   7 146.080 27.2800   1
   0  -3   7 198.380 24.3100   1
   0  -3  -7 176.940 23.7900   1
   0  -3  -7 206.970 26.1600   1
   0  -3  -7 192.080 23.7100   1
   0  -3  -7 177.870 25.8000   1
   7  13  -3 136.260 17.6100   1
   7 -13   3 153.040 29.4900   1
   7 -13  -3 153.060 22.1800   1
   7 -13  -3 115.880 19.4800   1
  -7 -13  -3 85.6100 26.9200   1
   7 -13   3 87.1800 19.5900   1
   7 -13  -3 114.260 24.2400   1
   7 -13  -3 105.680 22.8700   1
  -7  13   3 112.570 16.7400   1
   7  13   3 147.930 21.8300   1
  13  -2  -3 1625.72 69.5400   1
  13   2  -3 1929.52 60.3900   1
  13   2   3 1808.21 77.7000   1
  13  -2   3 1879.44 71.4500   1
 -13   2   3 1822.11 77.3500   1
  13  -2   3 1859.00 64.2200   1
  13  -2  -3 1796.34 78.6300   1
  -5  -7  -6 675.740 58.6200   1
   5  -7  -6 792.060 51.4200   1
  -5  -7  -6 821.960 57.6500   1
   5  -7  -6 705.230 46.5600   1
  -5  -7  -6 641.460 45.7400   1
   5  -7   6 1009.46 56.5400   1
   5  -7  -6 610.400 40.8900   1
   5   7   6 527.030 42.0000   1
  -5  -7   6 985.470 58.1000   1
   5   7   6 996.180 67.8500   1
  -5   7   6 1022.16 50.0200   1
  -5  -7   6 907.950 42.1500   1
  -7  -4  -6 336.950 33.3900   1
  -7  -4  -6 537.350 45.3000   1
   7  -4   6 595.570 43.0100   1
   7   4  -6 724.990 40.9100   1
   7   4   6 626.920 48.2800   1
  -7  -4   6 680.420 37.4700   1
  -7   4   6 666.470 40.9700   1
  -7  -4  -6 590.450 51.5400   1
  -7   4  -6 490.610 47.0300   1
   7  -4  -6 573.850 37.1900   1
  -7  -4  -6 517.590 34.1900   1
   2  -2   7 2683.30 98.0100   1
  -2  -2   7 2638.53 91.1200   1
  -2   2   7 2690.79 84.4200   1
  -2  -2   7 2788.50 81.3700   1
   2  -2   7 2957.07 90.8200   1
  -2  -2  -7 1993.33 84.3400   1
  -2  -2  -7 2145.81 74.4500   1
   2  -2  -7 2010.03 74.2200   1
  -2  -2  -7 2155.83 88.9200   1
  -2  -2  -7 2035.46 71.6700   1
   2  -2  -7 2237.62 76.5300   1
  -1 -14  -4 487.460 40.1100   1
  -1 -14  -4 465.600 47.8000   1
   1 -14   4 527.810 45.9000   1
  -1 -14   4 530.840 46.7600   1
   1 -14  -4 431.970 44.4100   1
  -1  14   4 441.920 45.7700   1
  -1 -14  -4 440.100 42.8700   1
   1 -14  -4 420.670 40.4500   1
  -1 -14  -4 423.000 40.4000   1
  -1 -14   4 483.450 39.9600   1
   1 -14   4 602.220 43.1500   1
   1 -14  -4 472.370 44.2000   1
   1  14   4 434.940 42.2500   1
  -1 -14   4 329.550 30.0100   1
   1 -14  -4 440.790 59.5000   1
   3 -15   3 5180.72 126.190   1
  -3 -15   3 6137.00 144.740   1
   3 -15  -3 4426.64 120.760   1
  -3 -15  -3 5468.75 163.140   1
   3  15   3 5546.50 122.020   1
   3  15   3 4503.00 158.510   1
   3 -15  -3 5130.32 136.370   1
   3 -15   3 4756.41 117.060   1
   3 -15  -3 5425.29 139.410   1
   3 -15  -3 5696.53 166.830   1
  -3 -15  -3 6083.77 171.320   1
  10  -3  -5 77.9700 24.3600   1
  10   3  -5 74.4500 19.7200   1
  10  -3  -5 64.5100 17.3400   1
  10   3   5 46.8500 17.5600   1
 -10  -3   5 63.8900 21.9700   1
 -10   3   5 72.2400 23.5200   1
 -10  -3  -5 60.3400 18.9900   1
  10  -3   5 91.6900 25.4600   1
  10 -10  -3 1713.13 75.3100   1
 -10 -10  -3 1665.76 63.7700   1
 -10  10   3 1523.93 60.3900   1
  10  10   3 1861.66 59.3700   1
  10  10  -3 1662.73 64.1600   1
  10 -10   3 1780.93 77.7900   1
  10 -10  -3 2116.77 78.9100   1
 -10 -10  -3 1861.61 82.4900   1
  -1   3   7 403.220 43.0600   1
   1   3   7 360.010 41.7300   1
   1  -3   7 574.310 51.6900   1
  -1  -3  -7 293.230 33.3100   1
  -1  -3  -7 385.390 39.7800   1
   1  -3  -7 305.680 25.1600   1
  -1  -3  -7 316.880 23.8400   1
   1  -3  -7 327.320 32.0500   1
  -1  -3  -7 290.050 28.4100   1
   1  -3   7 350.350 36.6100   1
  -1  -3   7 458.570 41.3800   1
  -1  -3   7 448.080 41.0800   1
 -12   0   4 6416.76 130.030   1
  12   0   4 6798.07 147.490   1
  12   0   4 7053.70 161.210   1
   0 -17   0 -32.740 25.3200   1
   0 -17   0 7.71000 23.7500   1
   0 -17   0 5.97000 19.4300   1
 -11 -10  -2 3047.36 94.7100   1
 -11 -10  -2 2940.26 80.9300   1
  11  10   2 3017.83 81.8900   1
  11  10  -2 2713.85 66.5600   1
  11 -10   2 3165.61 98.8100   1
   9   6  -5 910.530 42.5700   1
   9   6   5 837.600 43.8400   1
   9  -6  -5 670.570 48.8600   1
  -9  -6   5 1000.58 45.4800   1
  -9   6   5 885.190 44.8300   1
  -9   6  -5 597.980 50.5200   1
  -9  -6  -5 1013.84 47.4100   1
   9  -6  -5 955.320 53.0100   1
  -9  -6  -5 688.190 54.3000   1
   9  -6   5 766.400 44.4200   1
   8 -14  -1 1722.90 75.8500   1
  -8 -14   1 2022.04 72.1600   1
   8 -14  -1 1961.44 79.0200   1
  -8 -14  -1 1789.78 83.9500   1
   8 -14   1 1773.83 80.1200   1
   8  14   1 1913.92 60.9500   1
 -12  -1   4 1479.87 64.5000   1
 -12   1   4 982.270 41.6300   1
 -12   1  -4 836.620 59.2100   1
  12  -1  -4 1108.06 54.4200   1
  12  -1   4 1211.78 61.4000   1
  12  -1   4 1232.71 63.9000   1
  12   1  -4 1139.58 48.8300   1
  12  -1  -4 1227.19 62.3000   1
  12   1   4 1171.63 58.7300   1
  12   1   4 1159.24 69.3100   1
  -6  -6   6 1625.83 65.4300   1
   6   6  -6 1572.03 61.5000   1
   6  -6   6 1609.31 71.5300   1
  -6  -6  -6 1083.44 67.4500   1
   6  -6  -6 1553.11 70.9100   1
  -6  -6  -6 1124.41 53.4000   1
  -6   6  -6 1073.46 70.1900   1
  -6  -6  -6 1221.70 69.5200   1
  -6   6   6 1444.43 60.2400   1
  -1 -17   0 4623.87 122.340   1
   1 -17   0 4331.23 112.120   1
  -1 -17   0 4750.03 127.560   1
   1 -17   0 4914.42 128.370   1
  -1 -17   0 4324.22 112.740   1
   1 -17   0 5017.13 130.790   1
   5 -16   0 36.0700 16.4600   1
   5  16   0 23.1200 27.1600   1
  -5 -16   0 25.4600 26.3600   1
   5 -16   0 65.1500 23.4200   1
   5 -16   0 69.0300 23.0600   1
   5 -16   0 55.5800 23.2700   1
  -5 -16   0 16.7400 26.7300   1
   7  -9  -5 466.620 40.4700   1
  -7  -9   5 567.290 37.8300   1
  -7  -9  -5 372.490 43.0200   1
  -7   9   5 547.860 38.4800   1
   7  -9  -5 438.440 38.4700   1
   7  -9   5 525.520 39.8600   1
   7   9   5 501.080 37.1500   1
   7   9  -5 624.360 39.1500   1
  -4   8   6 72.6800 24.8100   1
  -4  -8   6 47.4700 16.7700   1
  -4  -8   6 85.3800 31.0700   1
   4  -8   6 64.4400 20.7500   1
  -4  -8  -6 47.3700 23.7300   1
   4  -8  -6 44.3700 23.6400   1
   4  -8  -6 32.1900 21.6300   1
   4   8   6 105.350 33.7300   1
  -4  -8  -6 47.8500 24.6700   1
   4  -8  -6 78.6500 21.4700   1
  -4  -8  -6 67.3200 22.3700   1
   3   0   7 0.17000 28.9700   1
  -3   0  -7 -17.600 19.7700   1
  -3   0  -7 -5.7000 18.3100   1
   3   0  -7 -5.7100 19.0100   1
  -3   0   7 -13.900 23.4700   1
   3  16   2 98.8200 22.1700   1
   3  16  -2 85.0900 21.0000   1
  -3 -16  -2 132.450 30.1800   1
   3 -16   2 73.2300 33.8600   1
   3 -16  -2 66.5400 19.8900   1
  -3 -16   2 87.8000 26.1900   1
  -3 -16   2 160.240 24.6000   1
   3 -16   2 140.710 24.2500   1
  -3 -16  -2 136.860 26.5500   1
   3 -16  -2 145.500 27.5600   1
   3 -16  -2 132.800 23.4900   1
   3 -16   2 94.5200 19.8400   1
   3 -16  -2 69.0300 13.7200   1
   3 -16  -2 100.010 19.9000   1
  -3  16   2 49.0900 13.4200   1
  -2  -9  -6 3433.51 119.530   1
  -2  -9  -6 3696.33 108.460   1
   2  -9  -6 3546.08 92.6300   1
  -2  -9  -6 2912.89 102.700   1
   2  -9   6 4080.79 107.080   1
   2  -9  -6 3751.67 125.980   1
  -2  -9   6 3228.85 113.950   1
  -2   9   6 4158.38 126.990   1
   2  -9  -6 3336.89 122.350   1
   2  -9  -6 4271.77 112.320   1
  -2  -9   6 4251.96 120.860   1
  13  -6   2 1903.19 73.4800   1
  13   6  -2 1763.40 70.0600   1
  13  -6  -2 2207.74 90.3300   1
  13  -6  -2 1385.40 60.1800   1
 -13  -6  -2 1364.91 65.4400   1
  13   6   2 1809.43 75.5800   1
  14   4   1 1069.29 60.9200   1
  14  -4  -1 714.890 41.1000   1
 -14  -4  -1 645.890 43.8800   1
  14  -4   1 707.220 40.5800   1
  14   4  -1 808.910 41.3400   1
  14  -4   1 963.760 51.1400   1
  14  -4  -1 929.380 48.4600   1
  -2 -12  -5 1928.06 71.6800   1
   2 -12  -5 2078.32 70.3400   1
   2 -12  -5 2048.32 84.1300   1
  -2 -12  -5 1599.01 81.8600   1
   2 -12  -5 1576.91 78.9500   1
   2 -12   5 1208.23 87.4000   1
   2 -12   5 1882.23 69.4100   1
  -2 -12   5 2048.01 78.2400   1
  -2 -12   5 1314.92 73.4100   1
  -2  12   5 1506.99 83.1100   1
   2 -12   5 1912.93 69.2700   1
  -2 -12  -5 1918.26 79.1900   1
   2 -12  -5 1975.63 79.3800   1
   2  12   5 1484.60 75.8100   1
  -6 -10   5 219.490 22.1600   1
   6  10   5 111.410 15.5500   1
  -6  10   5 233.520 25.8000   1
  -6 -10  -5 206.700 25.1300   1
   6 -10   5 167.300 25.4400   1
   6 -10  -5 227.990 26.9100   1
   6 -10  -5 234.470 24.4800   1
  -6 -10  -5 177.750 24.8600   1
   6  10  -5 206.500 22.8000   1
   6 -10  -5 168.650 23.7400   1
   3  -1  -7 3539.70 102.430   1
   3  -1   7 3516.96 112.430   1
  -3  -1   7 3725.69 126.620   1
  -3   1   7 4345.79 113.580   1
  -3  -1   7 4063.44 103.930   1
   3  -1   7 4599.35 159.460   1
   3   1   7 4541.09 140.200   1
  -3  -1  -7 3468.08 115.300   1
  -3   1  -7 4000.03 126.440   1
  -3  -1  -7 4168.66 127.380   1
   3   1  -7 3899.02 114.040   1
  14   0   2 10860.6 235.240   1
  14   0  -2 12728.8 428.840   1
  14   0   2 15081.4 514.270   1
  -7 -15   0 2308.04 76.7300   1
   7  15   0 2262.15 61.3800   1
   7 -15   0 2379.36 82.2800   1
   7 -15   0 1894.88 87.9900   1
   7 -15   0 1949.18 57.9800   1
  -2 -14  -4 2674.67 101.020   1
   2 -14  -4 2290.53 87.2000   1
  -2 -14  -4 2579.22 89.3300   1
   2 -14  -4 2496.45 93.4300   1
   2 -14   4 2445.43 75.2900   1
  -2 -14  -4 2614.15 116.630   1
  -2 -14   4 2341.83 71.2700   1
   2 -14  -4 2434.66 94.8100   1
   2  14   4 2030.10 86.1400   1
   2 -14   4 2609.58 78.3100   1
  -2  14   4 2098.79 80.9800   1
  -2 -14   4 3009.65 90.9900   1
  10   8   4 20.2200 18.2300   1
  10   8  -4 23.1000 15.4300   1
  10  -8   4 19.7600 20.8900   1
 -10  -8  -4 16.5800 20.1100   1
  10  -8  -4 19.7700 17.8600   1
 -10   8   4 7.32000 16.4700   1
 -10  -8   4 7.93000 16.5200   1
 -10   8  -4 -7.8000 15.5700   1
 -10  -8  -4 0.73000 19.5900   1
  10  -8  -4 22.2100 22.0100   1
  13   3   3 1325.51 55.0600   1
  13  -3  -3 1752.87 74.2500   1
 -13   3   3 1579.51 67.8500   1
  13  -3  -3 1762.03 76.7700   1
  13  -3   3 1454.71 62.4700   1
  13   3  -3 1936.47 61.9500   1
   8   0   6 7079.26 169.410   1
  -8   0  -6 6906.36 167.750   1
   8   0  -6 8115.77 175.930   1
   8   0   6 8399.16 207.880   1
 -12   2   4 2870.61 81.8400   1
 -12  -2   4 3054.20 79.1200   1
  12  -2   4 2237.81 70.7800   1
  12  -2  -4 2760.21 86.1700   1
  12   2   4 2178.26 72.2800   1
  12  -2   4 2692.31 83.5400   1
  12   2  -4 2617.92 71.6600   1
  12  -2  -4 2522.19 81.8800   1
  -2  -3   7 2404.07 76.2700   1
  -2  -3  -7 1457.02 80.5200   1
   2  -3  -7 1704.92 75.1200   1
  -2  -3  -7 1981.29 72.5900   1
   2  -3  -7 1763.96 77.4700   1
  -2  -3  -7 2067.19 78.8400   1
  -2  -3  -7 1716.58 89.5500   1
   2  -3   7 2520.72 92.9900   1
   2   3   7 2697.69 109.900   1
  -2   3   7 2158.90 76.9000   1
  -2  -3   7 2501.60 89.6800   1
   2  -3   7 1652.21 67.9300   1
  11  11   1 789.560 40.5300   1
 -11 -11   1 722.240 42.8300   1
  11 -11  -1 688.040 45.8000   1
  11  11  -1 641.100 35.4200   1
  11 -11   1 757.930 44.2700   1
 -11 -11  -1 787.160 44.8700   1
  11 -11   1 541.380 44.0500   1
  11 -11  -1 766.670 48.4800   1
 -11 -11   1 646.470 40.2900   1
 -11 -11  -1 740.230 42.1200   1
  14  -1  -2 686.490 38.5600   1
  14   1   2 894.160 46.5600   1
  14  -1   2 726.620 43.1600   1
  14  -1   2 854.280 41.2800   1
  14   1  -2 1016.40 49.1200   1
 -11   6   4 5909.17 124.770   1
  11  -6  -4 6473.83 153.060   1
  11  -6   4 5811.86 141.720   1
  11   6  -4 5590.13 116.350   1
  11   6   4 5018.53 125.940   1
  11  -6  -4 5795.06 164.390   1
 -11  -6   4 5313.45 114.730   1
  -8   1  -6 40.3700 14.2800   1
  -8   1   6 98.7400 22.0600   1
  -8  -1   6 79.2900 20.6600   1
  -8   1  -6 38.3400 24.7000   1
   8  -1  -6 92.9100 34.2800   1
   8  -1   6 67.6700 18.2700   1
   8   1   6 95.3600 21.8900   1
   8   1   6 61.4400 18.8900   1
   8  -1   6 80.0400 21.0100   1
  -8  -1  -6 62.9600 23.2500   1
  -8  -1  -6 27.1200 19.3500   1
   8   8  -5 639.510 35.3200   1
   8   8   5 561.940 37.0500   1
  -8  -8   5 776.590 43.2000   1
  -8   8   5 605.420 38.0600   1
  -8  -8  -5 522.140 38.1100   1
   8  -8  -5 594.930 41.5300   1
  -8  -8  -5 476.640 44.8300   1
   8  -8   5 849.700 53.5100   1
   5  13   4 1158.76 48.4000   1
  -5 -13   4 1956.44 83.8900   1
  -5 -13  -4 1573.68 90.0400   1
   5  13   4 1383.26 95.3000   1
   5 -13  -4 1392.21 64.8400   1
   5 -13  -4 1509.47 62.0200   1
   5 -13   4 1235.12 71.8600   1
  -5  13   4 1049.86 61.4200   1
   5 -13  -4 1143.59 62.8800   1
   5 -13   4 1383.09 63.3200   1
   5 -13   4 1698.44 78.3000   1
   5 -13  -4 1165.83 66.2000   1
   2 -17   0 54.1300 20.6700   1
  -2 -17   0 122.970 31.2100   1
   2 -17   0 68.8300 21.7500   1
  -2 -17   0 99.5800 30.2800   1
   2 -17   0 72.6200 22.2300   1
  -2 -17   0 100.490 25.2400   1
   0  -4   7 9.21000 16.9900   1
   0  -4  -7 -9.4600 17.9100   1
   0  -4  -7 13.0000 19.4200   1
   0  -4  -7 17.3300 18.0200   1
   0  -4   7 -23.480 19.8000   1
   0   4   7 -35.120 21.8500   1
   0  -4  -7 -0.5700 15.9200   1
  14   5   0 178.930 24.5200   1
  14  -5   0 218.940 24.2900   1
   0 -17   1 2490.21 92.1200   1
   0 -17  -1 2298.26 88.0300   1
   0 -17   1 2505.68 73.9100   1
   0 -17  -1 2604.38 73.1700   1
   0 -17   1 2534.08 74.6500   1
   0 -17   1 3120.49 93.7300   1
   0 -17  -1 2773.74 81.2500   1
  -3  -2   7 326.700 30.9200   1
  -3  -2   7 259.830 27.1000   1
   3  -2   7 188.460 20.7900   1
  -3  -2  -7 222.090 29.8200   1
   3  -2  -7 270.450 28.5600   1
  -3  -2  -7 276.780 30.4000   1
  -3   2  -7 164.420 20.4900   1
  -3  -2  -7 229.710 35.2600   1
   3  -2   7 311.230 32.0200   1
   3   2   7 238.450 31.5600   1
  -3   2   7 280.960 26.9700   1
  10  -4   5 4639.99 120.460   1
  10   4  -5 4971.36 110.100   1
  10   4   5 4927.08 127.900   1
 -10  -4   5 4516.66 99.8500   1
 -10  -4  -5 4003.64 128.830   1
  10  -4  -5 4356.05 112.000   1
  -1  -4  -7 784.960 49.2700   1
  -1  -4  -7 671.990 43.8500   1
   1  -4  -7 663.250 49.9800   1
  -1  -4  -7 612.460 44.8300   1
   1  -4  -7 586.970 47.2200   1
   1  -4   7 1053.75 65.7400   1
   1   4   7 775.430 46.0700   1
  -1   4   7 683.680 40.4000   1
  -1  -4   7 780.540 43.1500   1
  -1  -4   7 756.350 47.0700   1
   1  -4   7 650.420 43.7900   1
   1  -4  -7 677.500 43.2000   1
  -1  -4  -7 551.870 49.2500   1
  -1 -17  -1 4454.03 105.140   1
   1 -17   1 4355.46 108.180   1
  -1 -17  -1 4840.63 138.430   1
   1 -17   1 4488.68 133.740   1
  -1 -17   1 4808.10 125.020   1
  -1 -17   1 4290.06 107.430   1
   1 -17  -1 4483.37 108.180   1
   1 -17  -1 5050.62 130.910   1
  -1 -17   1 5167.25 135.040   1
  -1 -17  -1 5063.21 128.950   1
   1 -17   1 4767.07 119.100   1
   5 -16  -1 53.4500 26.6000   1
   5 -16   1 77.4200 21.2800   1
  -5 -16  -1 73.9200 24.4000   1
  -5 -16  -1 64.2600 21.5000   1
  -5 -16   1 53.5800 24.4500   1
   5 -16   1 60.2800 13.8900   1
   5 -16  -1 120.440 22.1600   1
   5 -16   1 97.3700 20.1000   1
  -5 -16  -1 137.970 31.5500   1
  -5 -16   1 117.580 27.8800   1
   5  16  -1 91.1800 18.7200   1
   5  16   1 95.5000 24.2500   1
   5 -16  -1 61.8600 17.9100   1
   5 -16   1 84.7100 19.6400   1
   5 -16  -1 62.8600 26.9000   1
  14   2   2 4188.31 112.840   1
  14  -2  -2 3893.18 101.930   1
  14   2  -2 4234.81 104.770   1
  14  -2   2 4171.46 126.400   1
  13  -8   0 181.080 24.7800   1
 -13  -8   0 256.890 30.9600   1
  13   8   0 245.070 21.9100   1
  13  -8   0 375.270 40.7800   1
  -8   2  -6 7640.11 191.000   1
  -8  -2  -6 6938.17 177.120   1
  -8  -2  -6 8349.92 166.630   1
   8   2   6 8487.18 213.270   1
  -8  -2  -6 6315.43 174.430   1
   8  -2   6 7766.46 191.100   1
  -6  14   3 514.340 36.2800   1
   6 -14  -3 824.390 52.6100   1
   6  14   3 748.060 41.6200   1
   6 -14  -3 766.100 44.8300   1
   6 -14  -3 596.000 44.0300   1
   6  14   3 641.640 57.4800   1
  -6 -14  -3 761.840 60.4000   1
  -6 -14   3 960.230 62.8200   1
   6  14  -3 890.710 45.7800   1
   6 -14  -3 754.070 51.3000   1
   6 -14   3 658.650 44.7600   1
   6 -14   3 735.130 45.8700   1
  -6 -14  -3 710.090 41.3800   1
  -7  -5   6 987.810 47.7800   1
  -7  -5  -6 630.510 57.6000   1
  -7   5   6 888.130 42.1800   1
  -7   5  -6 591.120 48.1500   1
  -7  -5  -6 655.770 48.2200   1
   7   5  -6 805.010 42.8500   1
  -7  -5  -6 665.190 37.6500   1
   7  -5  -6 771.600 43.7300   1
   7   5   6 694.240 44.7600   1
  -7  -5  -6 648.970 45.2000   1
   7  -5   6 862.670 49.0300   1
   6 -15  -2 431.870 40.3100   1
   6 -15  -2 438.980 44.4900   1
   6 -15   2 397.270 38.9600   1
  -6 -15  -2 439.720 46.2600   1
  -6 -15   2 480.210 38.7200   1
  -6 -15   2 605.700 54.6100   1
   6  15   2 499.730 35.4100   1
  -6 -15  -2 512.940 47.3000   1
   6 -15   2 557.400 42.5700   1
   6 -15  -2 460.140 41.5600   1
   6  15  -2 618.950 40.2900   1
   6  15   2 194.140 39.4900   1
   6 -15  -2 407.970 47.2500   1
   5 -11   5 1121.21 55.8900   1
   5  11   5 981.120 68.1900   1
  -5 -11  -5 900.980 56.2100   1
  -5 -11  -5 791.870 54.2400   1
  -5 -11  -5 892.750 51.8500   1
   5 -11  -5 1298.95 63.5500   1
   5  11   5 813.650 43.8600   1
   5 -11  -5 805.280 52.7300   1
   5 -11  -5 913.440 60.0700   1
  -5  11   5 895.690 46.6600   1
   5  11  -5 1012.20 44.6700   1
  -5 -11   5 1122.13 56.4900   1
  12  -3  -4 348.420 26.5000   1
 -12  -3   4 315.540 20.9000   1
  12  -3  -4 616.920 52.0300   1
 -12   3   4 400.910 37.8700   1
  12  -3   4 389.880 43.1600   1
  12   3  -4 347.300 22.9100   1
  12   3   4 246.920 20.5300   1
   3  -9  -6 30.5000 18.5700   1
  -3  -9  -6 47.1000 27.9400   1
  -3  -9  -6 6.96000 21.4100   1
   3  -9  -6 18.0500 22.7000   1
   3  -9  -6 31.0300 25.3600   1
  -3  -9  -6 30.1000 22.2800   1
  -3  -9   6 23.5200 32.5600   1
   3  -9   6 44.8300 21.7400   1
  -3  -9   6 28.4600 18.6800   1
  -3   9   6 26.4900 22.0900   1
   3   9   6 -2.1300 29.3300   1
   3  -9   6 31.0000 26.8000   1
  12 -10   0 104.970 18.3600   1
 -12 -10   0 237.940 34.2500   1
  12 -10   0 206.240 23.0200   1
  12  10   0 211.360 23.5400   1
   7 -15  -1 491.930 37.9500   1
  -7 -15   1 412.730 40.8200   1
   7 -15   1 437.130 48.2600   1
   7 -15  -1 408.830 38.4100   1
   7 -15  -1 620.020 44.0500   1
  -7 -15  -1 419.740 41.0500   1
   7  15  -1 446.800 32.4900   1
   7 -15   1 491.930 39.5100   1
   7  15   1 546.690 36.3300   1
   7 -15  -1 428.810 43.8000   1
   4 -15  -3 135.480 20.9700   1
   4 -15  -3 213.940 28.9800   1
   4 -15  -3 170.600 26.9900   1
   4 -15   3 198.240 24.6100   1
  -4 -15   3 235.150 31.3500   1
   4  15   3 113.240 22.8200   1
   4 -15   3 136.560 28.3100   1
  -4 -15  -3 105.430 40.8700   1
  -4 -15   3 181.660 41.5500   1
  -4  15   3 130.220 20.6600   1
   4  15   3 132.970 20.0100   1
   4  15  -3 147.850 23.0100   1
  -4 -15  -3 192.420 29.3100   1
   4 -15  -3 109.310 19.9600   1
 -12  -7  -3 3701.35 127.060   1
 -12   7   3 4333.69 107.810   1
  12  -7  -3 4844.55 144.660   1
  12   7   3 3975.97 98.0600   1
  12   7  -3 4370.56 104.480   1
  12  -7   3 4929.72 129.690   1
  12  -7  -3 3676.14 98.6200   1
   3 -12   5 469.510 45.9400   1
  -3 -12   5 363.590 39.8500   1
   3  12   5 274.420 22.2800   1
  -3 -12   5 471.960 48.4500   1
   3 -12   5 190.820 33.2800   1
   3 -12  -5 278.980 28.7400   1
  -3 -12  -5 399.510 41.8200   1
  -3 -12  -5 325.590 27.1500   1
   3 -12  -5 328.600 29.3000   1
  -3 -12  -5 402.950 45.0700   1
   3  12   5 458.310 54.9900   1
  -3  12   5 304.490 28.7000   1
   3 -12  -5 324.800 34.3100   1
   3 -12   5 348.420 28.3100   1
   3 -12  -5 454.850 40.5400   1
 -11  -9  -3 2341.70 65.0200   1
  11  -9  -3 2286.67 84.7400   1
 -11  -9  -3 2408.50 101.310   1
  11  -9  -3 2551.63 88.5100   1
  11  -9   3 2380.38 79.8600   1
  11   9   3 2164.15 63.4300   1
   3 -14   4 1276.83 57.6400   1
   3 -14  -4 1449.24 64.5900   1
   3 -14   4 1686.43 81.3500   1
  -3 -14   4 1698.41 79.1900   1
   3  14   4 1341.91 58.9400   1
  -3  14   4 953.320 49.8900   1
   3  14   4 1020.82 60.9100   1
   3 -14  -4 1249.49 74.1800   1
  -3 -14  -4 1130.13 56.0900   1
   3 -14  -4 1092.31 64.2300   1
  -3 -14  -4 1365.70 84.4100   1
 -13   4   3 2086.00 61.5200   1
  13  -4  -3 2197.91 75.6900   1
  13  -4   3 2496.51 90.4800   1
  13  -4  -3 2147.04 80.2200   1
  13   4   3 2259.30 70.4500   1
  13   4  -3 2726.64 80.2300   1
  -3   3   7 4906.36 143.000   1
  -3   3  -7 3645.48 112.300   1
   3  -3   7 4903.67 145.060   1
   3   3   7 4162.69 129.760   1
  -3  -3   7 5003.51 137.560   1
  -3  -3   7 4191.65 115.270   1
   3  -3   7 4396.93 122.960   1
  -3   3  -7 4480.72 121.540   1
   8 -11  -4 1533.41 71.2500   1
   8  11   4 1467.42 60.4300   1
  -8 -11   4 1761.31 67.8900   1
  -8 -11  -4 1909.83 87.6500   1
  -8  11   4 1823.46 77.3300   1
   8 -11  -4 2023.19 81.8400   1
   8 -11   4 2356.48 75.6300   1
   8  11  -4 1892.77 55.1200   1
   8 -11  -4 2010.56 80.4600   1
  -2  -4  -7 4770.58 120.870   1
  -2  -4  -7 4252.10 113.340   1
   2  -4  -7 5746.14 176.570   1
  -2  -4   7 5706.38 143.900   1
  -2   4   7 4512.13 113.470   1
   2  -4   7 5236.87 139.600   1
  -2 -17   1 54.9900 33.8000   1
   2 -17  -1 146.100 28.9200   1
  -2 -17   1 121.790 26.3500   1
  -2 -17  -1 119.200 25.9200   1
   2 -17  -1 151.010 28.7100   1
   2 -17   1 125.840 24.5600   1
   2 -17   1 131.750 27.5000   1
  -2 -17   1 131.790 24.2200   1
  -2 -17  -1 80.8900 27.3800   1
   2 -17  -1 81.6500 21.0100   1
   2 -17   1 104.400 26.9200   1
 -14  -5  -1 3243.24 105.330   1
  14   5   1 2745.96 80.5300   1
  14  -5  -1 2476.42 69.9400   1
  14   5  -1 2806.15 75.8400   1
  14  -5   1 2662.00 91.7400   1
  14  -5  -1 2700.60 84.1100   1
  14  -5  -1 2124.81 70.0000   1
   4   0  -7 820.350 47.9200   1
  -4   0   7 612.720 50.6600   1
  -4   0   7 763.680 46.5700   1
   4   0   7 817.530 47.3600   1
  -4   0  -7 632.180 50.9300   1
  -4   0  -7 852.020 51.3400   1
  -4   0  -7 1007.90 54.1200   1
  -4   0  -7 470.600 45.9800   1
   4 -16  -2 66.1400 20.0900   1
   4 -16   2 94.0800 24.0700   1
  -4 -16  -2 66.8200 28.8300   1
  -4 -16   2 128.070 32.3400   1
   4  16   2 78.2400 21.1800   1
   4 -16  -2 118.670 28.2000   1
  -4 -16  -2 133.100 31.7100   1
   4 -16   2 114.970 23.8100   1
   4 -16   2 97.4100 20.4900   1
   4  16  -2 40.0400 20.5400   1
   4 -16  -2 83.0300 18.7600   1
   4 -16  -2 85.3100 21.2400   1
  -4  16   2 35.3800 12.1800   1
  -4 -16   2 109.060 26.5200   1
 -14  -3  -2 690.150 50.3200   1
  14   3   2 938.940 45.5600   1
  14  -3   2 1103.15 57.1900   1
  14   3  -2 889.040 42.3800   1
  14  -3  -2 882.970 47.2700   1
  14  -3   2 1075.26 79.2900   1
  -3 -17   0 80.7800 23.7300   1
   3 -17   0 169.520 23.0700   1
  -3 -17   0 148.330 26.9900   1
   3  17   0 172.100 23.3800   1
   3 -17   0 80.0700 21.3800   1
   3 -17   0 101.430 26.3000   1
  -3 -17   0 67.0800 25.9800   1
   4  -1  -7 156.420 24.6500   1
   4   1  -7 184.460 23.6000   1
  -4   1  -7 155.600 23.3900   1
  -4  -1  -7 194.280 29.6600   1
  -4   1  -7 150.200 24.5400   1
  -4  -1  -7 106.150 20.0900   1
  -4  -1  -7 132.200 21.6300   1
   4  -1   7 160.270 24.8800   1
   4   1   7 183.700 30.7200   1
  -4   1   7 205.740 24.8700   1
  -4  -1   7 187.670 26.2200   1
  -4  -1   7 179.900 28.2200   1
   4  -1   7 138.140 18.9100   1
  -8   3  -6 877.930 55.2600   1
  -8  -3  -6 885.520 56.8000   1
  -8  -3  -6 1332.56 56.6400   1
   8  -3  -6 1178.06 60.5800   1
   8   3   6 870.050 49.9900   1
   8  -3   6 1101.90 58.1300   1
  -8  -3  -6 771.910 58.3000   1
  -8   3   6 1378.65 60.6600   1
  -8  -3   6 1154.86 50.7800   1
   8   3  -6 870.310 41.3100   1
  12  -9   2 2855.19 91.6100   1
  12   9   2 2696.41 71.0800   1
  12  -9  -2 2551.07 91.2900   1
 -12  -9  -2 3252.49 93.7400   1
  12  -9  -2 3436.54 109.280   1
  13   8  -1 6332.76 132.070   1
  13   8   1 6563.09 136.860   1
 -13  -8  -1 6029.59 145.690   1
  13  -8  -1 6679.45 168.700   1
  13  -8   1 5882.85 140.650   1
   7 -12  -4 384.740 49.2400   1
   7 -12  -4 291.230 26.1200   1
   7 -12   4 332.560 29.7000   1
   7  12  -4 358.290 38.3200   1
   7  12   4 246.810 20.1700   1
  -7 -12   4 278.650 22.4500   1
  -7  12   4 322.670 27.3900   1
   7 -12  -4 274.430 25.7800   1
   7 -12  -4 278.520 26.9200   1
  -7 -12  -4 230.390 26.7500   1
   9 -10  -4 2662.10 104.440   1
   9 -10   4 2456.51 80.9900   1
  -9 -10   4 2537.00 68.9300   1
  -9  10   4 2588.55 82.0700   1
  -9 -10  -4 2780.71 73.5900   1
   9 -10  -4 2431.57 88.2300   1
  -9 -10  -4 2698.55 105.150   1
  -9  -7  -5 152.010 26.2600   1
   9  -7  -5 209.610 23.6500   1
  -9  -7  -5 225.060 23.2100   1
  -9   7  -5 105.950 19.2300   1
  -9   7   5 250.810 26.6600   1
  -9  -7   5 224.010 19.1000   1
   9   7   5 184.770 20.4300   1
   9   7  -5 312.030 28.5200   1
   9  -7   5 214.840 26.8100   1
   5  -8  -6 1466.79 66.5500   1
  -5  -8  -6 1126.25 68.0600   1
   5  -8   6 1789.78 81.6700   1
  -5  -8   6 2059.71 86.0100   1
  -5  -8   6 1522.43 61.7000   1
  -5   8   6 1328.28 61.9200   1
   5   8   6 1392.07 79.1700   1
   5  -8  -6 1309.81 65.3100   1
  -5  -8  -6 1336.13 76.4600   1
  -5  -8  -6 1547.50 80.5600   1
   5  -8  -6 1510.61 63.4600   1
   9 -13  -2 2170.19 91.2100   1
   9 -13   2 2360.01 83.3600   1
   9 -13   2 1446.00 82.1200   1
   9  13  -2 2134.30 65.6400   1
  -9  13   2 1655.88 64.1200   1
  -9 -13  -2 1709.14 85.1500   1
  -9 -13  -2 1699.74 70.2000   1
  -9 -13   2 2048.98 68.3200   1
   9 -13  -2 1594.97 75.8700   1
  -6  -7  -6 355.030 40.2400   1
   6  -7   6 312.770 24.9000   1
   6   7  -6 372.600 35.5600   1
   6   7   6 335.120 31.2000   1
  -6  -7   6 354.000 35.9900   1
  -6   7   6 363.480 39.4600   1
  -6  -7  -6 314.170 28.9900   1
  -6   7  -6 251.690 29.4800   1
   6  -7  -6 406.100 45.1500   1
  -6  -7  -6 282.710 33.7100   1
   0  -5  -7 3210.17 101.920   1
   0  -5  -7 2952.22 96.8900   1
   0  -5  -7 3100.23 93.5300   1
   0  -5  -7 2732.81 98.6200   1
   0  -5   7 3159.23 93.6100   1
   0   5   7 3365.26 99.8800   1
   0  -5   7 3386.09 98.5200   1
  12  10  -1 1769.92 67.4300   1
  12 -10   1 1752.02 79.3200   1
  12  10   1 1704.85 65.4100   1
  12 -10  -1 950.310 54.6400   1
 -12 -10  -1 1237.47 54.6600   1
  12 -10  -1 1470.42 67.3700   1
  13  -7   2 241.520 25.5500   1
  13  -7  -2 335.100 28.8300   1
 -13  -7  -2 359.170 39.4900   1
  13  -7  -2 362.040 41.0100   1
  13   7   2 326.300 24.1300   1
  13   7  -2 342.040 25.4600   1
  10 -12  -2 1085.31 59.6800   1
  10  12   2 1202.57 56.5300   1
  10  12  -2 1193.27 52.7600   1
  10 -12   2 1056.56 60.8600   1
 -10 -12  -2 925.050 43.9400   1
  10 -12  -2 763.800 56.3400   1
 -10 -12  -2 958.360 54.2400   1
 -10  12   2 1121.16 54.0900   1
  -4  -2  -7 3691.68 125.020   1
   4   2   7 4008.30 123.510   1
  -4   2   7 4152.18 108.690   1
  -4  -2   7 4616.37 144.780   1
   4  -2  -7 3993.13 111.860   1
  -4   2  -7 3595.35 119.230   1
   4  -2   7 3353.58 115.120   1
   4  -2   7 3381.90 96.6900   1
  -4  -2   7 4356.47 116.400   1
  -4   2  -7 4290.05 103.570   1
 -10   5   5 105.700 21.2300   1
  10  -5  -5 71.0400 18.2700   1
 -10  -5   5 89.0100 17.2300   1
 -10   5  -5 42.2000 15.7700   1
  10   5   5 123.910 24.6700   1
  10   5  -5 90.0900 15.9800   1
  10  -5   5 88.2500 23.9900   1
  10  -5  -5 110.490 31.8000   1
   0 -10  -6 1355.37 76.4800   1
   0  10   6 1145.86 61.1700   1
   0 -10   6 1442.89 68.7200   1
   0 -10   6 1204.28 58.2700   1
   0 -10  -6 1154.74 71.4700   1
   0 -10  -6 1509.94 78.3200   1
   0 -10  -6 1492.02 66.7200   1
  -1  -5   7 635.520 42.9300   1
  -1  -5  -7 455.270 41.9600   1
   1  -5  -7 673.180 45.4900   1
  -1  -5  -7 655.350 45.5300   1
  -1  -5  -7 581.440 42.7100   1
   1  -5  -7 689.380 47.1000   1
   1  -5  -7 574.810 53.8900   1
  -1  -5   7 733.010 48.2200   1
   1  -5   7 752.240 55.5200   1
  -1  -5  -7 542.450 42.7700   1
  -1   5   7 655.100 65.6600   1
   1  -5  -7 518.390 43.5600   1
   1  -5   7 605.780 46.7700   1
   1   5   7 594.290 41.8700   1
  12  -4   4 2049.10 76.3900   1
  12  -4  -4 1881.98 69.5200   1
  12   4  -4 2340.69 69.5000   1
 -12   4   4 2290.14 65.5400   1
 -12  -4   4 1783.01 68.5800   1
  12   4   4 2221.95 77.8300   1
  12  -4  -4 1542.60 67.2200   1
   6 -16   0 5355.91 146.480   1
  -6 -16   0 7119.78 189.240   1
   6 -16   0 6730.32 161.630   1
  -6 -16   0 6114.55 155.350   1
   6 -16   0 5780.70 130.250   1
  -1 -10  -6 636.550 50.3800   1
   1 -10   6 774.790 44.6600   1
  -1 -10   6 777.740 50.1300   1
  -1 -10   6 478.630 49.1000   1
   1 -10  -6 926.820 65.2600   1
   1 -10  -6 608.440 41.6300   1
  -1 -10  -6 691.660 43.5200   1
   1 -10  -6 490.310 49.9500   1
  -1 -10  -6 614.540 54.9700   1
  -1 -10  -6 759.030 44.0600   1
   1 -10   6 610.820 45.7200   1
   1 -10  -6 771.900 45.1700   1
  -1  10   6 573.580 42.3600   1
   1  10   6 762.800 48.6800   1
 -11  -7   4 46.6700 16.0300   1
  11  -7  -4 36.4600 14.5600   1
 -11   7   4 37.8600 22.7100   1
 -11  -7  -4 43.4300 21.1500   1
  11  -7  -4 38.9700 23.0400   1
  11   7   4 37.8200 28.2300   1
  11   7  -4 69.2500 19.3100   1
  11  -7   4 50.3100 24.6600   1
  10  13   0 852.290 39.4800   1
  10 -13   0 840.810 48.3100   1
 -10 -13   0 951.680 46.2000   1
  10 -13   0 748.370 48.5700   1
  -9  12   3 773.070 40.7300   1
   9  12  -3 1040.32 51.5900   1
   9  12   3 652.740 37.0000   1
   9 -12  -3 684.090 42.8600   1
  -9 -12  -3 691.490 51.6600   1
   9 -12   3 735.440 49.4700   1
   9 -12  -3 732.630 56.9100   1
  -8  14   2 4908.02 112.320   1
   8  14  -2 5370.53 114.390   1
   8  14   2 5865.15 132.490   1
   8 -14   2 5905.92 141.280   1
   8 -14  -2 5164.83 136.950   1
  -8 -14   2 5601.79 142.400   1
  -8 -14  -2 5164.89 139.990   1
   8 -14   2 4563.73 143.010   1
   8 -14  -2 4776.76 133.970   1
   8 -14  -2 4737.75 110.600   1
   8 -14  -2 4251.36 130.720   1
  -3  -4   7 297.770 29.0300   1
   3   4   7 286.200 32.2400   1
  -3  -4   7 265.970 25.5500   1
  -3  -4  -7 296.130 28.4400   1
  -3   4   7 287.330 29.6200   1
   3  -4   7 362.560 45.1300   1
  -3  -4  -7 196.010 24.7400   1
   3  -4   7 336.880 31.3800   1
   3  -4  -7 280.590 27.6600   1
  -3   4  -7 259.260 22.4100   1
   3  -4  -7 219.550 26.3700   1
  -3  -4  -7 147.240 20.0100   1
   3 -17  -1 6287.88 142.690   1
   3 -17   1 6334.74 133.990   1
  -3 -17  -1 6127.75 141.120   1
  -3 -17   1 6277.16 108.580   1
   3 -17  -1 5829.30 135.980   1
   3 -17  -1 5782.34 115.670   1
   3 -17   1 6052.70 112.490   1
  -3 -17  -1 6312.92 141.490   1
  -3 -17   1 5879.98 118.170   1
   3  17  -1 5303.76 99.9500   1
   3  17   1 5737.18 102.240   1
   3 -17   1 5466.80 102.880   1
   3 -17  -1 5395.01 91.4100   1
   0  16   3 16.3900 29.9500   1
   0 -16  -3 -13.310 30.5000   1
   0 -16  -3 0.40000 32.8000   1
   0 -16   3 9.51000 32.1100   1
   0 -16  -3 -2.4500 38.2600   1
   0 -16   3 -7.2600 32.4400   1
   0 -16   3 -3.4300 36.7700   1
   0 -16  -3 -0.1500 31.1500   1
   0 -16  -3 17.6200 34.4100   1
  -9 -14   0 188.500 36.1100   1
   9  14   0 355.400 40.1700   1
   9 -14   0 236.730 38.4000   1
   9 -14   0 259.520 41.7600   1
  -4  -9   6 2239.90 88.3600   1
  -4  -9   6 1795.21 61.6400   1
  -4  -9  -6 1395.80 64.3500   1
   4  -9   6 2002.62 74.6600   1
   4  -9  -6 1630.71 61.3900   1
   4  -9  -6 2028.49 65.2700   1
  -4  -9  -6 1887.72 79.4900   1
  -4  -9  -6 1417.17 58.3500   1
   4  -9  -6 1763.17 88.7200   1
   4  -9   6 1838.30 92.7600   1
   4   9   6 1857.49 87.7600   1
  -4   9   6 1735.19 67.9500   1
   7   6   6 223.860 33.3000   1
  -7  -6   6 287.830 38.4000   1
  -7  -6  -6 259.540 34.8000   1
  -7  -6  -6 359.080 38.3200   1
   7  -6  -6 278.070 36.8400   1
  -7   6   6 324.730 38.2600   1
  -7  -6  -6 219.260 36.7800   1
  -7  -6  -6 290.610 42.0700   1
  -7   6  -6 242.800 38.9700   1
   7  -6   6 342.180 38.9400   1
   7   6  -6 318.990 35.3300   1
  -4 -12  -5 2939.62 108.090   1
   4 -12  -5 3348.82 108.400   1
   4 -12  -5 3676.56 77.2900   1
  -4 -12  -5 3159.94 101.970   1
  -4 -12  -5 3036.43 97.7800   1
   4 -12  -5 3308.18 114.910   1
  -4  12   5 3279.44 82.0500   1
   4 -12   5 3509.76 80.7200   1
   8 -13  -3 127.650 33.6800   1
   8 -13  -3 139.340 35.0900   1
   8 -13  -3 151.300 35.1700   1
   8 -13   3 126.880 34.8900   1
  -8 -13  -3 181.980 41.1900   1
   8  13   3 217.780 34.4000   1
   8  13  -3 142.370 32.4700   1
   8 -13   3 160.180 37.0100   1
   8 -13  -3 167.840 36.8100   1
  -8  13   3 172.620 33.9500   1
  14   4   2 2550.60 74.2600   1
  14  -4  -2 2412.31 76.6300   1
 -14  -4  -2 1962.36 71.7600   1
  14  -4   2 2382.74 73.8100   1
  11   0  -5 -1.2600 30.9300   1
  11   0   5 -16.950 36.0000   1
  11   0   5 -26.800 32.1800   1
 -11   0   5 2.26000 31.7600   1
 -11   0  -5 -1.2300 30.0300   1
   1 -16   3 299.290 39.4200   1
  -1 -16  -3 330.040 51.5500   1
   1 -16  -3 226.290 38.0400   1
  -1 -16  -3 398.630 43.5100   1
   1 -16  -3 326.850 39.4700   1
   1 -16   3 322.130 40.1500   1
   1 -16  -3 367.570 41.1000   1
  -1 -16  -3 337.210 38.6900   1
  -1 -16   3 281.640 36.8200   1
  -1 -16   3 361.000 46.6800   1
  -1  16   3 176.470 34.1600   1
  -1 -16  -3 307.860 39.2900   1
   1 -16  -3 225.120 37.5200   1
   1 -16  -3 317.010 36.6000   1
   1  16   3 186.480 38.6500   1
   1 -16   3 312.860 38.8700   1
  -1 -16   3 245.920 36.4500   1
  13  -5  -3 140.260 35.0500   1
 -13   5   3 123.900 35.3700   1
  13  -5  -3 90.4600 34.4700   1
  13   5   3 96.1800 35.3400   1
  13  -5   3 112.580 35.1100   1
  13   5  -3 121.860 32.8600   1
   8  -4  -6 931.590 41.0500   1
  -8   4  -6 725.880 58.6700   1
  -8  -4  -6 693.000 45.9000   1
  -8  -4  -6 745.960 38.7100   1
  -8   4   6 873.020 42.5000   1
  -8  -4   6 876.440 34.2700   1
   8   4   6 653.550 42.3200   1
   8   4  -6 761.030 40.8600   1
   8  -4   6 693.740 37.5400   1
  -8  -4  -6 846.370 35.3300   1
   4  14   4 1386.83 52.6400   1
  -4 -14   4 1692.12 69.1200   1
  -4  14   4 1196.57 49.9500   1
  -4 -14  -4 1187.18 68.3600   1
   4 -14   4 1341.54 50.4900   1
   4 -14  -4 1107.50 52.3100   1
   4 -14   4 1509.98 61.2500   1
   4  14   4 1168.12 69.7700   1
   4 -14  -4 1326.45 60.4400   1
   4 -14  -4 1133.34 44.3800   1
  -2  -5  -7 953.170 42.6900   1
   2  -5  -7 835.800 42.2900   1
  -2  -5  -7 871.880 42.7800   1
   2  -5  -7 663.470 41.8700   1
  -2  -5  -7 774.810 51.7600   1
   2  -5   7 722.030 40.4200   1
  -2  -5   7 795.630 49.7900   1
  -2   5   7 705.170 35.8800   1
  -2  -5   7 783.110 38.0100   1
   2   5   7 1045.02 56.1200   1
   2  -5   7 1057.93 56.5900   1
  -2  -5  -7 711.760 57.0600   1
   2  -5  -7 649.550 43.5300   1
  15   0   0 15.1900 36.7400   1
   6  13  -4 531.560 40.1400   1
   6  13   4 395.160 36.1400   1
  -6  13   4 429.190 38.9600   1
   6  13   4 271.650 42.1000   1
   6 -13  -4 277.070 36.2800   1
   6 -13  -4 288.090 37.0300   1
   6 -13  -4 245.920 38.0400   1
   6 -13   4 226.080 38.3400   1
  -6 -13  -4 295.570 41.8700   1
   6 -13  -4 533.700 52.9000   1
   6 -13   4 372.190 37.2200   1
  -6 -13   4 551.490 52.1800   1
 -10  -9  -4 5307.25 144.030   1
  10  -9   4 6322.66 120.620   1
  10   9   4 6090.60 103.400   1
 -10  -9   4 5697.85 105.650   1
 -10   9   4 5621.58 82.3200   1
  10  -9  -4 5752.71 119.150   1
  -7 -10   5 5363.95 88.1100   1
   7 -10  -5 5950.11 144.950   1
  -7 -10  -5 4642.61 123.540   1
   7 -10  -5 6184.45 107.360   1
   7 -10  -5 4999.10 116.900   1
   7 -10   5 5908.68 113.430   1
  11  -1   5 3712.45 104.110   1
  11   1   5 4124.95 102.560   1
  11   1   5 4180.54 117.060   1
  11  -1  -5 3984.68 93.1200   1
 -11   1   5 4071.76 69.6900   1
 -11  -1   5 4117.41 74.2200   1
  11  -1   5 4078.46 102.850   1
  11  -1  -5 3600.41 85.1700   1
  11   1  -5 4071.06 89.3400   1
  -4   3   7 153.350 37.2300   1
  -4  -3   7 177.210 37.6700   1
  -4  -3   7 226.440 40.5900   1
   4  -3   7 147.700 33.7400   1
  -4   3  -7 179.300 35.2900   1
   4  -3  -7 178.200 37.3400   1
  -4  -3  -7 94.7300 31.7300   1
  -4   3  -7 135.590 33.7400   1
  -4  -3  -7 94.9000 32.8500   1
   4  -3   7 159.860 36.8300   1
   4   3   7 189.980 41.6500   1
  -4  -3  -7 144.850 35.3200   1
 -10 -11  -3 134.970 34.9100   1
 -10  11   3 222.090 37.9700   1
  10 -11  -3 235.090 39.7000   1
  10  11  -3 210.100 37.3200   1
  10 -11   3 183.400 37.1000   1
  10 -11  -3 104.370 37.1600   1
 -10 -11  -3 101.390 36.3200   1
  10  11   3 136.330 35.4200   1
 -11 -11  -2 777.550 36.9000   1
  11 -11  -2 1179.10 64.9100   1
  11 -11   2 1043.06 46.4800   1
 -11 -11  -2 771.420 34.0500   1
  11 -11  -2 743.040 46.6800   1
   2 -10   6 2182.95 102.480   1
   2 -10  -6 1875.23 88.3300   1
  -2 -10  -6 2492.47 74.5100   1
   2 -10  -6 2316.58 63.3700   1
   2 -10   6 2538.28 73.8200   1
  -2 -10   6 2570.69 80.2900   1
  -2 -10  -6 1774.45 74.2800   1
   2 -10  -6 2138.64 81.1300   1
  -2 -10  -6 1853.83 74.7900   1
  -2 -10   6 1650.52 65.6300   1
  -2  10   6 2530.80 79.7200   1
   2  10   6 2101.29 83.2600   1
  11 -12   0 3422.18 93.1600   1
  11  12   0 3368.69 68.6300   1
 -11 -12   0 2878.81 72.8200   1
 -11 -12   0 3279.74 80.2200   1
  11 -12   0 2795.99 92.9700   1
  15   1   0 4509.76 85.6900   1
   5  15   3 2291.77 55.8500   1
   5 -15   3 2201.34 90.7100   1
  -5 -15  -3 2167.90 77.0000   1
   5 -15  -3 1742.47 63.5700   1
   5 -15   3 2461.56 69.7600   1
  -5 -15   3 2232.93 74.1300   1
  -5 -15  -3 1897.37 66.7300   1
   5 -15  -3 2117.37 85.2400   1
   5 -15  -3 2056.92 65.0300   1
   5  15   3 2304.37 103.310   1
   5 -15  -3 2368.22 85.8100   1
   5  15  -3 2270.74 62.2500   1
  -4 -17   0 310.130 40.9700   1
   4 -17   0 298.310 37.6800   1
  -4 -17   0 314.550 44.1000   1
   4  17   0 277.850 37.6000   1
   4 -17   0 264.650 39.1700   1
   4 -17   0 314.460 39.7000   1
   4 -17   0 343.200 41.2600   1
   0 -13  -5 1161.61 59.4900   1
   0 -13  -5 1588.16 52.6000   1
   0 -13  -5 1041.78 52.3100   1
   0 -13  -5 1123.82 51.0200   1
   0  13   5 1294.68 83.3400   1
   0 -13   5 1413.96 54.9100   1
   8   9  -5 4093.57 74.8000   1
   8  -9   5 4269.75 94.7300   1
   8  -9  -5 4139.74 107.330   1
  -8  -9  -5 4560.22 87.8800   1
  -8   9   5 4606.66 85.9500   1
   8   9   5 4141.17 117.190   1
  -8  -9   5 4010.42 76.0700   1
   6 -16  -1 1017.76 49.9700   1
   6 -16   1 930.440 42.0600   1
  -6 -16   1 1238.40 61.1100   1
   6  16  -1 1145.19 46.2700   1
   6  16   1 804.070 31.8000   1
   6 -16  -1 762.640 47.4300   1
  -6 -16  -1 895.750 51.1300   1
   6 -16   1 863.630 35.3400   1
   6 -16  -1 1115.80 43.9800   1
   6 -16  -1 887.550 48.9500   1
   6 -16   1 942.050 67.7700   1
  -6 -16  -1 1009.32 48.7600   1
  -6 -16  -1 932.080 39.1700   1
  -6 -16   1 996.900 40.7100   1
  14   6  -1 272.720 35.6100   1
  14   6   1 283.940 37.1400   1
  14  -6   1 234.970 37.7400   1
  14  -6  -1 312.480 39.4400   1
  14  -6  -1 195.390 35.2100   1
  14  -6  -1 159.210 34.6700   1
 -14  -6  -1 233.480 39.1800   1
   0 -17   2 17.3400 40.5100   1
   0 -17  -2 -24.490 34.4000   1
   0 -17   2 7.69000 31.9800   1
   0 -17  -2 5.24000 30.2300   1
   0 -17  -2 15.0100 35.5900   1
   0 -17   2 1.00000 36.0400   1
   0 -17  -2 14.8200 39.2700   1
  10 -13  -1 242.550 36.3000   1
  10  13  -1 335.980 40.4200   1
  10 -13   1 357.950 42.9400   1
  10 -13  -1 226.760 35.7700   1
 -10 -13  -1 287.560 39.1200   1
 -10 -13   1 336.990 45.6500   1
  10 -13   1 244.690 38.2000   1
  10  13   1 430.380 45.1300   1
  -1 -13  -5 1618.13 73.1600   1
   1 -13  -5 1275.85 62.7100   1
  -1 -13  -5 1724.57 55.4700   1
   1 -13  -5 1670.20 50.3400   1
  -1 -13  -5 1528.85 74.2700   1
   1 -13  -5 1548.38 65.7600   1
  -1 -13  -5 1290.27 67.6800   1
   1 -13  -5 1199.69 52.8800   1
   1  13   5 1489.95 60.6700   1
   1 -13   5 1819.16 61.0700   1
  -1  13   5 1335.58 66.5600   1
  11  -2  -5 124.240 32.9200   1
  11   2   5 124.150 32.9100   1
  11  -2  -5 121.280 37.2100   1
 -11   2   5 158.630 35.1700   1
 -11  -2   5 98.0800 31.8800   1
  11  -2   5 100.180 34.3200   1
 -11  -2  -5 76.1900 31.5300   1
  11   2  -5 158.260 33.7600   1
  11  -2   5 153.740 36.4100   1
  11   2   5 143.700 33.7500   1
  -6  11   5 3768.05 84.8300   1
  -6 -11  -5 3049.24 94.7100   1
   6 -11  -5 3554.79 102.560   1
   6 -11  -5 3502.14 81.4200   1
   6 -11  -5 3523.79 94.0100   1
  -6 -11   5 3795.65 83.0800   1
  -2 -16   3 604.180 47.6300   1
   2 -16  -3 779.220 42.9100   1
   2 -16   3 696.680 34.2000   1
  -2 -16  -3 437.160 41.3400   1
   2 -16  -3 480.330 45.3200   1
   2 -16  -3 599.080 45.7000   1
   2  16   3 356.470 47.0000   1
  -2 -16  -3 469.610 40.8000   1
  -2 -16   3 759.660 36.7200   1
  -2  16   3 394.660 40.4900   1
  -2 -16   3 762.490 45.3200   1
   2 -16   3 697.020 37.4300   1
   2 -16  -3 516.760 44.5500   1
   2 -16   3 756.770 39.3500   1
  -2 -16  -3 565.890 46.3500   1
   2 -16  -3 640.630 53.2700   1
   5   0  -7 -6.0100 32.8800   1
  -5   0  -7 0.02000 31.3200   1
  -5   0  -7 2.25000 31.8900   1
  -5   0  -7 0.82000 33.8200   1
  -5   0   7 35.5200 35.6100   1
  -5   0   7 6.69000 34.3400   1
   8 -15   0 763.970 42.4800   1
  -8 -15   0 938.830 45.6200   1
   8 -15   0 955.500 45.6500   1
   9  14  -1 221.380 35.6900   1
   9 -14   1 329.790 43.3300   1
   9 -14  -1 302.700 37.6700   1
   9  14   1 310.620 35.0000   1
   9 -14   1 223.370 42.1000   1
  -9 -14  -1 227.460 39.5400   1
  -9 -14   1 291.420 39.8800   1
   1 -17  -2 4131.30 120.530   1
  -1 -17  -2 3432.69 102.210   1
   1 -17  -2 3680.81 93.1300   1
  -1 -17  -2 3954.42 97.2800   1
   1 -17   2 3780.89 89.4100   1
  -1 -17   2 3972.22 92.9100   1
   1 -17   2 4110.14 86.6600   1
  -1 -17   2 3873.33 84.0600   1
  -1 -17  -2 4083.81 87.3100   1
  -5 -16   2 41.6100 38.2100   1
  -5 -16  -2 20.7600 35.6100   1
  -5 -16  -2 -8.1700 37.7000   1
   5 -16  -2 31.5200 33.2900   1
   5 -16   2 -0.5600 34.1700   1
  -5 -16   2 -7.4500 39.2200   1
   5  16  -2 -3.3300 34.1600   1
   5  16   2 20.7600 33.1300   1
  -5  16   2 9.78000 28.6700   1
   5 -16  -2 35.6600 34.1000   1
   5 -16  -2 11.8400 37.4100   1
   5 -16  -2 36.9000 37.9200   1
   5 -16   2 13.2900 31.9500   1
  12  -8  -3 2413.44 88.0100   1
  12  -8   3 1879.56 59.9100   1
  12   8  -3 2261.82 60.0600   1
  12   8   3 1875.78 51.3000   1
 -12   8   3 1966.03 55.0200   1
  12  -8  -3 1737.75 65.8400   1
  13  -9   0 872.220 43.1700   1
  13   9   0 885.070 35.6700   1
  13  -9   0 889.540 56.8200   1
 -13  -9   0 841.400 38.0600   1
  15  -2   0 755.610 38.9200   1
  15   2   0 893.530 44.5200   1
  -5  -1  -7 311.100 45.7900   1
   5   1  -7 401.100 41.1300   1
  -5   1  -7 471.840 40.2700   1
  -5  -1  -7 351.920 37.6800   1
  -5  -1   7 395.200 49.2200   1
  -5  -1   7 405.690 38.9300   1
  -5  -1  -7 312.160 44.5100   1
  -5   1   7 436.000 41.3700   1
  -5   1  -7 445.670 47.7500   1
  -5  -1  -7 325.780 44.7500   1
   5  -1  -7 453.340 45.6000   1
   5  -1   7 293.470 38.6000   1
  12   5  -4 1942.48 54.0600   1
  12  -5  -4 1682.97 66.1100   1
 -12  -5   4 1621.40 45.2300   1
 -12   5   4 2014.12 53.9900   1
  12  -5  -4 1707.66 61.9200   1
  12  -5   4 1955.31 76.0600   1
   0  -6   7 -6.8000 33.1000   1
   0  -6  -7 -17.500 36.9100   1
   0  -6  -7 11.5900 34.7500   1
   0  -6  -7 -13.460 33.8400   1
   0  -6   7 9.89000 34.0800   1
   0   6   7 8.78000 38.9400   1
   0  -6  -7 -12.360 36.6700   1
  -7  14   3 74.7000 32.5500   1
   7 -14  -3 30.3900 31.3300   1
   7 -14  -3 42.7700 35.0200   1
   7 -14   3 46.6600 32.5300   1
   7 -14  -3 61.9700 38.0000   1
   7  14  -3 63.8400 33.1200   1
   7 -14   3 70.5300 36.8300   1
   7 -14  -3 93.7000 35.7500   1
   7  14   3 39.0600 32.1000   1
  -7 -14  -3 47.9400 38.2300   1
  15   0  -1 -11.720 31.0000   1
  15   0   1 -11.690 35.0700   1
   7 -15  -2 5233.60 136.750   1
   7  15   2 5816.41 98.0400   1
   7 -15   2 6096.35 116.880   1
   7 -15  -2 5398.71 118.140   1
   7 -15  -2 5490.52 147.200   1
  -7 -15  -2 5779.11 124.780   1
   7 -15  -2 5343.71 91.6300   1
  10   6   5 1219.23 48.6400   1
 -10  -6   5 1554.07 48.9600   1
  10  -6  -5 1125.73 52.8800   1
 -10   6   5 1345.83 43.3000   1
 -10  -6  -5 1147.25 45.7800   1
  10  -6   5 1296.74 52.7100   1
  10   6  -5 1508.94 50.6200   1
  -1  -6  -7 2177.10 88.7400   1
   1  -6   7 3071.12 87.8400   1
  -1  -6  -7 2629.42 71.9800   1
   1  -6  -7 2774.94 92.5000   1
  -1   6   7 2525.56 74.5500   1
  -1  -6   7 2826.61 80.8000   1
   1   6   7 2392.86 77.7700   1
   1  -6   7 2767.96 75.6200   1
   1  -6  -7 2163.06 85.5600   1
   1  -6  -7 2824.48 107.880   1
  -1  -6  -7 2472.16 84.8600   1
  -1  -6   7 2833.50 85.6400   1
  -3   5  -7 1484.17 49.5700   1
   3  -5  -7 1483.73 61.6400   1
  -3  -5  -7 1382.74 69.0900   1
  -3  -5  -7 1475.94 72.1500   1
   3  -5   7 1412.54 50.0700   1
  -3  -5   7 1573.65 60.5400   1
  -3  -5   7 1664.30 59.5300   1
  -3   5   7 1643.50 60.0000   1
   3   5   7 1769.48 74.0900   1
   3  -5   7 1875.67 74.7300   1
  -3  -5  -7 1494.16 62.6600   1
   3  -5  -7 1493.57 53.9700   1
   0 -15  -4 18.1100 34.6800   1
   0 -15  -4 -4.4100 35.0200   1
   0  15   4 -1.0400 32.2400   1
   0 -15   4 10.2200 35.9200   1
   0 -15   4 -23.240 36.4700   1
   0 -15  -4 -8.7700 32.4700   1
   0 -15  -4 5.88000 33.5200   1
   9   0   6 -3.1700 31.6700   1
   9   0  -6 0.36000 36.5300   1
  -9   0  -6 -0.2700 31.3200   1
   9   0   6 7.09000 33.2500   1
  -9   0  -6 -11.350 31.3300   1
  -9   0   6 -6.5000 31.3400   1
  11  12   1 204.590 37.9700   1
 -11 -12   1 146.920 35.3800   1
 -11 -12  -1 133.890 34.8800   1
  11 -12  -1 91.6600 33.9100   1
  11 -12   1 94.4800 32.9100   1
  11 -12   1 170.250 36.5000   1
 -11 -12  -1 152.720 35.8700   1
  11  12  -1 134.920 35.1200   1
  11 -12  -1 178.130 36.5300   1
 -11 -12   1 184.910 40.2900   1
  15   1  -1 1029.46 45.3900   1
  15   1   1 843.650 43.6800   1
  15  -1  -1 1050.91 43.6500   1
  15  -1   1 839.480 46.7400   1
 -15  -1  -1 546.090 45.5700   1
   4  -4   7 6088.22 122.520   1
  -4   4   7 6835.42 143.950   1
   4  -4   7 6594.28 165.350   1
  -4  -4  -7 5714.94 157.770   1
  -4   4  -7 5333.10 129.670   1
  -4  -4  -7 6041.17 139.250   1
  -4   4  -7 6406.94 112.370   1
   4  -4  -7 6377.28 132.300   1
   2  13   5 221.730 39.6000   1
   2 -13  -5 200.380 36.7100   1
  -2  13   5 230.850 40.5500   1
  -2 -13   5 304.260 44.2300   1
   2 -13   5 255.940 37.9600   1
   2 -13   5 196.630 35.1000   1
  -2 -13  -5 182.510 39.0700   1
   2 -13  -5 177.450 37.9800   1
   2 -13  -5 209.480 37.2700   1
  -2 -13  -5 180.930 34.9900   1
  -2 -13  -5 215.710 36.3500   1
   2 -13  -5 173.280 38.4800   1
   4  17  -1 22.5100 34.2200   1
  -4 -17   1 30.4500 37.9800   1
  -4 -17  -1 9.51000 39.8800   1
   4 -17   1 -7.9300 37.0900   1
   4 -17  -1 -19.430 36.0700   1
   4 -17  -1 -7.3000 29.9300   1
  -4 -17   1 22.3100 37.0100   1
  -4 -17  -1 -0.8900 38.1600   1
   4 -17   1 2.37000 33.2800   1
   4 -17  -1 30.7500 36.5700   1
   4 -17  -1 13.0900 33.8800   1
   4 -17   1 9.66000 34.4200   1
   4  17   1 20.2500 32.7000   1
  -5  -2   7 930.730 43.2500   1
  -5   2  -7 645.630 52.8500   1
  -5  -2  -7 670.590 45.8400   1
  -5  -2  -7 1012.93 43.2500   1
   5  -2   7 685.640 40.7300   1
   5  -2  -7 811.790 39.0400   1
  -5  -2   7 835.120 58.9700   1
  -5   2  -7 517.300 38.5000   1
  -5   2   7 921.910 47.9100   1
  -5  -2  -7 513.280 47.8600   1
   5   2   7 912.400 67.6500   1
  -5  -2  -7 554.320 49.3600   1
   3 -10   6 943.790 63.3300   1
   3 -10  -6 891.290 49.3200   1
  -3 -10  -6 936.100 55.1300   1
  -3 -10  -6 1006.86 58.5500   1
   3 -10  -6 1135.13 47.4800   1
   3 -10  -6 1072.54 55.4600   1
   3  10   6 1472.99 82.9000   1
  -3  10   6 1329.75 55.3000   1
  -3 -10   6 1299.13 49.7400   1
  -3 -10   6 1498.82 67.4000   1
   3 -10   6 1260.47 52.9900   1
  -3 -10  -6 1118.65 61.2500   1
   9   1   6 6985.83 148.330   1
   9  -1   6 6373.70 136.520   1
   9   1   6 8093.57 172.090   1
   9  -1   6 7660.79 155.430   1
  -9  -1  -6 5987.48 145.320   1
  -9  -1  -6 5984.15 145.510   1
   2 -17  -2 1050.73 53.0300   1
  -2 -17   2 1332.00 60.7900   1
  -2 -17  -2 1217.67 52.5300   1
   2 -17   2 1310.47 57.7000   1
   2 -17  -2 976.620 47.7100   1
  -2 -17   2 1327.32 54.6500   1
   2 -17   2 1124.11 51.9700   1
  -2 -17  -2 963.170 43.4600   1
   2 -17  -2 1219.47 61.1400   1
  -2 -17   2 1207.71 44.4000   1
   2 -17  -2 1195.39 48.1900   1
   2 -17   2 1054.93 43.1700   1
 -14  -5  -2 109.440 35.3200   1
  14  -5   2 111.450 33.6100   1
  14  -5  -2 154.310 38.3400   1
  14  -5  -2 171.690 41.2900   1
  14   5   2 170.880 40.5500   1
  14   5  -2 151.450 34.8900   1
   1 -15   4 6946.47 113.010   1
  -1  15   4 6806.39 156.090   1
  -1 -15  -4 7244.16 145.880   1
   1 -15  -4 6427.73 132.240   1
  -1 -15  -4 6665.54 151.420   1
   1 -15  -4 6519.81 148.820   1
   9   8   5 2629.67 72.8900   1
   9  -8   5 2694.51 84.8400   1
   9  -8  -5 2255.33 73.2500   1
  -9  -8   5 2901.14 69.0700   1
  11  -3   5 3577.09 103.440   1
  11  -3  -5 4137.75 108.710   1
  11  -3  -5 3764.45 90.2800   1
  11 -10  -3 1116.44 48.6100   1
 -11 -10  -3 1448.32 47.7700   1
 -11  10   3 1148.72 37.6000   1
  11  10   3 1365.92 46.2300   1
  11  10  -3 1401.69 39.9500   1
  11 -10   3 1426.58 57.3600   1
  11 -10  -3 1411.77 61.9900   1
 -11 -10  -3 1142.31 68.9400   1
  -8   5  -6 1574.15 66.2900   1
   8  -5  -6 1789.13 60.7200   1
   8   5  -6 2314.34 61.8000   1
  -8  -5  -6 1971.33 78.2200   1
  -8  -5  -6 1719.80 42.8800   1
  -8  -5  -6 1795.97 75.2100   1
  -8  -5   6 2111.07 56.4700   1
  -6  -8   6 132.960 35.0700   1
   6   8  -6 90.2100 30.6700   1
   6  -8  -6 93.7500 35.7800   1
   6  -8  -6 117.000 34.4100   1
  -6  -8  -6 102.390 33.8300   1
  -6  -8  -6 71.7500 34.1100   1
   6  -8   6 126.770 35.8900   1
  -6  -8   6 75.3100 42.1100   1
  -6  -8  -6 72.5400 33.8200   1
  -6   8   6 105.880 38.1200   1
  15   3   0 3657.18 80.7600   1
  14   7   0 381.690 36.2000   1
  14  -7   0 482.770 40.9300   1
 -14  -7   0 438.910 43.5100   1
  14  -7   0 288.360 39.0000   1
  -8 -15   1 287.000 41.5700   1
   8  15   1 253.090 35.9100   1
   8 -15  -1 286.550 37.7900   1
   8 -15  -1 145.930 33.5900   1
   8  15  -1 321.620 39.6700   1
   8 -15   1 254.360 39.7400   1
   8 -15  -1 246.240 37.5800   1
   8 -15   1 189.660 34.5600   1
  -8 -15  -1 253.660 37.9900   1
  12 -11   0 651.400 39.8800   1
  12  11   0 656.240 34.8000   1
 -12 -11   0 576.660 41.3800   1
  12 -11   0 355.660 40.3300   1
 -12 -11   0 619.090 46.1300   1
  13  -9  -1 170.200 34.0700   1
  13  -9   1 166.880 38.3900   1
  13   9  -1 223.190 37.2300   1
  13  -9  -1 141.820 33.0300   1
 -13  -9  -1 155.750 36.5500   1
  13   9   1 207.530 37.5400   1
  15  -2  -1 1031.27 42.4600   1
  15   2   1 802.050 32.3800   1
  15  -2   1 1056.21 45.3300   1
  15   2  -1 1147.05 47.1400   1
 -15  -2  -1 730.190 47.1600   1
  15  -2   1 1007.35 46.6900   1
  13   8   2 1047.72 37.4400   1
  13  -8   2 1369.20 59.7400   1
  13  -8  -2 1317.90 62.1400   1
 -13  -8  -2 1009.49 45.8800   1
  -3 -16   3 684.220 37.9100   1
   3 -16   3 556.810 42.0700   1
   3 -16  -3 514.080 45.5800   1
   3 -16   3 795.130 47.2400   1
  -3 -16  -3 659.300 48.3900   1
  -3 -16   3 704.860 46.2800   1
   3  16   3 557.710 38.2900   1
  -3  16   3 427.370 49.7800   1
   3  16   3 437.860 47.8400   1
   3 -16  -3 494.360 43.7000   1
   3 -16  -3 301.150 35.5600   1
  -3 -16  -3 478.640 47.0500   1
   3 -16  -3 578.850 50.3200   1
  -3 -16   3 490.090 39.4600   1
   3 -16  -3 566.120 43.2700   1
   3 -16   3 524.940 42.4600   1
   3 -16   3 439.980 46.1000   1
  13  -6   3 3414.24 94.4800   1
  13   6   3 3767.13 90.3200   1
 -13   6   3 3243.36 64.6800   1
   5  -9   6 1450.76 57.8700   1
  -5  -9   6 1515.76 63.0200   1
  -5  -9   6 1237.15 43.5000   1
  -5   9   6 1375.43 44.0300   1
   5   9   6 1116.22 68.4300   1
  -5  -9  -6 1251.57 55.6600   1
  -5  -9  -6 1185.27 54.1400   1
   5  -9  -6 1094.38 50.8400   1
  -5  -9  -6 1123.79 59.3600   1
   5  -9  -6 1183.96 46.9200   1
   5  -9  -6 984.370 46.1500   1
   9   2   6 756.120 43.0200   1
   9  -2   6 670.920 40.7700   1
   9   2   6 567.190 47.8500   1
  -9  -2  -6 421.360 43.8100   1
   9  -2  -6 720.720 47.8300   1
  -9  -2  -6 699.900 44.7400   1
  -9   2  -6 394.980 45.1700   1
  -9   2  -6 690.800 50.8000   1
  -9   2   6 832.910 33.2500   1
  -9  -2   6 902.600 38.7400   1
  -2  -6  -7 205.840 37.2900   1
   2  -6  -7 241.000 35.8100   1
  -2  -6  -7 238.590 40.2500   1
  -2  -6  -7 159.470 38.7000   1
   2  -6  -7 205.500 35.4000   1
   2  -6   7 286.210 49.5900   1
   2   6   7 213.200 39.4000   1
  -2   6   7 164.580 36.1000   1
  -2  -6   7 257.440 43.8800   1
  -2  -6   7 208.110 41.1800   1
   2  -6   7 226.320 36.8000   1
  -2  -6  -7 195.410 37.2100   1
   2  -6  -7 165.200 37.3400   1
   5 -12   5 1415.66 52.2200   1
  -5 -12   5 1540.06 62.1300   1
   5  12  -5 1198.96 41.5700   1
  -5  12   5 1189.60 57.9700   1
   5  12   5 1359.22 79.1100   1
   5 -12  -5 1035.97 49.7100   1
  -5 -12  -5 1278.49 71.7200   1
  -5 -12  -5 1224.17 55.4600   1
   5 -12  -5 1421.94 81.7600   1
  -5 -12  -5 1211.62 66.7300   1
  14   0   3 73.2400 36.9700   1
  14   0   3 75.7300 34.1800   1
  14   0  -3 120.380 39.0700   1
 -12 -10  -2 393.060 38.1000   1
  12 -10  -2 438.250 43.3300   1
  12  10  -2 482.460 40.4000   1
  12 -10   2 371.470 42.6400   1
  12  10   2 454.550 39.0500   1
 -12 -10  -2 396.300 43.1000   1
  12 -10  -2 275.340 42.9700   1
  -7  -7   6 153.800 33.2700   1
  -7   7   6 176.370 36.6200   1
  -7  -7  -6 115.630 35.7100   1
   7  -7  -6 143.240 35.9500   1
  -7  -7  -6 171.830 41.0700   1
  -7   7  -6 61.4900 31.6700   1
  -7  -7  -6 104.090 34.5600   1
   7   7   6 72.9800 30.8000   1
   7   7  -6 170.880 33.8500   1
   7  -7   6 118.160 34.5500   1
  -7  -7  -6 87.0300 34.2900   1
   5 -14   4 1988.81 69.1900   1
   5 -14  -4 1789.80 54.7800   1
   5  14   4 1432.73 45.4000   1
   5 -14   4 1270.32 58.0500   1
  -5 -14  -4 1876.76 93.0100   1
   5  14  -4 1911.13 60.3900   1
   5 -14  -4 1597.83 55.2100   1
  -5 -14   4 1979.81 72.7700   1
  -5  14   4 1920.73 59.9400   1
   5 -14  -4 1628.08 65.5400   1
   5 -14   4 1338.91 47.8000   1
   5  14   4 1717.14 89.6000   1
  11  -8   4 3850.35 99.6000   1
 -11  -8  -4 3738.70 82.8900   1
 -11  -8   4 3487.19 69.0900   1
  11   8  -4 3832.86 74.0300   1
  11   8   4 4031.81 87.7200   1
 -11   8   4 3247.33 73.5000   1
  11  -8  -4 3552.64 99.0500   1
  11  -8  -4 3258.17 80.3800   1
 -11  -8  -4 3257.12 104.070   1
   2 -15  -4 1681.30 58.7400   1
   2 -15  -4 1197.31 64.5700   1
  -2 -15  -4 1330.95 68.5100   1
   2 -15   4 1237.88 43.1600   1
  -2 -15   4 1283.70 43.9600   1
   2 -15   4 1557.25 58.4800   1
  -2 -15  -4 1169.22 58.4800   1
   2  15   4 1059.11 57.7800   1
  -2  15   4 1095.25 64.1000   1
   2 -15  -4 1294.26 59.6800   1
  -2 -15  -4 1275.40 52.8600   1
  14  -1   3 820.380 40.9100   1
  14  -1   3 1103.99 50.3100   1
  14   1  -3 941.130 41.5400   1
  14  -1  -3 1021.81 44.6900   1
  14   1   3 1076.82 50.8300   1
  -5  -3   7 2345.59 78.1800   1
   5  -3   7 2282.38 89.0900   1
   5   3   7 1907.59 93.0000   1
  -5   3  -7 1557.61 72.4200   1
  -5  -3  -7 1536.02 75.0500   1
  -5  -3  -7 1753.61 86.3700   1
   5  -3  -7 1740.29 58.1600   1
  -5  -3   7 2325.15 71.4400   1
  -5   3  -7 1667.06 58.5100   1
   8 -12  -4 4396.22 112.410   1
   8 -12  -4 5283.38 127.150   1
  -8 -12  -4 5495.89 150.960   1
   8 -12  -4 4574.07 84.3200   1
   8 -12  -4 4821.88 137.430   1
  -8  12   4 4565.63 81.1800   1
   8  12  -4 4850.98 83.1400   1
   8 -12   4 5031.76 107.720   1
   9  11   4 1300.19 47.1200   1
  -9 -11  -4 1093.08 63.0700   1
   9 -11  -4 1156.74 61.0300   1
   9 -11  -4 1075.30 47.9600   1
   9 -11   4 1249.14 58.0500   1
   9  11  -4 1655.04 87.4000   1
  -9  11   4 1049.85 37.3200   1
  -9 -11  -4 1241.53 46.6900   1
  13   0   4 7.10000 35.3200   1
  13   0  -4 6.36000 32.4400   1
  13   0   4 1.48000 33.7800   1
 -13   0   4 20.4100 30.7000   1
   5 -17   0 3957.60 84.6700   1
   5 -17   0 4713.75 159.760   1
  -5 -17   0 3916.16 84.4100   1
   5  17   0 4795.22 97.8300   1
   7  16   0 44.3200 31.1300   1
   7 -16   0 62.3000 34.9900   1
   7 -16   0 70.1300 34.8100   1
  -7 -16   0 31.6500 35.0700   1
   7 -16   0 20.6600 31.5900   1
  -3 -13  -5 3388.89 105.040   1
   3 -13   5 3196.64 84.4900   1
  -3  13   5 2464.78 86.1000   1
   3 -13  -5 3078.18 100.690   1
   3  13   5 2744.74 101.150   1
   3 -13  -5 3102.99 99.9400   1
  -3 -13  -5 2470.80 108.370   1
   3 -13  -5 2981.88 98.8000   1
  -3 -13  -5 2974.68 92.7300   1
   0 -18   0 4395.09 109.820   1
   0 -18   0 4378.39 89.2900   1
   0 -18   0 4302.12 91.2300   1
  15  -3   1 2079.25 68.3600   1
  15  -3  -1 2191.69 70.7000   1
  15   3   1 2118.47 75.4200   1
  15  -3   1 2242.41 68.8700   1
   3 -17   2 1598.13 57.5900   1
   3 -17  -2 1946.68 63.2200   1
   3 -17   2 1696.49 54.4700   1
  -3 -17  -2 1576.46 66.3700   1
   3 -17  -2 1381.13 59.2100   1
   3 -17   2 1902.90 67.8900   1
  -3 -17   2 1805.11 59.9000   1
   3  17   2 1719.44 53.3700   1
  -3 -17   2 1649.30 59.3900   1
  -3 -17  -2 1649.22 61.8200   1
   3 -17  -2 1654.25 68.2600   1
  -3 -17   2 1736.94 53.1200   1
   3 -17  -2 1471.23 64.1600   1
  14  -7  -1 6477.52 113.420   1
 -14  -7  -1 5634.18 107.230   1
  13   1   4 5679.82 122.740   1
 -13   1   4 4879.11 82.7300   1
 -13  -1   4 5181.56 81.7400   1
  13   1   4 5681.15 123.160   1
  13  -1  -4 5325.39 99.7600   1
  13   1  -4 5378.24 97.0000   1
  13  -1   4 6092.68 124.330   1
  13  -1   4 5750.43 124.080   1
  11   4  -5 197.620 35.8300   1
 -11   4   5 123.140 36.5400   1
  11  -4  -5 90.3000 31.8500   1
  11   4   5 102.600 33.5000   1
  11  -4   5 94.0800 34.7900   1
 -11  -4   5 141.940 32.9700   1
  11  -4  -5 108.250 34.9500   1
  14   2  -3 1016.34 40.9300   1
  14  -2   3 1054.71 45.9600   1
  14  -2   3 1040.26 50.3300   1
  14   2   3 999.390 47.5700   1
  14  -2  -3 989.540 44.5700   1
  12  11   1 755.390 43.2500   1
 -12 -11  -1 503.540 39.0300   1
 -12 -11   1 561.970 42.1900   1
  12  11  -1 582.140 41.7100   1
  12 -11   1 444.970 41.6500   1
  12 -11  -1 384.780 41.7700   1
 -12 -11  -1 482.930 40.4400   1
 -12 -11   1 536.460 43.0000   1
  12 -11  -1 487.690 44.7500   1
  12  -6  -4 468.730 44.5100   1
 -12  -6   4 526.630 38.1800   1
  12  -6  -4 416.010 40.8300   1
 -12   6   4 480.570 39.1500   1
  12  -6   4 602.730 43.4200   1
  12   6  -4 593.860 40.2700   1
  12   6   4 540.120 40.9500   1
  -9  -3   6 507.010 37.4200   1
   9   3   6 409.200 40.5200   1
   9   3  -6 647.960 37.5700   1
   9  -3   6 478.730 41.3900   1
   9  -3  -6 454.650 42.4400   1
  -9  -3  -6 481.410 48.9000   1
  -9  -3  -6 509.220 38.6700   1
  -9  -3  -6 423.040 45.9300   1
  -9   3  -6 433.130 48.4700   1
  -9   3   6 578.880 39.5800   1
   1 -18   0 994.710 45.3500   1
  -1 -18   0 852.200 36.7100   1
   1 -18   0 982.830 54.2200   1
  -1 -18   0 1037.10 46.9200   1
  -1 -18   0 1053.97 51.9800   1
   1 -18   0 918.500 38.3300   1
  15  -4   0 50.6700 34.4400   1
  15   4   0 45.2800 33.4700   1
  15  -4   0 30.1600 33.8300   1
  -4  -5   7 1057.65 55.1300   1
  -4  -5   7 1072.23 44.9500   1
  -4   5   7 1056.45 45.3400   1
   4  -5   7 840.440 56.4000   1
   4   5   7 1015.75 60.5100   1
   4  -5  -7 794.280 41.5300   1
  -4  -5  -7 594.460 53.6600   1
  -4  -5  -7 693.830 51.9400   1
   4  -5   7 806.900 46.2200   1
   4  -5  -7 1188.47 71.2000   1
  -4  -5  -7 728.540 43.1000   1
   0 -11  -6 -9.9300 36.3300   1
   0 -11  -6 3.95000 34.1500   1
   0 -11  -6 -20.860 38.4800   1
   0  11   6 22.9100 35.6500   1
   0 -11   6 11.4300 31.8000   1
   0 -11   6 -8.2100 37.6600   1
   0 -11  -6 18.5100 38.6700   1
  -6 -15   3 376.910 40.6900   1
  -6 -15   3 449.890 49.2000   1
   6 -15  -3 277.840 38.8000   1
   6 -15  -3 346.250 39.8200   1
   6  15   3 273.030 48.5100   1
  -6  15   3 304.010 34.0600   1
   6 -15  -3 410.950 46.8700   1
  -6 -15  -3 335.000 41.1100   1
   6 -15   3 283.680 36.1800   1
   6  15  -3 454.210 39.2800   1
  -6 -15  -3 226.580 41.0000   1
   6 -15   3 351.160 38.2500   1
   6 -15  -3 364.880 42.7100   1
   6  15   3 362.840 36.1200   1
   4 -10  -6 255.390 40.1500   1
   4  10   6 293.370 43.6800   1
  -4  10   6 302.120 40.8700   1
  -4 -10   6 279.540 34.3200   1
  -4 -10   6 370.420 45.7400   1
   4 -10   6 377.960 39.8800   1
   4 -10   6 214.860 40.8500   1
  -4 -10  -6 252.620 38.7800   1
   4 -10  -6 287.560 43.4300   1
   4 -10  -6 296.370 38.9500   1
  -4 -10  -6 277.730 41.8800   1
  -4 -10  -6 268.210 37.2400   1
  -3   6  -7 79.6800 31.9500   1
   3  -6  -7 76.4600 32.3900   1
  -3  -6  -7 80.8700 33.7500   1
  -3  -6  -7 77.3100 34.6100   1
   3  -6  -7 90.3500 36.6800   1
   3   6   7 143.780 47.2000   1
  -3  -6  -7 89.0100 35.7400   1
  -3  -6   7 86.6600 37.3700   1
  -3  -6   7 123.140 34.5400   1
  -3   6   7 73.0800 35.7700   1
   3  -6  -7 80.5000 35.6700   1
   3  -6   7 118.130 36.4400   1
   3  -6   7 104.270 33.4000   1
   1 -11  -6 624.150 45.9600   1
  -1 -11  -6 640.270 45.1100   1
   1 -11  -6 636.260 55.9500   1
  -1 -11  -6 481.250 50.8600   1
  -1 -11   6 535.190 46.0400   1
   1 -11  -6 483.350 41.6000   1
   1  11   6 598.680 49.7200   1
  -1  11   6 522.510 50.4400   1
   1 -11   6 419.200 42.4700   1
   1 -11  -6 538.970 52.8300   1
   1 -11   6 503.980 43.5900   1
  -1 -11  -6 427.980 43.2300   1
  -1 -11   6 482.030 45.1100   1
  -1 -11  -6 519.820 41.4600   1
   7 -13  -4 4804.05 125.380   1
   7 -13   4 5208.16 119.050   1
   7  13   4 5024.85 94.3500   1
   7 -13  -4 4354.69 112.860   1
   7 -13  -4 4728.78 89.8900   1
  -7 -13  -4 4625.45 124.380   1
  13  -2  -4 385.620 43.0200   1
  13  -2  -4 233.530 38.2700   1
 -13  -2   4 294.770 37.4300   1
  13  -2   4 256.220 36.4000   1
  13   2   4 339.010 41.4600   1
  13   2  -4 358.230 38.2700   1
  13  -2   4 338.340 40.3300   1
 -13   2   4 216.060 33.4400   1
   0   7   7 12575.1 194.180   1
   0  -7  -7 12567.1 166.260   1
   0  -7  -7 11123.0 191.420   1
   0  -7   7 11577.7 156.390   1
   0  -7  -7 12810.2 188.300   1
   6   0  -7 295.490 39.1200   1
  -6   0  -7 240.190 33.1800   1
  -6   0  -7 282.220 41.0900   1
  -6   0  -7 214.450 35.7700   1
  -6   0   7 291.660 35.0400   1
   6 -16  -2 6464.93 145.630   1
   6 -16   2 5668.57 120.100   1
  -6 -16  -2 7106.88 141.460   1
  -6 -16   2 6369.81 112.670   1
   6 -16   2 6678.15 141.190   1
  -6 -16  -2 6653.64 143.800   1
   6  16  -2 6659.91 107.900   1
   6  16   2 5824.51 100.980   1
   6 -16  -2 6558.60 108.190   1
   6 -16  -2 6099.01 140.150   1
  14  -6   2 2064.54 81.5300   1
  14   6   2 1542.47 48.7400   1
  14   6  -2 1428.31 47.9600   1
 -14  -6  -2 1406.99 58.4000   1
  14  -6  -2 1527.20 59.5600   1
   3 -15  -4 86.4000 38.2000   1
   3 -15  -4 126.430 36.0500   1
  -3 -15  -4 95.5100 31.8100   1
   3 -15  -4 70.9200 30.6000   1
   3 -15  -4 84.4400 34.5000   1
   3  15   4 69.8700 37.7500   1
  -3  15   4 97.2700 33.5900   1
   3  15   4 75.6800 30.7500   1
  -3 -15   4 166.480 46.1400   1
   3 -15   4 137.950 40.5200   1
  -3 -15  -4 180.510 40.0900   1
  -3 -15   4 104.850 35.3100   1
   3 -15   4 89.2300 33.2700   1
  10 -10   4 630.190 47.1500   1
  10 -10  -4 520.630 44.2800   1
  10 -10  -4 678.770 43.8800   1
  10  10  -4 710.640 31.4700   1
  10  10   4 534.270 39.7100   1
 -10 -10  -4 595.700 42.0600   1
 -10  10   4 739.450 35.7500   1
 -10 -10  -4 572.000 51.3000   1
  10  -7   5 298.070 39.3700   1
  10  -7  -5 304.570 41.4300   1
 -10  -7  -5 250.770 36.7800   1
 -10   7  -5 117.940 32.3700   1
 -10   7   5 283.920 35.9600   1
 -10  -7   5 288.620 33.9100   1
  10   7   5 278.890 37.7500   1
  10   7  -5 287.380 34.6300   1
  -8   6  -6 72.8800 31.7700   1
  -8  -6  -6 51.2100 34.4900   1
  -8  -6   6 106.810 32.6600   1
  -8   6   6 128.330 36.0100   1
  -8  -6  -6 62.6700 31.1200   1
   8   6   6 79.8700 31.5600   1
   8   6  -6 113.840 34.1300   1
   8  -6   6 106.790 36.1100   1
  -8  -6  -6 84.0700 33.8200   1
  -8  -6  -6 109.490 32.9200   1
   8  -6  -6 115.290 41.8100   1
   1  -7  -7 241.360 37.8500   1
   1  -7   7 269.990 38.8700   1
  -1   7   7 215.220 36.7100   1
  -1  -7   7 297.090 37.7400   1
   1  -7  -7 185.500 35.7200   1
  -1  -7   7 323.470 41.4500   1
   1   7   7 215.580 36.2900   1
   1  -7  -7 217.830 35.5900   1
  -1  -7  -7 185.280 36.7000   1
   1  -7   7 307.540 40.5600   1
   1  -7  -7 200.560 40.1600   1
  -1  -7  -7 210.470 36.3500   1
  -1  -7  -7 214.270 36.1100   1
  -1  -7  -7 268.230 41.3200   1
  -5   4   7 692.470 43.0200   1
  -5  -4  -7 403.180 44.7300   1
   5  -4  -7 855.040 54.3800   1
  -5   4  -7 488.360 41.1700   1
  -5  -4  -7 652.710 44.8000   1
  -5   4  -7 574.670 49.2400   1
  -5  -4  -7 501.850 51.9800   1
   5   4   7 689.580 47.9200   1
  -5  -4   7 699.560 33.2500   1
  -5  -4   7 701.860 44.6100   1
   5  -4   7 619.760 46.9200   1
   6  -1   7 204.940 37.2500   1
  -6   1  -7 292.540 37.4600   1
   6  -1  -7 427.580 50.8600   1
  -6  -1   7 273.080 35.7900   1
  -6   1  -7 137.940 33.0000   1
  -6   1   7 285.510 36.0000   1
  -6  -1  -7 375.490 38.9500   1
  -6  -1  -7 163.630 35.7500   1
  -6   1  -7 228.590 35.9900   1
  -6  -1  -7 263.710 39.4800   1
  -5 -17  -1 5490.68 140.220   1
   5 -17  -1 4876.26 130.140   1
   5 -17  -1 5391.85 125.110   1
   5 -17   1 5585.43 127.920   1
   5  17   1 5003.62 92.6200   1
   5  17  -1 5884.71 111.720   1
  -5 -17   1 5835.58 127.710   1
  -5 -17  -1 5995.73 132.650   1
  -5 -17   1 5870.46 118.120   1
   5 -17   1 4941.26 99.0900   1
  -7 -16  -1 139.360 39.5700   1
   7 -16   1 137.260 38.9600   1
   7 -16  -1 141.030 36.3300   1
   7 -16  -1 123.210 36.6200   1
  -7 -16   1 125.030 34.5300   1
   7  16  -1 82.5000 32.0800   1
   7 -16  -1 53.9000 30.1800   1
   7  16   1 64.4300 33.5000   1
   7 -16  -1 75.6200 34.5600   1
   7 -16   1 90.5100 36.6000   1
   4  16   3 4814.71 95.8400   1
   4  16   3 4408.37 135.290   1
   4 -16  -3 4478.39 137.230   1
   4 -16  -3 5658.18 106.120   1
   4 -16  -3 4717.32 111.990   1
  -4 -16  -3 4966.17 127.670   1
   4 -16   3 4770.07 110.260   1
   4 -16  -3 5009.86 128.930   1
   4 -16   3 5643.55 105.660   1
  -4 -16  -3 5255.17 125.780   1
   4  16  -3 5001.94 88.8000   1
  10  13   2 1769.40 50.1000   1
  10  13  -2 1953.54 52.6400   1
  10 -13   2 2234.68 71.8200   1
  10 -13  -2 1541.51 68.1400   1
  10 -13  -2 1632.97 58.7900   1
 -10 -13  -2 1820.37 75.4800   1
   2 -18   0 3076.92 88.0500   1
  -2 -18   0 2817.72 86.9200   1
   2 -18   0 2922.25 78.1100   1
  -2 -18   0 3215.06 82.1200   1
   2 -18   0 3396.03 88.9200   1
  -2 -18   0 3120.38 80.7300   1
   0 -18  -1 -11.310 38.1500   1
   0 -18   1 7.92000 36.9800   1
   0 -18  -1 14.5500 36.1500   1
   0 -18   1 -9.2200 39.0200   1
   0 -18   1 2.19000 34.4000   1
   0 -18  -1 -18.120 33.3000   1
  14  -3   3 1298.39 61.9700   1
  14  -3  -3 1391.66 49.1800   1
  14   3  -3 1580.08 52.6100   1
  14  -3  -3 1618.66 61.5100   1
  14  -3   3 1936.14 76.5300   1
 -14   3   3 1561.80 60.4100   1
  -8 -10  -5 1263.58 66.3300   1
   8 -10  -5 1401.01 52.2800   1
   8 -10   5 1555.46 56.4300   1
  -8  10   5 1848.53 56.1600   1
  -8 -10   5 1699.84 51.4500   1
   8  10  -5 1690.69 52.9000   1
   9 -14  -2 348.510 39.1100   1
   9  14  -2 385.530 38.0400   1
   9 -14   2 447.110 42.9500   1
  -9 -14  -2 381.060 46.8000   1
   9 -14   2 327.660 43.2900   1
   9 -14  -2 248.370 37.2200   1
  -9  14   2 357.170 38.1500   1
   9 -14  -2 337.990 41.5400   1
   9  14   2 502.770 41.4800   1
  -9 -14   2 466.280 44.7400   1
  -9 -14  -2 388.830 40.1700   1
  12   9  -3 2744.58 58.0400   1
  12   9   3 2598.61 63.5700   1
  12  -9   3 2425.10 76.9200   1
 -12  -9  -3 2751.42 95.8200   1
 -12   9   3 2978.05 64.0600   1
  12  -9  -3 3333.41 89.5600   1
  12  -9  -3 2934.93 93.0800   1
 -12  -9  -3 2372.46 58.7800   1
   7 -11  -5 78.6500 33.1800   1
   7  11  -5 106.820 35.8800   1
   7 -11  -5 99.9800 37.8400   1
  -7 -11  -5 98.4800 36.0800   1
   7  11   5 57.1300 31.2300   1
   7 -11   5 54.1200 34.2000   1
  -7  11   5 39.3800 32.0300   1
  -7 -11   5 98.2100 32.8900   1
   7 -11  -5 87.3500 35.2300   1
   1 -18  -1 823.320 45.9000   1
  -1 -18  -1 764.840 35.4900   1
  -1 -18  -1 791.510 40.1000   1
   1 -18   1 715.690 40.6200   1
   1 -18  -1 730.300 37.0100   1
  -1 -18  -1 926.730 53.1800   1
  -1 -18   1 916.240 38.8200   1
  -1 -18   1 836.680 38.5300   1
  -1 -18   1 841.380 43.5700   1
   1 -18   1 1010.75 56.8400   1
   1 -18  -1 898.830 43.7700   1
   1 -18   1 797.150 34.4500   1
  -1 -18   1 874.160 45.8300   1
  15  -4   1 2711.83 92.9500   1
 -15  -4  -1 2335.69 74.6700   1
  15   4  -1 2243.07 62.0300   1
  15  -4   1 2245.89 80.1300   1
  15  -4  -1 2000.42 60.6800   1
  -2  11   6 1250.59 68.0200   1
   2 -11  -6 1057.53 50.8300   1
   2 -11  -6 896.240 51.0200   1
  -2 -11   6 1206.43 67.1700   1
   2 -11  -6 1406.26 83.7800   1
  -2 -11  -6 1062.13 59.0100   1
   2 -11   6 1463.99 78.9800   1
   2  11   6 1005.08 51.6900   1
   2 -11   6 1266.45 58.0900   1
  -2 -11   6 1385.35 61.2400   1
  -2 -11  -6 873.260 53.0600   1
  -2 -11  -6 1213.20 52.8900   1
   2 -11  -6 1252.96 49.9600   1
  -9  13   3 4987.62 97.8500   1
   9 -13  -3 5338.73 128.470   1
  -9  -4  -6 3233.41 74.2000   1
   9  -4   6 3424.98 100.380   1
   9  -4  -6 2999.43 83.4500   1
  -9   4   6 3579.31 73.6300   1
  -9  -4  -6 2630.17 94.2900   1
   9   4  -6 3171.55 70.2400   1
  -6  -2  -7 1455.85 71.8800   1
  -6  -2  -7 1144.26 69.1500   1
  -6   2   7 1507.56 46.1600   1
  -6  -2   7 1706.72 54.8800   1
  -6   2  -7 1447.98 78.2400   1
   6  -2   7 1294.82 64.5100   1
   6  -2  -7 1534.32 62.0600   1
  -6   2  -7 1481.22 46.7600   1
  -6  -2  -7 1543.68 48.1700   1
  15   0  -2 49.1500 23.9300   1
  15   0   2 13.3700 24.2000   1
  13  -3  -4 2474.02 75.3800   1
  13  -3   4 2665.95 86.4500   1
  13   3  -4 2638.77 62.2000   1
  13  -3  -4 2602.21 76.6100   1
  13  -3   4 2017.70 66.4100   1
 -13  -3   4 2504.85 57.7000   1
  13 -10   0 40.8600 19.6000   1
  13  10   0 90.0100 24.0000   1
  13 -10   0 40.7000 20.9400   1
 -13 -10   0 59.4000 30.8600   1
 -13   7   3 894.500 35.3000   1
  13  -7  -3 744.130 42.9700   1
  13  -7  -3 1048.23 55.3300   1
  13  -7   3 997.810 51.1700   1
  13   7   3 938.390 35.9200   1
 -10 -12  -3 4122.70 125.940   1
  10 -12  -3 4334.17 108.090   1
  10 -12  -3 3969.66 92.4800   1
  10 -12   3 5171.55 122.910   1
 -10  12   3 4791.24 90.2200   1
 -10 -12  -3 4430.06 91.8400   1
  10  12   3 5200.95 94.6300   1
  10  12  -3 4802.10 83.7200   1
  -2  -7  -7 1095.86 52.2700   1
  -2  -7  -7 985.650 55.4100   1
  -2  -7   7 1537.67 65.0400   1
   2  -7  -7 1036.01 55.8600   1
  -2  -7  -7 1386.79 58.5200   1
   2  -7  -7 1335.72 55.9800   1
  -2  -7  -7 963.970 65.2800   1
   2  -7  -7 992.790 55.2500   1
   2  -7   7 1321.63 51.7300   1
   2  -7   7 1440.29 72.7900   1
   2   7   7 1297.99 54.3500   1
  -2   7   7 1580.31 80.1600   1
  -2  -7   7 1111.67 58.1300   1
  -4 -13   5 330.720 41.4700   1
  -4 -13  -5 271.280 32.7600   1
   4 -13  -5 264.560 26.2200   1
   4 -13   5 260.230 26.1900   1
   4 -13  -5 257.080 28.7900   1
  -4 -13  -5 220.480 26.4800   1
  -4 -13  -5 212.260 25.8300   1
   4 -13  -5 179.310 21.8200   1
   4  13   5 246.310 38.8700   1
  -4  13   5 239.460 25.2300   1
   4  13   5 185.440 20.0300   1
 -11 -12  -2 3178.25 89.2500   1
  11 -12  -2 3320.31 90.1000   1
 -11 -12  -2 3093.78 64.8600   1
  11 -12  -2 3123.10 96.9300   1
  11  12  -2 3351.32 69.0200   1
  11  12   2 3748.17 79.8500   1
  11 -12   2 3072.25 80.2000   1
  15  -1   2 5289.60 120.650   1
  15   1   2 4544.91 91.2600   1
  15  -1   2 5732.01 111.240   1
  11  -5  -5 1860.07 66.1300   1
 -11  -5   5 2332.40 53.9500   1
  11   5   5 2847.06 87.4700   1
  11   5  -5 2143.87 57.2400   1
  11  -5   5 2349.71 83.0800   1
  10  14   0 175.180 28.4600   1
  10 -14   0 72.2100 21.9600   1
 -10 -14   0 57.8200 21.6600   1
  10 -14   0 90.0500 24.3800   1
 -14  -8   0 29.3600 23.4000   1
  14  -8   0 -12.000 16.8000   1
  14   8   0 47.7600 26.2600   1
  14  -8   0 10.9900 21.5600   1
  -4 -17  -2 1427.65 69.3100   1
   4 -17  -2 1407.78 57.6700   1
   4 -17  -2 1390.55 53.4500   1
  -4 -17  -2 1448.63 59.5400   1
  -4 -17   2 1722.63 72.0800   1
   4 -17   2 1252.84 45.5500   1
   4 -17  -2 1191.02 64.2100   1
   4  17   2 1325.23 47.0700   1
   4  17  -2 1405.49 50.1000   1
   4 -17  -2 1298.09 58.9200   1
   4 -17   2 1248.89 52.1700   1
  -4 -17   2 1397.70 52.1500   1
   4 -17   2 1494.22 63.3900   1
  15  -5   0 482.730 35.0000   1
  15  -5   0 447.790 37.9800   1
  15   5   0 335.320 27.4200   1
  -9   9   5 705.030 36.6700   1
  -9  -9  -5 617.290 31.8100   1
   9  -9  -5 575.420 34.8800   1
  -9  -9  -5 413.280 35.5900   1
  -9  -9   5 648.380 29.5300   1
   9   9   5 575.710 31.9400   1
   9   9  -5 672.260 28.5200   1
   9  -9   5 792.940 41.6300   1
  -6  -9  -6 597.740 41.2700   1
   6  -9  -6 671.560 36.5800   1
   6  -9  -6 635.070 36.9900   1
  -6  -9  -6 556.170 40.9100   1
  -6  -9   6 670.770 33.5200   1
  -6   9   6 627.660 32.4200   1
   6   9   6 680.180 63.0600   1
   6  -9  -6 537.030 42.1000   1
  -6  -9  -6 465.900 39.4900   1
   6  -9   6 654.820 38.5700   1
  -6  -9   6 749.020 51.1300   1
   8  14  -3 924.620 36.2200   1
  -8  14   3 720.870 34.6300   1
   8 -14  -3 911.520 53.1400   1
   8  14   3 1198.95 46.3000   1
   8 -14   3 938.570 52.3400   1
   8 -14  -3 697.790 49.4000   1
   8 -14  -3 1026.27 40.4600   1
   8 -14  -3 924.590 54.4700   1
  -8 -14  -3 966.930 57.0000   1
  -2 -18  -1 2208.18 90.9800   1
   2 -18  -1 2181.69 79.0900   1
  -2 -18  -1 2118.31 59.9500   1
  -2 -18   1 2162.14 64.9900   1
   2 -18  -1 1996.51 63.8400   1
   2 -18   1 1866.26 59.8700   1
  -2 -18   1 2545.18 82.6400   1
  -2 -18  -1 2037.99 66.7500   1
   2 -18   1 2009.98 77.4600   1
   2 -18  -1 1857.38 56.5700   1
   2 -18   1 2370.09 80.4800   1
  -2 -18   1 2291.71 67.4200   1
 -11 -13   0 1234.07 52.8000   1
  11 -13   0 1258.17 73.4100   1
 -11 -13   0 1355.40 54.9200   1
  11 -13   0 1323.12 56.6400   1
  -6  12   5 666.570 34.3900   1
   6 -12  -5 776.420 52.1900   1
   6 -12  -5 831.090 41.0500   1
   6 -12  -5 803.580 51.3200   1
  -6 -12  -5 758.450 53.5600   1
   6  12   5 706.640 57.6800   1
   6 -12   5 914.070 42.8700   1
  -6 -12   5 959.190 53.4000   1
   6  12  -5 822.760 35.8300   1
   6  12   5 723.180 32.9100   1
  -8  15   2 151.200 20.5700   1
   8 -15  -2 178.760 25.5700   1
   8 -15  -2 106.720 23.0900   1
  -8 -15   2 170.310 33.5100   1
   8 -15   2 104.390 21.4300   1
   8 -15  -2 138.860 23.0200   1
   8 -15  -2 149.820 21.2200   1
   8  15   2 198.080 25.6600   1
   8  15  -2 146.040 18.5300   1
   8 -15   2 168.160 26.1900   1
  -8 -15  -2 125.620 31.7800   1
  -7  -8  -6 502.970 33.0500   1
  -7  -8  -6 459.080 33.5600   1
  -7   8   6 473.430 27.9500   1
  -7  -8   6 642.020 32.0200   1
   7   8   6 473.450 28.8100   1
   7   8  -6 677.960 32.4700   1
   7  -8   6 585.390 39.1700   1
  -7  -8  -6 382.850 32.2000   1
   7  -8  -6 618.830 41.9500   1
 -13  -9  -2 1181.21 49.9100   1
  13  -9  -2 952.530 48.2900   1
  13   9  -2 1442.49 44.6900   1
  13  -9   2 1326.39 62.8200   1
  13  -9  -2 1302.33 69.1400   1
  13   9   2 1068.17 36.9000   1
  15   2  -2 1476.03 47.1300   1
  15   2   2 1179.16 41.9400   1
  15  -2  -2 1588.21 55.1300   1
  15  -2   2 1727.31 78.9500   1
  15  -2   2 1578.79 55.6700   1
   3 -18   0 245.120 27.2400   1
  -3 -18   0 248.390 26.7600   1
  -3 -18   0 289.350 32.1900   1
   3 -18   0 272.300 30.8100   1
   3  18   0 182.310 22.9100   1
  -3 -18   0 273.220 35.7500   1
   3 -18   0 185.250 24.2600   1
  -9 -15   0 1686.48 53.5000   1
   9 -15   0 1579.62 74.4000   1
   9 -15   0 1896.67 73.5200   1
   9  15   0 1964.55 53.1900   1
   6  14   4 4210.22 82.1000   1
   6  14   4 3745.44 130.750   1
   6 -14  -4 4311.33 134.640   1
  -6  14   4 4996.83 105.250   1
   6 -14  -4 4017.18 109.800   1
   6 -14   4 4165.03 87.1900   1
   6 -14   4 4356.01 125.260   1
   6 -14  -4 4829.93 97.0600   1
  -6 -14   4 5472.08 142.850   1
   6  14  -4 4886.03 90.6300   1
  -6 -14  -4 4749.81 129.450   1
   4  -6  -7 1591.34 62.3800   1
  -4  -6  -7 1253.96 65.2700   1
   4  -6   7 1859.36 87.4700   1
  -4  -6   7 1824.51 57.8100   1
  -4   6   7 1857.49 67.9100   1
   4   6   7 1781.17 80.7900   1
  -4  -6  -7 1486.27 69.7200   1
  -4  -6  -7 1347.85 75.7200   1
   4  -6   7 1977.96 75.5700   1
  -4   6  -7 1530.86 49.5500   1
   4  -6  -7 1968.32 73.7000   1
  14  -4   3 2661.21 89.1200   1
  14  -4  -3 1955.40 62.8100   1
  14  -4  -3 1986.00 63.2100   1
  14   4   3 2300.72 67.3300   1
  14   4  -3 2194.59 62.7700   1
   6  -3   7 1326.31 64.6500   1
  -6   3   7 1311.68 43.9400   1
  -6  -3  -7 999.650 58.9700   1
  -6   3  -7 1079.10 66.4900   1
  -6  -3  -7 1392.74 48.8100   1
  -6   3  -7 1289.71 45.0100   1
   6  -3  -7 1169.58 55.2600   1
  -6  -3   7 1489.55 48.3300   1
  -6  -3   7 1640.61 76.8200   1
  -5  -5   7 7291.68 100.850   1
  -5  -5  -7 7472.32 166.620   1
   5   5   7 6659.87 151.220   1
  -5   5  -7 7747.09 113.240   1
   5  -5  -7 6686.70 133.320   1
   4 -15   4 33.9200 16.5100   1
   4 -15  -4 61.2300 31.4800   1
   4 -15  -4 9.52000 24.6400   1
  -4 -15   4 65.7100 29.9500   1
  -4 -15   4 42.3000 20.5200   1
  -4 -15  -4 31.7200 19.6900   1
   4 -15  -4 59.1000 24.4200   1
  -4 -15  -4 6.08000 29.6400   1
   4  15   4 46.2400 23.5900   1
  -4  15   4 40.2700 16.8800   1
   4  15   4 30.9500 17.3800   1
   4 -15   4 26.0000 21.9300   1
  12  -7   4 1426.65 58.4900   1
 -12   7   4 1705.21 52.3200   1
  12  -7  -4 1437.07 67.4700   1
 -12  -7   4 1559.38 48.6200   1
  12  -7  -4 1569.23 56.5300   1
  12   7  -4 1423.20 40.9100   1
  12   7   4 1402.56 46.8800   1
   3 -11  -6 1529.83 55.2900   1
  -3 -11  -6 944.250 56.5700   1
  -3 -11  -6 1146.35 60.5800   1
   3  11   6 1495.04 84.4800   1
  -3  11   6 1493.94 72.1400   1
  -3 -11   6 1311.66 62.3000   1
  -3 -11   6 1244.71 52.5100   1
   3 -11   6 1281.22 52.3100   1
  -3 -11  -6 1130.08 58.4800   1
   3 -11  -6 1185.80 52.0800   1
   3 -11  -6 1217.20 61.3100   1
   3 -11   6 1120.42 69.1500   1
  13 -10   1 4014.66 101.950   1
 -13 -10  -1 3973.77 94.9500   1
  13  10   1 4565.69 92.4000   1
   0 -14  -5 17.2100 19.7900   1
   0 -14   5 -28.920 31.2900   1
   0 -14  -5 5.64000 23.2600   1
   0 -14  -5 -4.3300 24.0100   1
   0 -14  -5 21.4900 19.2700   1
   0  14   5 -30.760 22.9000   1
   0 -14   5 -17.150 19.3000   1
  11   9   4 43.5500 22.4200   1
  11  -9  -4 26.6500 16.2600   1
 -11   9   4 17.1700 20.3600   1
  11  -9  -4 -15.230 23.9700   1
 -11  -9  -4 16.5200 23.5800   1
  11   9  -4 45.2100 22.7800   1
 -11  -9  -4 17.8000 20.2900   1
  11  -9   4 21.0100 20.7100   1
  -6 -17   0 33.9500 27.5100   1
   6 -17   0 -16.140 23.6600   1
   6  17   0 21.8300 25.2300   1
   6 -17   0 13.9600 21.4300   1
   6 -17   0 -6.8300 23.9700   1
  -6 -17   0 6.47000 32.6700   1
  11 -11   3 1630.62 65.6300   1
  11 -11  -3 2071.79 90.9600   1
 -11 -11  -3 1573.36 51.4500   1
  11 -11  -3 1360.22 55.4400   1
 -11 -11  -3 1674.60 83.1900   1
  -5  10   6 2922.96 80.9000   1
  -5 -10   6 2839.86 84.4900   1
   5 -10   6 2571.34 73.3600   1
   5 -10  -6 2666.03 71.2100   1
  -5 -10  -6 2402.68 87.5600   1
   5 -10  -6 2267.51 72.0800   1
   5  10   6 2921.20 124.050   1
   5 -10  -6 2444.22 85.5200   1
  -5 -10  -6 2225.22 78.9000   1
  -5 -10  -6 2850.82 80.0500   1
  10 -14   1 4533.83 104.620   1
  10 -14  -1 4946.68 122.650   1
 -10 -14   1 5547.68 107.440   1
 -10 -14  -1 5132.68 108.610   1
  10  14  -1 5380.32 108.660   1
  10  14   1 4918.54 83.5700   1
  10 -14  -1 4775.36 113.830   1
  14  -8  -1 91.0700 22.6800   1
  14   8   1 126.000 25.9600   1
 -14  -8  -1 106.130 25.0000   1
  14  -8  -1 137.380 27.7200   1
  14   8  -1 128.370 23.1000   1
  14  -8   1 101.940 30.1400   1
  13  -4  -4 35.5800 16.7400   1
 -13  -4   4 46.7600 16.7600   1
  13  -4  -4 64.4800 24.1600   1
 -13   4   4 86.8000 25.6600   1
  13  -4   4 52.6300 28.5800   1
  13   4  -4 71.8600 28.9800   1
  13   4   4 35.2300 23.7300   1
  -1 -14  -5 205.810 25.6600   1
   1 -14   5 221.660 26.9800   1
   1 -14  -5 200.450 26.5900   1
  -1 -14  -5 241.090 29.6200   1
   1 -14  -5 190.480 23.9300   1
   1  14   5 246.480 30.3200   1
  -1 -14  -5 197.840 26.1700   1
  -1 -14   5 276.670 29.8300   1
   1 -14  -5 201.480 34.8900   1
   1 -14   5 219.800 24.5100   1
  -1 -14  -5 203.080 31.1500   1
  -1  14   5 171.770 24.6600   1
   1 -14  -5 133.560 25.2400   1
  -3   7   7 837.140 46.0800   1
  -3  -7   7 784.670 45.6300   1
  -3  -7   7 891.260 44.6700   1
   3  -7   7 708.430 40.9900   1
   3  -7  -7 770.640 52.5800   1
  -3   7  -7 649.640 33.1200   1
   3  -7  -7 769.330 43.2800   1
  -3  -7  -7 649.940 36.6500   1
  -3  -7  -7 583.430 49.7200   1
   3  -7  -7 718.780 47.1500   1
   3  -7   7 798.120 45.3900   1
  -3  -7  -7 503.100 40.5900   1
   3   7   7 1094.26 65.5000   1
  15  -5  -1 2054.90 64.7700   1
  15  -5  -1 1715.04 64.3400   1
  15  -5   1 1504.65 54.8200   1
  15   5   1 1901.38 60.0300   1
  15  -5   1 1965.45 70.9200   1
 -12   0   5 735.490 30.1900   1
  12   0   5 699.460 37.3300   1
  12   0  -5 645.940 33.5800   1
  12   0   5 709.710 44.0000   1
   0 -17   3 333.590 31.2300   1
   0 -17  -3 244.820 26.7400   1
   0 -17  -3 228.460 24.3400   1
   0 -17  -3 176.890 28.8900   1
   0 -17  -3 331.540 37.9700   1
   0 -17  -3 304.220 30.4200   1
   0 -17   3 271.700 24.7200   1
   0 -17   3 367.630 39.5300   1
   9   5  -6 28.5600 10.6000   1
   9  -5   6 38.2400 23.2900   1
   9   5   6 37.0400 16.2500   1
  -9   5  -6 27.6800 22.0400   1
  -9  -5  -6 65.2900 22.3500   1
   9  -5  -6 56.9900 25.7200   1
  -9  -5   6 46.1500 18.2400   1
  -9   5   6 41.8400 21.6500   1
  -9  -5  -6 27.8300 22.3800   1
  11 -13  -1 1957.42 72.3900   1
  11 -13   1 2183.71 76.2500   1
  11  13  -1 2076.13 52.9400   1
 -11 -13  -1 2013.05 59.1100   1
  11 -13   1 1575.89 77.6100   1
 -11 -13  -1 2266.16 73.8300   1
 -11 -13   1 2617.02 79.5200   1
  12  -1  -5 11.1800 23.7100   1
 -12   1   5 33.1400 21.5400   1
 -12  -1   5 -1.9900 16.9200   1
  12  -1   5 -23.920 18.0900   1
  12   1   5 15.4300 19.8100   1
  12   1  -5 15.9000 18.8700   1
  12  -1  -5 23.3400 20.1300   1
 -12  -1  -5 3.39000 13.6900   1
  12   1   5 28.7800 17.6600   1
  12  -1   5 21.2100 19.5000   1
  15   3  -2 2187.13 69.7000   1
  15  -3  -2 2298.59 73.3500   1
  15   3   2 2381.32 71.4300   1
  15  -3   2 2144.51 77.3000   1
  15  -3   2 2304.39 76.2700   1
  14   7  -2 337.790 26.0100   1
 -14  -7  -2 275.940 25.8500   1
  14   7   2 402.230 33.6400   1
  14  -7  -2 350.610 32.5900   1
  14  -7   2 342.090 33.1900   1
  14  -7  -2 431.760 36.8900   1
  14  -7  -2 213.500 23.4000   1
   1 -17  -3 657.330 33.9800   1
  -1 -17   3 598.750 32.2300   1
   1 -17   3 632.970 36.4200   1
  -1 -17  -3 540.250 42.3700   1
   1 -17  -3 377.250 33.0500   1
   1 -17  -3 481.610 37.0500   1
  -1 -17   3 695.700 43.2700   1
  -1 -17  -3 733.040 55.3900   1
   1 -17  -3 534.460 46.1900   1
  -1 -17   3 570.810 30.4100   1
  -1 -17  -3 718.200 36.7000   1
   1 -17   3 642.870 34.1900   1
   1 -17   3 596.290 35.4300   1
  -1 -17  -3 489.160 38.9300   1
   1 -17  -3 548.660 37.7300   1
   5 -16   3 15.4800 23.0200   1
   5 -16  -3 11.0500 19.0800   1
  -5 -16  -3 6.65000 25.1700   1
  -5 -16   3 70.5600 27.2300   1
   5 -16   3 60.6700 25.7300   1
  -5 -16  -3 40.4500 19.6500   1
  -5 -16   3 56.4300 36.9300   1
   5  16  -3 38.8700 17.8200   1
   5  16   3 36.1100 23.6900   1
  -5  16   3 23.6200 15.7400   1
   5 -16  -3 14.5300 24.5700   1
   5 -16  -3 52.5200 23.7100   1
   5 -16  -3 -9.7200 22.8000   1
   8  -7   6 473.570 33.2500   1
  -8   7  -6 270.640 31.0500   1
  -8  -7  -6 343.600 32.6900   1
   8  -7  -6 516.090 44.8600   1
  -8  -7  -6 472.330 41.1000   1
  -8   7   6 601.650 32.1800   1
  -8  -7   6 681.790 33.1000   1
  -8  -7  -6 545.440 36.6800   1
  -8  -7  -6 584.840 29.9600   1
   8   7  -6 467.280 26.7600   1
   8   7   6 433.140 31.4400   1
  12 -11   2 2114.20 77.2800   1
  12 -11  -2 1719.63 65.5600   1
 -12 -11  -2 1674.34 57.9400   1
  12 -11  -2 2038.19 74.7200   1
  12  11   2 2261.26 62.8200   1
 -12 -11  -2 1760.49 52.6800   1
 -12 -12   0 182.680 23.6500   1
 -12 -12   0 175.830 19.0100   1
  12  12   0 250.480 26.5400   1
  12 -12   0 167.850 23.6600   1
  12 -12   0 153.960 21.2400   1
   3 -18   1 628.660 43.6600   1
  -3 -18  -1 654.730 40.1200   1
   3 -18  -1 641.510 42.5900   1
   3 -18   1 669.320 38.5700   1
  -3 -18   1 580.740 29.9900   1
   3 -18  -1 525.870 34.5200   1
  -3 -18  -1 686.310 39.7800   1
  -3 -18   1 717.630 41.4900   1
   3  18   1 536.460 30.0800   1
   3 -18  -1 530.920 39.6400   1
   3 -18   1 615.420 33.7500   1
   3 -18  -1 591.530 32.7700   1
   9  15   1 4589.01 83.6800   1
   9 -15  -1 4548.62 104.560   1
   9 -15  -1 4304.21 101.540   1
  -9 -15  -1 5141.10 111.990   1
  -9 -15   1 5492.69 111.170   1
   9 -15   1 5841.04 135.650   1
  10   0   6 1655.18 76.7100   1
  10   0   6 1554.44 65.3800   1
 -10   0  -6 1241.69 61.7900   1
   0  -8  -7 -6.5600 22.4500   1
   0  -8  -7 1.79000 26.1200   1
   0  -8   7 8.33000 19.9100   1
   0   8   7 -25.070 21.3000   1
   0  -8  -7 10.3300 21.9500   1
   0  -8  -7 0.09000 22.9700   1
   0  -8   7 -1.4100 22.8500   1
 -10   1   6 678.280 35.9800   1
 -10  -1  -6 322.890 31.3200   1
 -10   1  -6 421.520 37.3400   1
  10  -1   6 600.720 40.0000   1
  10  -1  -6 429.840 36.9500   1
  10   1   6 529.090 38.3700   1
  10   1   6 550.680 39.1200   1
  10  -1   6 535.570 37.8300   1
 -10  -1   6 612.110 29.5100   1
 -10  -1  -6 497.080 42.8000   1
  -7 -15  -3 287.790 35.4500   1
  -7 -15   3 305.300 32.1000   1
  -7 -15  -3 250.550 29.0100   1
   7 -15   3 230.090 26.8900   1
   7 -15  -3 216.870 24.6000   1
   7 -15   3 295.240 26.1700   1
   7 -15  -3 253.580 24.7200   1
   7 -15  -3 190.600 26.0600   1
   7  15   3 183.170 34.3200   1
   7 -15  -3 238.700 25.6500   1
  -7  15   3 275.140 22.1800   1
   7  15   3 308.660 25.1200   1
   7  15  -3 369.000 28.3600   1
   2 -14   5 3932.12 96.8100   1
   2 -14   5 4286.45 98.3600   1
   2 -14  -5 3721.05 108.800   1
   2 -14  -5 3686.43 107.640   1
   2 -14  -5 3305.39 109.360   1
  -2 -14  -5 3548.01 97.6900   1
   2  14   5 3498.63 113.650   1
  -2 -14  -5 3462.52 114.550   1
  -2  14   5 3305.35 93.7500   1
 -10  -8  -5 88.0100 19.7100   1
  10  -8  -5 162.550 23.3400   1
  10   8   5 203.990 24.4100   1
  10   8  -5 296.020 29.8000   1
  10  -8   5 225.560 25.7400   1
 -10   8   5 219.420 26.4800   1
 -10  -8  -5 130.930 19.6900   1
 -10  -8   5 196.480 20.5900   1
  -1   8   7 6646.91 135.770   1
  -1  -8   7 6557.80 124.240   1
   1   8   7 6401.93 149.440   1
   1  -8  -7 5305.60 135.640   1
  -1  -8  -7 6523.60 118.800   1
   1  -8  -7 6385.33 120.250   1
   1  -8  -7 5230.71 99.7100   1
  -1  -8  -7 5165.60 128.210   1
   1  -8   7 5880.71 134.780   1
  -1  -8  -7 5889.57 153.670   1
  -8 -16   0 2560.57 79.0800   1
   8 -16   0 2273.45 75.1800   1
   8  16   0 2242.44 53.6900   1
   8 -16   0 2163.83 66.4700   1
  -6  -4  -7 131.970 20.9100   1
  -6   4   7 144.280 21.1400   1
  -6   4  -7 220.110 22.2400   1
   6  -4  -7 185.990 27.1600   1
  -6  -4   7 240.510 25.0900   1
  -6  -4   7 238.640 36.0200   1
   6  -4   7 177.600 23.3100   1
  -6   4  -7 157.100 23.6200   1
  -6  -4  -7 175.660 25.5700   1
  12  -2  -5 1230.51 49.3300   1
  12   2   5 1963.65 68.1000   1
  12   2  -5 1628.22 55.6000   1
  12   2   5 1437.74 60.2100   1
  12  -2  -5 1591.25 50.8600   1
 -12  -2   5 1628.53 46.2100   1
  12  -2   5 1701.38 69.7300   1
  12  -2   5 2084.51 81.2100   1
   6  17   1 190.460 26.5100   1
   6 -17  -1 172.150 26.4900   1
   6 -17   1 104.850 25.3100   1
  -6 -17   1 142.210 32.1300   1
   6  17  -1 162.710 23.0400   1
   6 -17  -1 122.700 20.1400   1
   6 -17   1 142.050 21.9400   1
  -6 -17  -1 152.750 23.1000   1
  -6 -17  -1 136.840 29.4500   1
  -6 -17  -1 101.490 28.3900   1
  -6 -17   1 156.530 27.8800   1
   6 -17  -1 151.640 23.3500   1
   6 -17   1 154.060 28.8200   1
   6 -17  -1 156.760 30.6300   1
 -11  -6  -5 684.020 30.3600   1
  11  -6   5 705.930 40.8100   1
 -11  -6   5 847.730 34.0100   1
 -11   6   5 595.420 26.7200   1
  11  -6  -5 848.170 50.5800   1
  11   6  -5 893.520 39.4600   1
  11   6   5 711.280 35.1400   1
  15   6   0 1765.76 62.7900   1
  15  -6   0 1255.59 58.9000   1
  -5 -13  -5 3403.55 97.9500   1
   5 -13  -5 3504.73 110.930   1
   5  13   5 3292.61 116.340   1
  -5  13   5 3385.24 87.0500   1
  -5 -13  -5 3048.86 97.1000   1
   5 -13  -5 3517.70 116.780   1
  -5 -13  -5 3238.65 82.5300   1
   5 -13   5 3599.69 88.4400   1
   2 -17  -3 458.210 33.5400   1
  -2 -17   3 388.160 28.3100   1
   2 -17  -3 358.240 35.4000   1
  -2 -17  -3 307.160 28.9300   1
  -2 -17  -3 346.800 32.5400   1
  -2 -17   3 592.210 46.3000   1
   2 -17   3 337.030 25.5700   1
  -2 -17  -3 445.090 34.0100   1
  -2 -17   3 354.260 25.0200   1
   2 -17  -3 208.910 24.3800   1
   2 -17   3 505.600 37.6900   1
   2 -17  -3 337.970 31.0200   1
   2 -17   3 361.430 26.8300   1
   2 -17  -3 393.590 28.0900   1
 -14   5   3 2760.77 75.7900   1
  14  -5  -3 2112.12 69.9700   1
  14  -5   3 2896.05 99.4000   1
  14   5  -3 2417.61 62.2000   1
  14  -5  -3 2261.43 68.2600   1
  14   5   3 2305.00 66.2400   1
   7   0  -7 -7.2000 21.4800   1
  -7   0  -7 -34.060 23.1700   1
  -7   0  -7 27.6100 26.4300   1
  -7   0  -7 15.4500 18.1400   1
  -7   0   7 -14.200 17.3700   1
   4 -18   0 8.98000 25.3600   1
  -4 -18   0 35.9700 24.9100   1
  -4 -18   0 10.5400 26.2000   1
   4 -18   0 39.6100 24.8900   1
  -4 -18   0 -7.3900 27.6500   1
   4 -18   0 10.6100 17.8900   1
   4  18   0 34.3300 18.0700   1
   4 -18   0 44.4500 18.2700   1
   5 -17   2 2989.02 99.0600   1
   5 -17  -2 2968.15 95.9900   1
   5 -17  -2 2719.15 104.550   1
   5 -17  -2 2711.12 86.9600   1
   5 -17   2 3197.58 84.7600   1
   5 -17  -2 2948.95 73.9700   1
   5  17   2 2670.71 66.5900   1
  -5 -17  -2 3067.26 89.2600   1
  -5 -17   2 2747.18 70.8500   1
  -5 -17  -2 3137.78 102.530   1
   7 -16   2 301.690 32.1700   1
  -7 -16   2 389.500 33.7700   1
   7 -16  -2 414.930 33.4700   1
  -7  16   2 286.000 22.3100   1
   7 -16   2 387.980 30.5500   1
  -7 -16  -2 348.650 35.5900   1
  -7 -16   2 516.740 45.6800   1
   7  16  -2 462.320 31.5300   1
   7  16   2 361.670 25.2300   1
  -7 -16  -2 376.690 33.4800   1
   7 -16  -2 298.770 35.8100   1
   7 -16  -2 268.450 26.2800   1
   7 -16  -2 283.900 29.7300   1
  10   2   6 43.6100 21.4200   1
 -10  -2   6 87.4700 24.7900   1
  10  -2   6 60.2800 19.3100   1
  10  -2   6 34.1800 18.9500   1
  10   2   6 39.1600 20.5900   1
  10  -2  -6 85.0400 25.7900   1
 -10   2  -6 49.6700 21.1600   1
 -10  -2  -6 22.7400 16.3800   1
 -10   2   6 67.6300 24.5900   1
   9 -12   4 1182.59 51.6700   1
   9  12  -4 1177.37 38.5000   1
  -9  12   4 1091.83 40.8500   1
   9 -12  -4 1321.59 66.0300   1
  -9 -12  -4 1407.87 71.9600   1
   9 -12  -4 1151.97 63.2200   1
   9  12   4 1622.31 58.5400   1
   0 -18   2 3094.62 73.3400   1
   0 -18  -2 3491.75 80.5200   1
   0 -18  -2 3021.49 81.7500   1
   0 -18  -2 3371.84 100.500   1
   0 -18   2 3031.51 79.3800   1
   0 -18   2 3511.90 88.1700   1
  -7  -1  -7 24.3900 16.0500   1
  -7   1   7 -3.2300 20.0200   1
  -7   1  -7 25.4100 17.5000   1
   7  -1   7 32.9600 18.3600   1
   7  -1  -7 39.0600 24.4900   1
  -7  -1  -7 36.6400 15.6800   1
  -7  -1  -7 21.1100 16.3700   1
  -7   1  -7 21.7900 21.0900   1
  -7  -1   7 -0.7900 17.1100   1
   0 -16   4 6496.48 106.920   1
   0 -16  -4 5862.06 136.830   1
  13   8  -3 5065.72 91.0900   1
  13  -8   3 4884.90 114.520   1
  13   8   3 4067.01 81.5000   1
 -13   8   3 4128.23 86.6300   1
  13  -8  -3 4299.83 111.240   1
  -4 -11  -6 2284.55 89.1100   1
   4 -11  -6 2242.92 84.9100   1
   4 -11   6 1914.92 110.320   1
   4 -11  -6 1975.11 75.0400   1
  -4 -11  -6 2000.09 93.0600   1
  -4 -11  -6 2172.67 84.0900   1
   4 -11   6 2246.57 75.3500   1
   4 -11  -6 2334.99 64.9400   1
  -4 -11   6 2885.27 89.1200   1
  -4 -11   6 2043.65 60.7400   1
  -4  11   6 2423.40 74.3200   1
   4  11   6 2969.46 114.240   1
  12 -12  -1 462.120 38.2400   1
 -12 -12  -1 664.230 37.7500   1
 -12 -12   1 686.930 37.4500   1
  12 -12  -1 495.520 39.1900   1
  12 -12   1 454.530 31.9700   1
  12  12  -1 721.250 37.0800   1
  12  12   1 514.130 28.2800   1
 -12 -12  -1 505.090 26.2600   1
   8 -13   4 316.790 29.4200   1
   8  13  -4 306.060 24.3000   1
   8  13   4 327.880 26.3900   1
  -8  13   4 348.050 26.3000   1
   8 -13  -4 263.460 28.4400   1
   8 -13  -4 253.850 25.1600   1
   8 -13  -4 184.230 26.7600   1
  -8 -13  -4 295.730 30.7700   1
   8 -13  -4 250.670 26.4800   1
  -2  -8  -7 99.9300 22.9300   1
   2  -8  -7 116.710 21.3400   1
   2   8   7 123.270 27.5700   1
  -2  -8  -7 142.580 25.4800   1
   2  -8   7 166.840 26.3800   1
   2  -8  -7 67.4200 23.2200   1
  -2  -8  -7 98.4100 24.0700   1
   2  -8   7 178.620 28.1800   1
   2  -8  -7 79.5600 22.5900   1
  -2  -8  -7 47.9000 21.9100   1
  -2  -8   7 165.310 28.9800   1
  -2   8   7 93.2800 23.3800   1
  -2  -8   7 130.600 22.2500   1
  -1 -18   2 938.940 43.7700   1
  -1 -18  -2 527.410 39.5300   1
   1 -18   2 778.540 36.3000   1
  -1 -18  -2 760.610 54.5100   1
  -1 -18   2 724.730 35.2400   1
   1 -18   2 907.380 42.8300   1
   1 -18   2 726.930 40.9300   1
   1 -18  -2 805.550 40.1500   1
   1 -18  -2 711.310 50.4600   1
  -1 -18  -2 928.500 47.4800   1
  -1 -18  -2 909.910 43.5900   1
  -1 -18   2 909.740 44.2600   1
   1 -18   2 789.260 40.3400   1
   1 -18  -2 785.870 45.7000   1
  15  -4   2 836.440 58.5300   1
  15  -4   2 735.010 43.0400   1
  15   4  -2 666.070 33.3200   1
  15  -4  -2 507.530 37.2300   1
  15   4   2 660.590 35.6800   1
   1 -16  -4 13.9700 20.1500   1
   1 -16  -4 6.31000 22.3800   1
  -1 -16   4 -8.7300 26.6200   1
  -1 -16  -4 -11.270 25.0800   1
   1 -16  -4 31.4600 20.6100   1
  -1 -16  -4 21.1600 27.9400   1
   1 -16   4 23.6300 20.7600   1
   1 -16   4 41.0800 25.8300   1
  -1 -16   4 61.4600 27.5600   1
  -1  16   4 46.9800 18.3100   1
  -1 -16  -4 19.0700 18.5500   1
   1 -16  -4 15.2200 21.7700   1
  -1 -16  -4 17.7600 22.7300   1
   1  16   4 20.1900 19.4000   1
  13  -5  -4 1037.62 45.4300   1
  13  -5  -4 1173.63 57.7200   1
  13   5   4 1161.88 47.2700   1
  13  -5   4 1115.37 50.6100   1
 -13  -5   4 1205.38 48.0300   1
 -13   5   4 1373.67 50.8500   1
   0 -12  -6 2106.50 82.3300   1
   0 -12  -6 2829.47 99.2800   1
   0  12   6 2141.48 76.3900   1
   0 -12   6 3152.42 85.5000   1
  -5  -6  -7 1124.62 64.4900   1
  -5  -6   7 2077.07 77.3800   1
   5  -6  -7 1537.36 68.1400   1
   5  -6   7 1557.99 61.4500   1
  -5  -6  -7 1287.26 51.0700   1
  -5   6  -7 1487.46 46.2400   1
  -5  -6   7 1633.40 48.9500   1
  -5   6   7 1911.03 60.4300   1
   5   6   7 1921.83 85.4600   1
  -5  -6  -7 1276.85 64.6600   1
  12   3  -5 1019.74 41.3600   1
 -12   3   5 1115.06 42.0600   1
  12  -3  -5 827.770 42.4600   1
 -12  -3  -5 719.760 49.6800   1
  12  -3   5 1000.86 51.9700   1
 -12  -3   5 852.660 30.4300   1
  12   3   5 686.160 33.7900   1
 -12 -10  -3 1208.91 40.5200   1
  12 -10  -3 927.040 44.3900   1
 -12 -10  -3 931.980 57.7200   1
  12  10   3 1245.55 50.0600   1
  12 -10  -3 1379.60 61.8500   1
  12 -10   3 1137.34 53.4600   1
 -12  10   3 1076.85 40.9500   1
  10 -11  -4 2922.61 90.4900   1
 -10 -11  -4 3151.37 71.1100   1
 -10  11   4 3596.90 73.4200   1
  10 -11   4 3752.22 100.750   1
  10 -11  -4 3100.29 95.0900   1
  10  11   4 3543.45 75.0000   1
  -4   7   7 742.880 46.9200   1
  -4  -7   7 728.140 37.3800   1
  -4  -7  -7 581.760 42.5800   1
   4  -7  -7 466.530 44.5200   1
   4  -7  -7 590.950 38.8000   1
  -4  -7  -7 526.700 33.7300   1
   4   7   7 723.200 49.8300   1
  -4  -7   7 752.610 46.7500   1
   4  -7   7 645.830 36.9900   1
  -4  -7  -7 428.910 34.6500   1
   4  -7  -7 533.180 37.9300   1
  -4   7  -7 455.470 26.1700   1
   4  -7   7 575.200 48.5200   1
   8 -16   1 672.540 42.6600   1
   8 -16   1 475.570 39.5700   1
   8 -16  -1 636.160 40.3900   1
  -8 -16   1 597.890 31.6300   1
   8  16  -1 566.930 26.1600   1
   8  16   1 812.390 39.9800   1
  -8 -16  -1 659.820 35.7400   1
   8 -16  -1 551.500 46.5000   1
  -7   2  -7 913.570 35.5200   1
  -7  -2  -7 836.600 38.1100   1
  -7  -2  -7 704.970 46.7900   1
  -7   2  -7 658.650 39.6400   1
   7  -2   7 636.720 40.6600   1
  -7   2   7 905.230 36.8900   1
  -7  -2  -7 592.530 43.0200   1
  -7  -2   7 867.480 34.4800   1
   7  -2  -7 852.240 49.8700   1
   1 -12  -6 532.370 34.5600   1
  -1  12   6 720.390 44.6600   1
   1 -12   6 710.060 37.3900   1
   1  12   6 622.330 44.0500   1
   1 -12  -6 720.870 37.4400   1
  -1 -12   6 814.500 44.8700   1
  -1 -12  -6 746.490 39.1700   1
   1 -12  -6 646.730 55.2100   1
  -1 -12  -6 623.600 45.0500   1
  -1 -12  -6 418.150 47.8600   1
  -1 -12  -6 565.920 33.9600   1
   1 -12  -6 691.120 50.9700   1
   5 -15  -4 2257.57 79.2900   1
   5 -15  -4 2479.22 83.1800   1
  -5 -15  -4 3017.00 128.850   1
   5 -15   4 2651.08 93.9200   1
   5 -15   4 3252.19 83.8700   1
   5  15  -4 3005.92 77.0700   1
   5 -15  -4 2894.15 75.3100   1
   5  15   4 3098.13 131.540   1
   5  15   4 3167.85 79.6100   1
   3 -14   5 52.5900 17.1100   1
  -3 -14  -5 42.5500 21.9400   1
   3 -14  -5 56.4600 23.8900   1
   3  14   5 62.7500 22.8400   1
  -3  14   5 84.3500 23.5300   1
   3 -14   5 155.550 35.3200   1
   3 -14  -5 89.3900 25.9000   1
  -3 -14  -5 112.270 25.8100   1
   3 -14  -5 87.8400 25.9200   1
  -3 -14  -5 67.4500 19.9800   1
   3 -14  -5 57.4300 25.7800   1
  -3 -14   5 99.2300 28.2300   1
  14   9   0 991.940 34.5400   1
 -14  -9   0 1109.34 54.7100   1
  14  -9   0 1288.11 60.6000   1
  15  -6  -1 2521.99 74.7500   1
  15  -6   1 2652.09 87.3200   1
  15   6  -1 2758.24 59.8200   1
  15  -6  -1 2356.88 74.0300   1
  15   6   1 2757.19 63.6800   1
 -15  -6  -1 3090.09 89.7000   1
   8  11   5 3140.94 80.1500   1
   8 -11  -5 2514.49 80.7900   1
  -8  11   5 2820.63 74.2400   1
   8 -11   5 3261.56 91.3300   1
 -10  -3   6 1217.89 43.5900   1
 -10  -3  -6 859.030 44.7100   1
 -10   3  -6 1029.97 62.6000   1
  10   3   6 991.780 44.9700   1
  10  -3  -6 1195.72 57.0900   1
  10  -3   6 959.630 49.5200   1
  -4 -18   1 3787.57 88.1800   1
  -4 -18  -1 3717.79 89.8900   1
   4 -18   1 4007.81 103.920   1
   4 -18  -1 4022.12 110.560   1
  -4 -18  -1 3640.46 101.680   1
   4  18  -1 3904.90 78.8300   1
   4 -18   1 3394.91 82.1000   1
   4 -18  -1 3531.10 79.5400   1
   4 -18  -1 4174.87 135.410   1
   4 -18   1 3845.82 112.350   1
   9  -6  -6 3237.97 101.720   1
  -9  -6  -6 2627.57 101.460   1
  -9   6   6 3131.79 69.3700   1
   9   6   6 2723.55 77.0300   1
   9   6  -6 2848.96 69.8100   1
   9  -6   6 2779.05 76.9200   1
  16   0   0 1628.35 51.9000   1
   2 -18  -2 2338.68 89.6000   1
   2 -18  -2 2301.25 85.4300   1
  -2 -18  -2 2488.29 83.7400   1
  -2 -18   2 2880.72 83.5800   1
   2 -18  -2 2176.86 82.2900   1
   2 -18  -2 2887.46 87.6300   1
  -2 -18   2 2296.58 70.6000   1
   2 -18   2 2359.21 64.0400   1
  -2 -18  -2 2424.52 67.8800   1
  -2 -18   2 2365.23 63.6900   1
   2 -18   2 2522.97 75.0200   1
  -2 -18  -2 2601.44 78.6000   1
   2 -18   2 2157.95 85.7800   1
  -2 -16  -4 4884.68 141.330   1
  -2 -16  -4 6069.44 148.970   1
  -2 -16  -4 5254.20 154.460   1
   2 -16  -4 5806.33 106.940   1
  -2 -16   4 5844.96 116.600   1
   2 -16   4 6159.26 125.250   1
   2 -16  -4 4689.06 120.810   1
   2 -16   4 5504.97 113.880   1
   2 -16  -4 5175.09 105.850   1
  -2  16   4 4554.25 128.120   1
   3  17   3 3566.14 75.3400   1
   3 -17  -3 3383.75 101.300   1
  -3 -17   3 3421.55 80.6300   1
  -3 -17  -3 4214.34 121.000   1
   3 -17  -3 3499.39 96.5200   1
   3 -17   3 3498.86 85.4600   1
   3 -17  -3 3239.46 113.270   1
  -3 -17  -3 3451.28 112.750   1
   3 -17   3 3410.55 85.5000   1
  -3 -17   3 3959.70 93.0400   1
   3 -17   3 3753.89 102.820   1
   3 -17  -3 3768.92 123.630   1
   3 -17   3 4228.76 101.300   1
  12  -8   4 35.6200 19.7200   1
  12   8  -4 107.440 29.2900   1
  12  -8  -4 47.5200 23.7300   1
  12  -8  -4 90.8200 31.4500   1
 -12   8   4 39.7000 16.4700   1
  12   8   4 50.4000 19.8600   1
 -12  -8  -4 41.7400 18.6200   1
  -7  -9  -6 146.040 22.2600   1
  -7  -9  -6 135.030 20.2000   1
   7  -9  -6 203.390 28.8100   1
  -7  -9  -6 137.190 24.4600   1
   7  -9   6 184.180 22.4300   1
   7   9  -6 218.230 20.8400   1
  -7  -9   6 218.960 24.1400   1
  -7   9   6 154.350 22.2500   1
   6  -5   7 3282.69 96.5500   1
  -6   5   7 3613.64 77.3900   1
  -6  -5  -7 2719.51 93.1700   1
  -6  -5  -7 2678.26 109.120   1
   6  -5  -7 2942.10 93.6500   1
  16  -1   0 166.670 29.4100   1
  16   1   0 118.720 20.3100   1
 -13 -11   0 1410.58 58.0300   1
  13  11   0 1251.89 46.8000   1
 -13 -11   0 1006.02 37.4700   1
  13 -11   0 1115.12 54.2200   1
  13 -11   0 848.720 51.0000   1
  -7 -12  -5 1933.68 84.7600   1
   7 -12  -5 2054.50 74.4900   1
   7 -12  -5 2381.99 67.2500   1
   7 -12  -5 1988.73 98.8000   1
  -7  12   5 1837.63 61.0100   1
   7 -12   5 2413.67 75.0900   1
   7  12  -5 2400.00 67.6200   1
   9 -10  -5 2540.84 75.1500   1
   9 -10   5 2811.60 82.4600   1
   9  10  -5 2490.34 51.4800   1
  -9  10   5 3412.85 83.9400   1
   9  10   5 2774.29 79.9400   1
   2 -12   6 900.020 41.4100   1
  -2 -12  -6 615.250 44.5900   1
  -2  12   6 647.080 43.1100   1
   2 -12  -6 845.340 40.3000   1
   2  12   6 751.710 48.5200   1
  -2 -12   6 1112.63 53.3100   1
  -2 -12  -6 837.890 48.7900   1
   2 -12  -6 731.100 42.0000   1
  -2 -12  -6 703.660 46.6000   1
   2 -12  -6 834.550 55.0100   1
   2 -12  -6 723.930 42.9000   1
   6 -10  -6 349.800 25.2700   1
   6 -10  -6 341.820 31.2200   1
  -6 -10  -6 297.040 31.3800   1
  -6 -10   6 348.640 37.2800   1
   6 -10   6 316.510 30.0700   1
  -6 -10   6 371.600 24.6800   1
  -6  10   6 371.480 27.7900   1
   6  10   6 297.930 34.2100   1
   6 -10  -6 292.770 27.4300   1
  -6 -10  -6 302.900 37.2300   1
  -6 -10  -6 331.900 26.4500   1
   7 -14  -4 515.400 36.6700   1
   7 -14  -4 654.760 34.0500   1
   7 -14  -4 568.170 46.7600   1
  -7 -14  -4 541.580 45.1100   1
   7 -14   4 747.210 43.9800   1
   7  14  -4 846.090 36.4100   1
   7  14   4 670.320 31.9500   1
  -7  14   4 658.660 37.9300   1
   7  14   4 533.540 61.4100   1
   3  -8  -7 219.220 25.5700   1
  -3  -8  -7 178.800 32.3000   1
   3   8   7 220.850 34.7200   1
   3  -8   7 184.460 24.9500   1
   3  -8  -7 161.760 24.8300   1
  -3  -8  -7 153.250 28.3200   1
  -3  -8  -7 188.630 28.7000   1
   3  -8  -7 87.7900 24.1800   1
  -3   8   7 162.900 28.0300   1
  -3  -8   7 252.530 32.9300   1
  -3  -8   7 224.360 25.4200   1
   7  -3  -7 30.1400 23.6400   1
   7  -3   7 5.60000 19.5100   1
  -7  -3   7 -13.170 20.6400   1
  -7  -3  -7 0.68000 18.8900   1
  -7   3  -7 -2.7200 21.5300   1
  -7  -3  -7 -5.5900 20.4600   1
  -7   3   7 -6.2100 21.5800   1
  13  10   2 1380.34 45.0000   1
  13  10  -2 1698.03 49.5800   1
  13 -10   2 1535.45 66.8200   1
  13 -10  -2 1735.88 69.7700   1
  13 -10  -2 1218.76 54.0000   1
 -13 -10  -2 1518.63 61.6900   1
  16   2   0 2356.40 64.1700   1
  16  -2   0 2109.65 79.1000   1
  12  -4  -5 2151.08 74.5000   1
 -12  -4   5 2045.41 52.5900   1
  12   4   5 2617.29 81.3600   1
  12   4  -5 2225.68 57.1000   1
  12  -4   5 2397.73 80.6200   1
  14   9   1 6133.44 109.720   1
  14  -9   1 5426.23 115.210   1
  14  -9  -1 5586.74 121.290   1
 -14  -9  -1 5539.64 103.060   1
  10 -14  -2 563.320 41.0800   1
 -10 -14   2 561.150 38.1500   1
 -10 -14  -2 433.770 28.2900   1
 -10 -14  -2 350.200 34.7600   1
  10 -14   2 571.430 38.2300   1
  10  14  -2 500.110 28.2300   1
  10  14   2 461.870 23.9400   1
  10 -14  -2 572.840 50.5400   1
  14  -8   2 15.9200 25.7900   1
  14   8  -2 27.3600 20.6600   1
  14   8   2 34.6400 18.6200   1
  14  -8  -2 19.1800 21.3900   1
 -14  -8  -2 26.0500 22.4400   1
  14  -8  -2 23.2000 24.8900   1
  -7 -17   0 3319.74 104.430   1
   7 -17   0 3285.94 98.0700   1
   7  17   0 3734.50 77.9400   1
   7 -17   0 3325.82 90.1900   1
  -8  -8  -6 65.0500 28.9500   1
  -8  -8  -6 57.3500 22.7700   1
   8  -8  -6 50.0800 23.3300   1
  -8  -8  -6 40.2700 16.2800   1
  -8  -8  -6 35.1300 18.7400   1
  -8  -8   6 86.1700 22.6000   1
   8   8   6 44.9200 15.9400   1
   8   8  -6 82.1200 18.9400   1
   8  -8   6 53.7900 18.7600   1
  -8   8   6 74.9100 20.3400   1
   6 -16  -3 362.560 31.2900   1
   6 -16  -3 376.350 38.1800   1
  -6  16   3 319.240 23.2000   1
   6  16   3 431.340 25.0200   1
   6  16  -3 520.890 29.5800   1
  -6 -16   3 547.590 40.9200   1
  -6 -16  -3 435.940 41.0900   1
   6 -16   3 452.140 37.8800   1
  -6 -16   3 495.060 36.6900   1
   6 -16   3 436.030 33.3400   1
  -6 -16  -3 330.770 33.7500   1
   6 -16  -3 385.800 30.3800   1
   6 -16  -3 540.360 48.1500   1
  14  -6  -3 738.750 37.4400   1
 -14   6   3 1028.15 40.5700   1
  14   6   3 938.050 40.4300   1
  14   6  -3 1063.43 43.0800   1
  14  -6   3 1141.64 50.0000   1
  14  -6  -3 925.670 48.4400   1
  15  -5  -2 527.400 36.7100   1
 -15  -5  -2 620.490 40.5800   1
  15  -5  -2 723.370 38.2800   1
  15   5  -2 826.810 37.6200   1
  15  -5   2 907.850 45.2900   1
  15   5   2 1045.25 47.1500   1
  11 -10  -4 2629.66 87.4200   1
 -11 -10  -4 2537.11 89.1000   1
  11 -10  -4 3505.96 115.170   1
 -11 -10  -4 3112.33 75.6500   1
 -11  10   4 2554.51 63.8800   1
  11  10   4 3254.86 75.8600   1
  11 -10   4 2776.40 85.6100   1
 -11  -7   5 242.830 26.7000   1
 -11   7   5 186.330 20.1600   1
 -11  -7  -5 199.950 26.7500   1
  11  -7  -5 229.800 29.2700   1
  11  -7   5 162.610 26.3600   1
  11   7  -5 215.710 22.8100   1
  11   7   5 189.290 24.9800   1
 -10  13   3 29.9100 14.5800   1
  10 -13  -3 78.3400 26.5300   1
 -10 -13  -3 53.1900 23.1400   1
  10 -13  -3 27.8200 27.4400   1
  10 -13   3 53.6200 24.8100   1
  10  13  -3 92.7900 30.6500   1
  10  13   3 44.4700 27.4100   1
  16   0   1 1747.05 61.0400   1
  16   0  -1 1521.62 48.3700   1
 -11 -13  -2 913.200 43.3500   1
  11 -13  -2 621.570 46.7800   1
 -11 -13  -2 672.040 43.9500   1
 -11 -13   2 715.250 39.2200   1
  11 -13  -2 782.440 46.9600   1
  11 -13   2 775.880 43.3200   1
  11  13  -2 776.840 31.0200   1
  11  13   2 604.400 25.6500   1
  10  -4   6 134.740 23.9700   1
 -10   4  -6 90.0000 22.9400   1
 -10  -4  -6 119.630 22.1100   1
 -10   4   6 140.220 26.6700   1
  10   4   6 158.710 31.3200   1
  10   4  -6 170.550 27.0300   1
 -10  -4  -6 126.070 23.5200   1
  10  -4  -6 89.4300 22.8800   1
 -10  -4   6 111.470 19.3700   1
   5 -18   0 2076.84 98.8100   1
  -5 -18   0 2294.65 78.1100   1
   5 -18   0 2228.61 84.9100   1
   5  18   0 2192.94 57.4600   1
   5 -18   0 1956.62 59.4900   1
  -5 -18   0 2142.16 66.8300   1
  15  -7   0 199.360 27.2000   1
  15   7   0 129.230 23.0500   1
 -15  -7   0 111.960 22.2100   1
   9 -14  -3 563.960 41.2300   1
   9  14  -3 496.200 25.2700   1
   9  14   3 634.140 33.0500   1
   9 -14  -3 602.720 52.5400   1
   9 -14  -3 405.690 29.7500   1
  -9  14   3 536.830 29.8400   1
   9 -14   3 584.870 38.8800   1
  -9 -14  -3 488.120 35.2300   1
  16  -1  -1 49.0400 24.8800   1
  16  -1   1 14.2100 22.4400   1
  16   1   1 15.5200 26.8700   1
  16   1  -1 22.5600 24.0600   1
  13 -11  -1 379.090 34.9300   1
 -13 -11  -1 410.170 28.1100   1
  13  11  -1 552.420 28.9800   1
  13 -11  -1 572.950 37.8200   1
 -13 -11   1 422.840 31.1800   1
 -13 -11  -1 459.160 36.4400   1
  13 -11   1 454.710 40.2700   1
  13  11   1 548.030 29.1900   1
   3 -18   2 2578.98 94.4800   1
  -3 -18   2 2686.42 69.1800   1
   3  18   2 2012.74 53.3800   1
  -3 -18   2 2389.05 78.2000   1
   3 -18   2 2181.56 60.0700   1
   3 -18  -2 1958.58 70.4700   1
   3 -18  -2 2008.30 57.4200   1
   3 -18  -2 2153.81 84.2900   1
  -3 -18  -2 2598.25 76.8800   1
   3 -18   2 2289.54 63.7500   1
   3 -18  -2 2129.07 88.4600   1
  -3 -18   2 2160.19 64.7100   1
  -3 -18  -2 2232.71 81.5700   1
   9 -15  -2 1957.44 72.9300   1
   9 -15   2 1887.45 66.1200   1
  -9 -15  -2 2011.93 81.8000   1
   9 -15  -2 1784.81 68.6700   1
   9 -15  -2 1494.61 73.4800   1
   9  15   2 2367.61 57.7500   1
   9  15  -2 2144.86 51.2800   1
  -3  16   4 126.950 18.7500   1
   3  16   4 157.100 24.5600   1
   3 -16  -4 159.720 26.4200   1
  -3 -16  -4 168.520 23.4700   1
   3 -16  -4 152.120 27.1500   1
   3 -16  -4 180.360 30.4400   1
  -3 -16  -4 188.040 30.2400   1
   3 -16   4 208.150 25.6400   1
  -3 -16   4 196.020 27.9700   1
   3 -16  -4 202.220 25.5400   1
   3 -16   4 258.480 64.0900   1
  -3 -16   4 275.160 35.0600   1
   3  16   4 158.060 19.4900   1
  13  -6  -4 561.220 40.4300   1
  13  -6  -4 553.860 34.2700   1
  13  -6   4 535.080 36.9200   1
  13   6  -4 546.920 28.5500   1
  13   6   4 495.140 29.0900   1
 -13   6   4 611.370 32.3300   1
   0  -9  -7 9340.30 259.860   1
   0  -9   7 11605.2 281.260   1
   0   9   7 10777.5 261.780   1
   0  -9   7 10565.6 264.070   1
   0  -9  -7 8694.37 240.620   1
   0  -9  -7 9857.01 247.020   1
   0  -9  -7 9202.73 234.110   1
   5 -11  -6 325.130 38.1500   1
  -5 -11  -6 206.220 28.5400   1
  -5 -11  -6 259.880 32.1300   1
   5 -11   6 203.160 23.4400   1
  -5 -11   6 251.160 35.6700   1
  -5 -11   6 225.730 20.2500   1
  -5 -11  -6 171.410 27.3100   1
   5 -11  -6 252.120 29.8300   1
   5 -11  -6 320.350 29.8100   1
  -5  11   6 329.420 31.2100   1
   5  11   6 222.270 31.6200   1
  -4 -14  -5 3775.12 95.3900   1
   4  14   5 3838.30 114.950   1
   4 -14  -5 3723.68 93.1300   1
  -4 -14  -5 4271.55 125.780   1
   4 -14   5 4412.17 100.130   1
   4 -14  -5 4561.21 86.7700   1
  -4  14   5 4479.52 102.680   1
   4 -14  -5 3444.15 112.490   1
  14   0   4 7013.54 188.400   1
 -14   0   4 8512.59 205.690   1
  14   0   4 7464.13 200.760   1
  15   0   3 3.87000 25.2600   1
  15   0   3 16.0900 25.1200   1
  15   0  -3 -17.070 27.6900   1
  -6 -13  -5 436.660 47.5200   1
  -6 -13   5 721.580 55.1100   1
   6 -13  -5 607.160 52.4300   1
   6 -13  -5 444.860 34.9300   1
   6 -13  -5 338.040 35.0000   1
   6  13   5 475.310 52.9400   1
  -6  13   5 517.390 31.3000   1
   6  13   5 474.200 36.1600   1
   6  13  -5 561.320 31.4200   1
   6 -13   5 556.460 36.7900   1
 -10  -9  -5 55.8600 23.5100   1
  10  -9  -5 54.1300 26.5000   1
  10  -9   5 83.6000 24.6300   1
 -10  -9  -5 48.2700 20.7700   1
  10   9  -5 61.4600 21.1900   1
  10   9   5 58.6900 17.7000   1
 -10  -9   5 71.9300 18.4400   1
 -10   9   5 61.2600 18.9100   1
  -1  -9  -7 49.5300 28.0600   1
   1  -9  -7 78.5900 22.7000   1
   1  -9  -7 64.1300 24.1600   1
  -1  -9  -7 51.4900 20.9700   1
   1  -9  -7 68.9900 26.0600   1
   1   9   7 71.0600 31.1700   1
  -1   9   7 82.9600 22.9000   1
  -1  -9  -7 105.070 27.3200   1
   1  -9  -7 16.6100 18.4600   1
  -1  -9   7 79.0300 29.5100   1
  -1  -9   7 98.6600 28.3200   1
  -1  -9  -7 87.0600 25.0100   1
   1  -9   7 97.3500 24.9000   1
   1  -9   7 99.1300 25.6100   1
   0 -19   0 27.1600 25.0500   1
   0 -19   0 -22.620 28.8100   1
  -3 -12  -6 2004.23 81.3800   1
   3 -12  -6 2463.10 67.7000   1
   3 -12  -6 3024.56 112.960   1
   3 -12   6 2745.65 130.180   1
   3 -12   6 2401.67 66.6800   1
  -3 -12  -6 2244.67 95.0700   1
  -3 -12   6 2713.66 73.7000   1
  -3  12   6 2339.28 82.6800   1
   3  12   6 2183.07 87.5600   1
   3 -12  -6 2423.50 82.5300   1
  16  -3   0 2035.86 69.8000   1
  16   3   0 2835.26 86.6700   1
  -6 -17   2 273.630 28.0100   1
   6 -17  -2 220.380 26.9800   1
  -6 -17  -2 249.000 28.5200   1
   6 -17   2 308.430 31.9000   1
   6 -17  -2 250.390 30.8100   1
  -6 -17  -2 293.270 39.5200   1
   6 -17  -2 217.070 24.7100   1
   6 -17   2 289.290 29.7600   1
  -6 -17   2 237.940 36.0600   1
   6  17  -2 300.890 25.5100   1
   6 -17  -2 265.240 25.8800   1
   6  17   2 240.780 21.8500   1
  14   1   4 17.8000 19.6600   1
  14  -1   4 57.5400 28.2800   1
  14   1  -4 24.0800 18.3000   1
  14  -1  -4 53.8000 20.7800   1
  14   1   4 19.7700 24.7300   1
  14  -1   4 44.3700 20.5700   1
 -14  -1   4 43.7400 21.7700   1
 -14   1   4 57.5300 20.6400   1
  11 -12   3 411.980 35.1400   1
  11  12  -3 404.530 28.3900   1
  11  12   3 352.170 24.2400   1
 -11  12   3 249.690 21.0200   1
 -11 -12  -3 299.060 26.5200   1
  11 -12  -3 253.390 26.7900   1
 -11 -12  -3 291.640 33.6400   1
  11 -12  -3 329.170 34.1300   1
  15  -1   3 429.580 33.6100   1
  15  -1   3 376.490 27.4500   1
  15   1  -3 457.180 36.5000   1
  15  -1  -3 580.500 34.4200   1
  15   1   3 403.570 27.0900   1
  16  -2   1 2507.56 73.1700   1
  16  -2   1 2206.51 62.8800   1
  16   2   1 2423.50 70.8700   1
  16  -2  -1 2145.93 68.5100   1
  -5   7  -7 288.790 23.3700   1
  -5  -7  -7 274.260 35.1400   1
   5  -7   7 355.970 39.5300   1
   5  -7  -7 324.450 28.2500   1
  -5  -7  -7 268.990 22.9100   1
  -5  -7  -7 211.810 25.6900   1
  -5  -7   7 374.260 25.4200   1
  -5  -7   7 416.100 40.0200   1
   5  -7   7 362.910 29.9900   1
   5  -7  -7 313.300 29.3000   1
  -5   7   7 443.790 36.0800   1
   5   7   7 380.870 43.5400   1
   7  -4  -7 1363.95 49.1800   1
  -7  -4  -7 1637.32 50.9800   1
  -7  -4  -7 1364.98 63.2200   1
  -7   4  -7 1100.72 59.5700   1
  -7   4   7 1584.03 61.9000   1
  -7  -4   7 1499.06 47.9600   1
   7  -4   7 1345.17 56.6300   1
  -7  -4  -7 1370.83 83.2900   1
  -7 -17   1 246.660 28.9500   1
   7 -17  -1 261.020 26.5200   1
   7 -17   1 245.380 28.1800   1
  -7 -17  -1 286.000 35.0800   1
  -7 -17   1 240.070 37.2900   1
   7  17  -1 266.850 26.3000   1
   7  17   1 264.260 21.6700   1
   7 -17  -1 301.140 28.1100   1
   7 -17   1 255.720 32.5400   1
  -7 -17  -1 266.380 28.1400   1
  -7 -17  -1 199.760 23.5700   1
   7 -17  -1 196.650 29.3500   1
   4 -17  -3 179.030 26.9300   1
   4 -17  -3 159.380 25.6700   1
   4 -17   3 198.710 26.6400   1
   4 -17  -3 197.680 22.1500   1
  -4 -17   3 150.460 25.3200   1
  -4 -17  -3 152.410 28.5500   1
   4 -17  -3 171.350 27.5800   1
  -4 -17   3 194.340 25.9600   1
   4  17   3 242.690 22.4500   1
  -4 -17   3 264.040 33.2100   1
   4 -17   3 268.880 27.0600   1
  -1 -19   0 3398.67 90.3700   1
   1 -19   0 3381.57 85.8600   1
   1 -19   0 3359.50 104.790   1
  -1 -19   0 2850.99 85.9900   1
   1 -19   0 2674.11 85.8500   1
  -1 -19   0 2782.75 69.6400   1
  11 -14   0 332.660 36.5000   1
 -11 -14   0 321.980 28.5100   1
  11  14   0 449.240 32.0400   1
  11 -14   0 455.240 39.5400   1
  10  15   0 493.460 30.4500   1
  10 -15   0 395.920 27.6700   1
 -10 -15   0 319.920 26.9200   1
  10 -15   0 312.040 33.5000   1
   0   0  -8 6279.73 131.090   1
  -6  -6   7 1329.09 60.8400   1
   6   6   7 1061.63 67.9800   1
   6  -6   7 1008.40 45.3100   1
  -6  -6   7 1111.60 39.1100   1
  -6   6   7 1104.47 44.0700   1
  -6  -6  -7 938.970 64.7100   1
  -6   6  -7 680.410 51.3800   1
  -6  -6  -7 939.910 50.3000   1
   6  -6  -7 1367.32 82.4200   1
  -5 -18   1 428.800 43.6000   1
   5 -18  -1 290.540 28.6700   1
  -5 -18   1 245.740 29.2100   1
  -5 -18  -1 271.920 30.1400   1
   5 -18   1 277.650 28.9700   1
   5 -18  -1 314.520 28.1700   1
   5 -18   1 256.860 25.3400   1
   5 -18  -1 193.160 23.7400   1
   5  18   1 278.850 24.5800   1
   5 -18  -1 244.220 30.0200   1
   5 -18   1 229.850 26.4700   1
   5  18  -1 314.180 25.1800   1
  -5 -18  -1 264.720 29.4300   1
  15  -7  -1 14.1000 21.0600   1
  15   7   1 20.7200 21.3800   1
 -15  -7  -1 7.58000 22.5300   1
  15  -7  -1 18.8800 29.3000   1
  15  -7  -1 24.0100 27.3300   1
  15   7  -1 17.6100 27.5700   1
  15  -7   1 18.1100 28.6500   1
   8  15  -3 297.040 22.6300   1
   8  15   3 307.220 24.4600   1
   8 -15  -3 206.860 24.3900   1
   8 -15  -3 242.500 26.1000   1
   8 -15  -3 209.070 27.9500   1
  -8 -15  -3 253.110 29.4300   1
  -8 -15   3 253.260 28.8600   1
  -8  15   3 204.880 23.2300   1
   8 -15  -3 287.900 31.4900   1
   8 -15   3 280.380 29.0900   1
  14  -2   4 4323.24 96.3500   1
  14   2   4 3706.64 85.4200   1
 -14  -2   4 3965.48 68.8200   1
 -14   2   4 4119.52 72.7900   1
  14  -2   4 4220.43 113.650   1
  14  -2  -4 4965.13 117.130   1
  -4  -8  -7 100.320 25.7500   1
   4  -8  -7 161.390 22.1100   1
  -4  -8  -7 137.100 29.2700   1
   4  -8   7 141.150 20.8800   1
  -4  -8   7 181.070 27.3300   1
  -4  -8   7 177.890 21.7100   1
   4   8   7 189.000 33.2100   1
   4  -8  -7 134.520 24.7300   1
  -4   8   7 226.700 31.8700   1
   4  -8  -7 188.780 30.4900   1
  -4  -8  -7 133.620 26.8700   1
 -13   9   3 517.610 31.6600   1
  13  -9   3 506.560 40.1200   1
  13  -9  -3 500.570 35.7300   1
  13   9  -3 432.520 28.6600   1
  13   9   3 578.780 34.9200   1
 -13  -9  -3 349.430 37.9000   1
  13  -9  -3 422.830 32.9400   1
  15  -2   3 361.960 31.3900   1
  15  -2  -3 329.260 27.3100   1
  15   2  -3 531.750 35.9600   1
  15  -2   3 389.670 36.5600   1
  15   2   3 345.350 29.4200   1
  12  12  -2 1449.63 40.8800   1
 -12 -12  -2 1476.41 47.3300   1
  12 -12  -2 1819.65 78.1400   1
 -12 -12  -2 1169.68 53.6500   1
  12 -12   2 1395.83 57.7300   1
  12  12   2 1316.43 42.5200   1
   0  -1  -8 -2.9700 18.3300   1
   0  -1   8 -6.3800 29.0900   1
   0   1   8 0.06000 30.6800   1
   9   7   6 75.1300 22.6100   1
   9   7  -6 68.5700 15.4600   1
   9  -7   6 78.0100 27.0900   1
  -9  -7   6 37.7800 17.6400   1
  -9   7   6 48.1500 20.2900   1
  -9  -7  -6 37.2900 21.4000   1
  -9  -7  -6 54.3200 19.2200   1
   9  -7  -6 114.410 32.1700   1
   2  -9  -7 1130.94 55.8100   1
  -2  -9  -7 1220.98 72.0200   1
  -2  -9  -7 1396.13 69.6600   1
   2  -9  -7 1584.67 61.3100   1
  -2  -9  -7 1584.36 57.0000   1
   2  -9  -7 1247.43 59.1700   1
  -2  -9  -7 1296.52 77.8300   1
   2  -9   7 1495.96 53.5600   1
   2   9   7 1476.24 63.0800   1
  -2  -9   7 1400.32 63.9800   1
  -2   9   7 1255.16 54.8900   1
   2  -9   7 1350.92 71.4600   1
  12  -5  -5 1202.10 52.0000   1
  12   5   5 1650.90 70.8700   1
  12   5  -5 1446.42 48.1500   1
  12  -5   5 1229.12 48.3700   1
  -1   0  -8 -10.900 18.4800   1
   1   0   8 19.2900 26.9600   1
  -1   0   8 -5.2100 26.1400   1
   1   0  -8 3.62000 20.2600   1
   6  15   4 44.7800 14.2900   1
   6 -15  -4 53.8800 25.3400   1
  -6 -15  -4 31.7700 28.5500   1
  -6  15   4 48.7600 20.3000   1
   6 -15   4 44.1100 22.8400   1
   6 -15  -4 33.2000 25.8500   1
   6  15   4 22.7300 22.5100   1
   6 -15  -4 38.3000 20.8600   1
   6  15  -4 54.0300 24.4700   1
  -6 -15   4 14.6600 30.0900   1
   1   1   8 6189.81 117.060   1
  -1  -1   8 6037.90 102.250   1
  -1   1   8 6234.31 103.880   1
   1  -1   8 6001.02 132.490   1
  -2 -19   0 193.820 25.4100   1
   2 -19   0 179.420 22.2300   1
   2 -19   0 222.990 29.6700   1
  -2 -19   0 202.300 32.2100   1
  -2 -19   0 191.740 32.2600   1
   2 -19   0 168.160 24.4500   1
  -8   0   7 747.410 34.1300   1
   8   0   7 517.720 39.7500   1
   8   0  -7 685.110 40.3700   1
  -8   0  -7 661.180 32.3800   1
  -8   0  -7 471.760 41.1400   1
  -8   0  -7 353.690 33.3500   1
   0 -19  -1 1206.70 46.9800   1
   0 -19   1 1443.18 72.1900   1
   0 -19  -1 1363.61 46.1700   1
   0 -19  -1 1041.17 48.2600   1
   0 -19   1 1118.59 47.8400   1
   0 -19   1 1166.61 46.3500   1
  16   3  -1 891.230 57.6800   1
  16  -3   1 653.630 35.2300   1
  16  -3   1 936.680 53.8500   1
  16  -3  -1 832.580 43.7900   1
  16   3   1 892.960 48.4900   1
   8 -16  -2 3288.05 109.250   1
   8 -16   2 3503.59 88.2800   1
   8 -16  -2 2870.98 61.9700   1
   8 -16  -2 3350.92 101.250   1
  -8 -16   2 3793.22 91.4000   1
  -8 -16  -2 3448.00 107.440   1
   8 -16   2 2899.05 96.2000   1
  12 -13   0 166.220 24.5500   1
  12  13   0 295.130 29.4900   1
 -12 -13   0 113.710 21.3400   1
  12 -13   0 137.590 23.5700   1
 -12 -13   0 147.850 28.6400   1
   0 -15   5 324.040 30.4400   1
   0  15   5 206.600 25.7800   1
   0 -15  -5 226.060 27.5400   1
   0 -15  -5 220.730 27.9800   1
   0 -15  -5 347.230 32.7600   1
   0 -15   5 367.110 34.7600   1
   0 -15  -5 234.250 28.0400   1
  10  -5  -6 3053.44 81.2500   1
 -10  -5  -6 2688.50 89.6000   1
  10  -5   6 3102.32 88.4700   1
 -10  -5   6 3241.69 57.7700   1
   9  16   0 313.440 24.6600   1
   9 -16   0 164.010 23.2100   1
  -9 -16   0 271.020 30.4600   1
   9 -16   0 291.440 34.7800   1
  -8  -1  -7 665.010 30.1200   1
  -8  -1  -7 543.270 42.5800   1
  -8   1  -7 834.030 46.9000   1
  -8   1   7 791.160 33.0100   1
  -8  -1   7 824.130 32.0100   1
  -8  -1  -7 452.760 40.6000   1
   8  -1  -7 782.350 40.7500   1
  -8   1  -7 680.260 30.4700   1
   0   2   8 7352.83 206.070   1
  16   4   0 157.460 22.8700   1
  16  -4   0 117.580 27.0300   1
  16  -4   0 135.160 30.8400   1
   1 -19  -1 669.790 40.5900   1
  -1 -19   1 558.920 33.7300   1
  -1 -19  -1 593.870 34.4100   1
   1 -19  -1 473.970 39.7900   1
  -1 -19  -1 528.700 36.7900   1
   1 -19   1 627.150 44.4200   1
  -1 -19   1 545.860 39.7900   1
   1 -19  -1 560.960 38.7500   1
   1 -19   1 582.150 36.7300   1
  -1 -19  -1 587.580 36.2500   1
  -1 -19   1 686.410 45.2800   1
   1 -19   1 555.610 32.6400   1
 -11 -14   1 128.730 26.5600   1
 -11 -14  -1 121.220 28.1400   1
  11 -14  -1 74.0600 20.3000   1
  11  14   1 143.340 19.6500   1
  11  14  -1 128.940 20.4100   1
  11 -14   1 118.620 26.9900   1
  11 -14  -1 130.060 28.7600   1
 -15  -6  -2 1359.82 54.2000   1
  15   6  -2 1738.26 52.0900   1
  15  -6   2 2062.15 86.2300   1
  15  -6  -2 1294.32 54.9600   1
  15   6   2 1577.71 52.1000   1
  15  -6  -2 1843.33 68.3100   1
 -10 -15  -1 55.3500 28.5500   1
  10 -15  -1 23.8600 20.7000   1
 -10 -15   1 39.5900 20.9600   1
  10  15   1 69.7200 25.2700   1
  10  15  -1 70.3600 20.9000   1
  10 -15   1 10.5700 26.8300   1
  10 -15  -1 46.4100 22.3200   1
  10 -15   1 31.2100 17.7400   1
  -1 -15  -5 1412.98 71.1500   1
   1  15   5 1413.53 78.2800   1
   1 -15  -5 1416.33 76.4600   1
   1 -15  -5 1682.69 73.9500   1
  -1 -15  -5 1545.64 68.4500   1
   1 -15   5 1788.72 59.2700   1
  -1 -15   5 1993.01 69.7400   1
  -1 -15   5 1876.53 60.4100   1
  -1  15   5 1670.19 85.4200   1
   1 -15   5 1830.98 63.3500   1
   1 -15  -5 1534.48 68.4900   1
  -1 -15  -5 1479.23 64.1500   1
   1 -15  -5 1937.68 61.5500   1
  -1 -15  -5 1881.92 60.2500   1
   4 -18   2 166.090 30.6600   1
   4 -18  -2 229.990 28.3700   1
  -4 -18  -2 231.200 29.2900   1
   4 -18   2 239.970 29.1500   1
  -4 -18  -2 106.840 30.1500   1
   4 -18  -2 186.410 27.6200   1
  -4 -18   2 273.970 36.5300   1
  -4 -18   2 177.860 25.5400   1
   4 -18  -2 181.400 28.1500   1
   4  18   2 249.310 26.2500   1
   4 -18  -2 155.900 20.8700   1
   4 -18   2 158.440 23.1800   1
  -4 -16  -4 723.010 49.4800   1
   4 -16  -4 948.920 39.7500   1
   4 -16  -4 851.120 53.5000   1
  -4 -16  -4 824.250 53.7900   1
   4 -16   4 748.670 44.7200   1
  -4 -16   4 954.130 41.2900   1
   4  16   4 950.480 39.9000   1
   4  16   4 689.640 49.7500   1
   4 -16  -4 837.700 55.1100   1
  -4  16   4 726.630 45.5100   1
   4 -16   4 958.710 55.2800   1
   4 -16   4 781.840 40.8400   1
  -4 -16   4 1019.93 48.5500   1
  -1   2   8 64.3700 26.8400   1
   1  -2  -8 37.2600 20.0500   1
   1   2   8 71.2100 23.1700   1
  -1  -2  -8 46.7100 18.7900   1
  -1  -2   8 75.7700 23.8200   1
  -2   0  -8 1743.61 78.4800   1
  -2   0   8 2587.09 76.8200   1
   2   0  -8 1976.93 62.8300   1
 -14  -3   4 2893.26 64.9900   1
  14  -3  -4 3120.45 82.7800   1
  14   3  -4 3175.36 70.2100   1
  14  -3   4 2912.08 87.7300   1
  14  -3  -4 2642.98 69.8200   1
 -14   3   4 3130.14 78.3600   1
 -14 -10   0 2415.37 71.2400   1
  14  10   0 2611.23 72.9300   1
  14 -10   0 2678.63 94.3700   1
  15  -3   3 958.740 49.2600   1
  15  -3  -3 872.890 42.7300   1
  15   3   3 978.310 45.8600   1
  15  -3   3 1024.24 59.8400   1
  15   3  -3 941.950 36.8800   1
  14   7   3 5111.29 88.7200   1
  14  -7   3 5786.55 109.400   1
  14  -7  -3 4829.54 112.390   1
  14  -7  -3 5627.49 128.750   1
  12  -9   4 2590.80 88.3200   1
  12  -9  -4 2325.22 80.7100   1
  12   9  -4 2676.61 56.9600   1
  12  -9  -4 2285.59 72.6900   1
 -12  -9  -4 2787.55 63.5700   1
 -12   9   4 2837.10 68.7800   1
  12   9   4 2139.01 56.8100   1
  12 -11  -3 803.440 44.6000   1
  12 -11   3 1019.38 52.6200   1
 -12  11   3 994.250 36.5000   1
 -12 -11  -3 800.040 31.0100   1
  12  11   3 1065.21 40.7800   1
 -12 -11  -3 712.750 53.7800   1
  12 -11  -3 911.280 48.8400   1
  12  11  -3 1029.56 35.0500   1
   2   1   8 54.9200 33.4400   1
  -2  -1   8 30.2700 23.4300   1
   2  -1   8 43.2300 37.0100   1
   2  -1  -8 82.1700 24.6200   1
  -2  -1  -8 30.4600 19.9700   1
  -2  -1  -8 40.8500 22.7300   1
   8  -2   7 462.430 38.8100   1
  -8  -2   7 775.030 38.2700   1
  -8   2   7 519.690 27.1900   1
  -8  -2  -7 633.280 32.4600   1
  -8  -2  -7 422.140 39.5300   1
  -8   2  -7 424.430 33.2200   1
   8  -2   7 431.930 38.7700   1
  -8  -2  -7 581.790 35.6000   1
   4 -12  -6 436.990 39.5400   1
  -4 -12  -6 463.670 44.7500   1
  -4 -12  -6 459.630 40.5300   1
   4 -12  -6 497.770 40.2400   1
  -4 -12  -6 441.300 42.6100   1
   4 -12  -6 561.790 33.4600   1
   4 -12   6 473.200 53.6000   1
   4 -12   6 584.790 38.2000   1
  -4 -12   6 588.310 41.7000   1
  -4  12   6 491.220 34.3600   1
   4  12   6 530.550 47.8200   1
   7  -5   7 682.720 43.9100   1
  -7  -5   7 730.970 34.5400   1
  -7  -5  -7 539.920 48.5800   1
  -7   5  -7 410.470 39.2100   1
  -7  -5  -7 677.330 48.3500   1
  -7  -5  -7 821.210 42.8800   1
   7  -5  -7 758.820 54.5100   1
  -7   5   7 695.660 32.6900   1
  11   0   6 5.39000 21.7600   1
  11   0   6 -22.530 18.8200   1
 -11   0   6 9.62000 20.4400   1
 -11   0  -6 9.02000 13.0900   1
  -9  13   4 2317.05 60.5700   1
   9  13   4 2036.11 48.7000   1
   9  13  -4 2118.29 54.0200   1
   9 -13   4 2124.49 65.3600   1
   9 -13  -4 2039.02 79.1900   1
  -9 -13  -4 2227.25 90.2400   1
   9 -13  -4 1973.26 67.7800   1
  -3  -9  -7 69.6300 27.2800   1
   3  -9  -7 54.7900 21.5100   1
  -3  -9  -7 64.4600 27.1600   1
  -3  -9  -7 24.7300 24.1900   1
   3  -9  -7 3.88000 25.2100   1
   3   9   7 82.4400 39.0300   1
  -3   9   7 105.580 26.1900   1
  -3  -9   7 35.2400 21.5400   1
  -3  -9   7 51.4900 29.1900   1
   3  -9   7 42.3100 23.1400   1
   3  -9   7 67.7500 32.3000   1
   3  -9  -7 56.6300 22.6400   1
   7 -10  -6 191.950 29.0200   1
  -7 -10  -6 219.880 26.9100   1
  -7 -10  -6 133.220 22.6700   1
  -7 -10  -6 155.420 23.1300   1
  -7  10   6 233.660 27.6900   1
  -7 -10   6 266.380 30.2000   1
   7  10  -6 225.150 20.8100   1
  -7 -10   6 322.720 41.1700   1
   7 -10   6 225.280 26.2700   1
  11  -1   6 592.700 40.5600   1
  11   1   6 586.540 44.2500   1
  11  -1   6 675.230 42.8300   1
  11   1   6 586.470 38.2700   1
  11  -1  -6 675.990 38.7200   1
 -11   1  -6 493.900 36.1400   1
 -11   1   6 711.890 38.8600   1
 -11  -1   6 592.420 26.1300   1
  -2 -19   1 575.920 33.8200   1
  -2 -19  -1 629.290 34.5800   1
   2 -19  -1 693.940 45.3400   1
  -2 -19  -1 622.970 45.8600   1
   2 -19   1 543.200 33.2700   1
   2 -19  -1 592.110 33.3600   1
  -2 -19  -1 591.700 41.5800   1
   2 -19   1 685.780 42.5100   1
   2 -19  -1 613.370 36.4300   1
   2 -19   1 658.790 50.6100   1
  -2 -19   1 526.860 36.8700   1
  -2 -19   1 574.380 33.8000   1
  -2 -19   1 635.650 39.3900   1
  13  -7  -4 262.230 26.6900   1
 -13   7   4 332.260 23.9500   1
  13  -7   4 349.300 27.9600   1
  13  -7  -4 297.670 29.7800   1
  13   7   4 340.980 26.9600   1
  13   7  -4 335.910 22.7100   1
  10 -12  -4 219.520 27.7700   1
 -10  12   4 265.920 22.7100   1
  10  12   4 262.420 21.4800   1
  10  12  -4 474.530 35.0800   1
  10 -12   4 242.760 24.0500   1
  10 -12  -4 291.980 36.6500   1
 -10 -12  -4 225.320 28.9700   1
  -5  14   5 89.8300 22.7100   1
  -5 -14   5 192.590 37.5700   1
   5 -14   5 107.310 23.5700   1
   5  14   5 111.270 20.2500   1
  -5 -14  -5 59.4800 20.8500   1
  -5 -14  -5 92.7800 29.2400   1
   5 -14  -5 108.820 25.9300   1
   5 -14  -5 41.0300 27.4300   1
   5  14   5 119.760 37.5100   1
   5 -14  -5 74.7300 25.9700   1
  -5 -14  -5 96.9800 23.7000   1
  11  -8   5 318.340 30.2000   1
  11   8  -5 344.460 22.5000   1
  11   8   5 313.490 24.0900   1
 -11  -8  -5 393.080 28.1000   1
 -11  -8   5 342.300 20.1900   1
 -11   8   5 301.510 22.9900   1
  11  -8  -5 449.730 43.2800   1
  -2 -15  -5 -21.230 23.4100   1
  -2 -15  -5 43.8800 20.9200   1
  -2 -15   5 11.8300 25.6700   1
   2 -15   5 9.96000 19.2000   1
  -2 -15  -5 -6.8500 28.7400   1
  -2 -15  -5 -18.770 23.4000   1
   2 -15  -5 4.47000 28.4000   1
   2 -15  -5 -2.8500 19.3500   1
  -2 -15   5 34.7900 27.5100   1
   2 -15  -5 4.53000 23.7100   1
   2  15   5 5.03000 19.1000   1
  -2  15   5 21.8900 17.2600   1
   2 -15  -5 -6.9500 21.9800   1
   2 -15   5 5.63000 23.4500   1
  12  13  -1 589.570 28.8600   1
 -12 -13  -1 534.780 31.1700   1
  12 -13  -1 457.580 45.0400   1
 -12 -13   1 667.290 44.0900   1
 -12 -13  -1 643.980 37.7300   1
  12 -13   1 643.170 43.1700   1
  12 -13  -1 609.110 39.9900   1
  12  13   1 530.440 26.7800   1
   0  -3   8 12.7900 29.4300   1
   0   3   8 -6.9900 30.0300   1
   0  -3  -8 -11.110 18.9000   1
   9  16  -1 216.130 21.6500   1
   9  16   1 291.060 32.4400   1
   9 -16  -1 209.720 25.3200   1
   9 -16  -1 220.730 27.9000   1
   9 -16   1 155.880 25.5700   1
  -9 -16  -1 180.080 24.3200   1
  -9 -16   1 234.660 30.6200   1
   9 -16   1 220.180 23.6300   1
  14  -9  -2 159.700 27.4500   1
 -14  -9  -2 175.350 28.0600   1
  14   9   2 167.050 28.4400   1
  14  -9  -2 126.360 24.6900   1
  14   9  -2 170.580 26.0300   1
  14  -9   2 121.500 28.2800   1
  -2  -2   8 1365.28 46.2400   1
  -2  -2  -8 961.090 53.4300   1
  -2  -2  -8 970.220 54.9100   1
  -2   2   8 1378.48 51.1000   1
   2  -2  -8 1211.45 58.8000   1
   3 -19   0 385.400 28.5000   1
   3 -19   0 475.380 40.1100   1
  -3 -19   0 538.740 40.0700   1
  -3 -19   0 498.480 43.0700   1
   3 -19   0 380.550 35.6000   1
  -3 -19   0 609.600 43.2700   1
  15  -8   0 1734.21 61.0300   1
 -15  -8   0 1435.98 51.7200   1
  -6 -18   0 2195.73 71.9300   1
   6 -18   0 2180.16 61.2100   1
   6 -18   0 2065.88 85.1200   1
   6  18   0 2334.82 57.5300   1
   6 -18   0 2418.37 83.9100   1
  -6 -18   0 2937.59 87.9000   1
   0  13   6 26.2800 33.7900   1
   0 -13  -6 43.7200 25.4300   1
   0 -13  -6 4.79000 21.2700   1
   0 -13  -6 -21.560 25.5800   1
   0 -13  -6 -12.860 27.4400   1
   0 -13   6 2.45000 26.0200   1
  -8  -9   6 556.780 30.5200   1
   8  -9   6 584.440 36.1400   1
  -8  -9  -6 318.040 29.0700   1
  -8  -9  -6 409.570 33.5800   1
   8   9  -6 609.280 29.9500   1
  -8   9   6 625.200 32.4600   1
   8  -9  -6 512.790 40.5000   1
  -8  -9  -6 434.480 36.2100   1
  16  -4   1 3100.71 82.1600   1
  16   4  -1 2912.79 65.3100   1
  16   4   1 3384.84 95.6000   1
  16  -4  -1 2881.48 84.7100   1
  16  -4   1 2815.89 78.6000   1
 -16  -4  -1 2386.23 71.4600   1
  -8 -12  -5 1178.26 67.8400   1
   8 -12  -5 1154.96 54.5500   1
  -8  12   5 1650.59 51.8900   1
   8  12  -5 1483.26 40.9100   1
   8 -12   5 1446.69 56.0300   1
   1   3   8 726.650 43.9100   1
  -1  -3  -8 602.430 45.4200   1
  -1  -3  -8 559.430 36.3400   1
  -1  -3  -8 834.240 55.6300   1
   1  -3   8 1024.31 52.3400   1
   1  -3  -8 795.870 46.7700   1
  -1   3   8 937.010 49.8900   1
  -1  -3   8 1040.56 48.0900   1
   9 -11  -5 879.830 44.6200   1
  -9  11   5 963.670 38.2000   1
  -9 -11  -5 898.820 56.4900   1
   9  11   5 797.680 33.8300   1
   9 -11   5 1245.58 61.3800   1
   9  11  -5 1227.41 41.5700   1
  13   0   5 54.4400 31.6300   1
  13   0  -5 -13.850 17.3600   1
 -13   0   5 2.45000 18.7700   1
  13   0   5 14.1900 19.6000   1
   5 -17  -3 3446.36 108.360   1
   5 -17   3 3640.15 96.7800   1
   5  17  -3 3824.41 79.3500   1
   5  17   3 3103.28 61.8800   1
   5 -17  -3 3710.54 118.450   1
  -5 -17  -3 3057.26 93.9300   1
   5 -17  -3 3579.14 82.5600   1
   5 -17   3 3107.87 95.0500   1
   7 -16   3 29.2400 20.6800   1
  -7 -16  -3 4.01000 24.2000   1
  -7 -16   3 7.27000 39.9500   1
   7  16  -3 21.7400 20.4000   1
   7  16   3 26.6300 18.7200   1
  -7  16   3 10.2400 14.5600   1
   7 -16  -3 23.9200 22.0000   1
   7 -16  -3 -24.850 24.1200   1
   7 -16   3 17.1100 19.5800   1
  -7 -16  -3 22.6500 22.0500   1
  -7 -16   3 6.10000 21.9800   1
   7 -16  -3 13.0900 20.2600   1
   7 -16  -3 27.8000 16.6700   1
  16   0  -2 912.770 41.3100   1
  16   0   2 934.340 46.5500   1
  -8 -14  -4 5746.18 131.430   1
   8 -14  -4 6017.97 112.810   1
   8 -14   4 5867.86 117.630   1
   8  14   4 5945.46 93.2600   1
   8 -14  -4 5042.86 115.690   1
   8 -14  -4 7221.52 244.640   1
   1 -13   6 2586.11 72.7600   1
  -1 -13   6 2846.57 92.1500   1
  -1  13   6 2194.61 86.2200   1
   1  13   6 2327.54 84.6900   1
   1 -13  -6 1767.62 72.8500   1
  -1 -13  -6 2146.69 63.8500   1
   1 -13  -6 1792.05 70.5900   1
  -1 -13  -6 2200.64 85.5200   1
   1 -13  -6 2043.45 63.2200   1
  -1 -13  -6 1926.48 97.8700   1
  -1 -13  -6 2175.19 85.1500   1
 -11   2  -6 676.240 43.1900   1
  11  -2   6 987.290 47.0200   1
  11  -2  -6 1018.06 54.5700   1
  11   2   6 920.350 52.5800   1
  11  -2   6 1094.20 62.1800   1
  11   2   6 982.530 52.5500   1
 -11  -2   6 1060.61 35.5700   1
 -11   2   6 1261.03 46.6200   1
 -11  -2  -6 787.910 48.1000   1
  -6 -11   6 116.240 29.9900   1
   6  11   6 48.9300 28.6300   1
  -6  11   6 80.3600 30.5100   1
   6 -11  -6 47.5300 20.0100   1
   6 -11   6 113.550 24.9400   1
  -6 -11  -6 30.2500 22.8100   1
   6 -11  -6 54.1700 24.3200   1
  -6 -11  -6 59.5000 23.2300   1
  -6 -11  -6 69.8100 30.4300   1
   6 -11  -6 100.370 26.4400   1
   0 -18   3 -22.200 22.1700   1
   0 -18  -3 -14.790 22.3700   1
   0 -18   3 -19.410 19.3900   1
   0 -18  -3 -1.2300 14.7600   1
   0 -18  -3 -23.120 21.0100   1
   0 -18  -3 1.72000 32.3300   1
   0 -18   3 26.8000 31.2200   1
  14 -10   1 -4.2900 23.5700   1
  14 -10  -1 -24.980 24.4600   1
  14  10  -1 9.30000 30.9200   1
  14  10   1 1.60000 22.0000   1
  14 -10  -1 4.79000 28.2200   1
 -14 -10  -1 -0.5500 23.4400   1
  13  -1   5 410.160 37.0100   1
  13  -1   5 310.730 27.3500   1
 -13  -1   5 310.690 20.5800   1
 -13   1   5 472.150 32.7600   1
  13   1   5 391.210 33.7800   1
  13   1   5 364.480 28.6200   1
  13  -1  -5 317.660 27.3700   1
  13   1  -5 370.800 25.4500   1
  -8  -3   7 413.920 27.2100   1
   8  -3  -7 389.530 38.3800   1
  -8  -3  -7 505.590 32.3400   1
  -8  -3  -7 372.400 39.7200   1
  -8   3  -7 267.290 27.8900   1
  -8  -3  -7 267.260 28.3500   1
  -8   3   7 469.780 33.4400   1
   8  -3   7 333.370 28.7700   1
  16   1   2 106.090 23.9100   1
  16  -1  -2 59.8400 22.2800   1
  16  -1   2 76.5300 22.6800   1
  16   1  -2 125.310 27.4100   1
  16  -1   2 61.8800 27.9300   1
  12   6  -5 1475.72 46.1100   1
 -12   6   5 1707.24 51.1300   1
  12   6   5 1529.75 57.2600   1
  12  -6   5 1496.76 61.7900   1
 -12  -6   5 1853.16 56.1200   1
 -13 -11  -2 602.970 35.8700   1
  13  11   2 732.600 32.6700   1
 -13 -11  -2 788.310 33.4100   1
  13  11  -2 640.870 28.1400   1
  13 -11   2 578.410 36.5400   1
  13 -11  -2 645.120 42.7100   1
  13 -11  -2 538.740 38.2100   1
   3   0  -8 3.30000 20.7000   1
  -3   0  -8 -29.520 18.7600   1
   3   0   8 50.2300 31.7600   1
  -3   0   8 -7.7200 22.3200   1
  13  12   0 155.800 22.6400   1
  13 -12   0 85.0700 26.9600   1
 -13 -12   0 147.830 21.0500   1
 -13 -12   0 161.150 27.4500   1
  14   4   4 1444.28 53.3700   1
  14   4  -4 1625.34 54.2600   1
  14  -4   4 1474.19 66.5000   1
  14  -4  -4 1440.54 61.2500   1
  14  -4  -4 1451.55 59.9600   1
 -14   4   4 1407.85 49.1100   1
   1 -18   3 317.240 26.5700   1
  -1 -18   3 423.400 37.8400   1
   1 -18  -3 203.560 24.0600   1
  -1 -18  -3 349.220 36.9000   1
   1 -18  -3 284.150 33.4500   1
   1 -18   3 370.080 36.7800   1
   1 -18   3 318.480 28.2900   1
  -1 -18  -3 176.180 23.7400   1
   1 -18  -3 178.980 25.3500   1
  -1 -18   3 338.340 29.5400   1
  -1 -18   3 328.390 29.6900   1
   1 -18  -3 320.350 27.9500   1
  -1 -18  -3 302.290 29.7200   1
  15  -4  -3 2323.50 67.0000   1
  15  -4   3 2713.06 96.8900   1
  15  -4  -3 2194.47 69.9600   1
  15   4   3 2524.95 73.0300   1
  15   4  -3 2199.02 60.5000   1
  15  -4   3 2100.04 71.5100   1
  -5  -8  -7 1185.49 52.2800   1
   5  -8  -7 1628.22 64.5000   1
  -5  -8  -7 1220.16 64.8100   1
   5  -8   7 1466.46 61.1800   1
  -5  -8   7 1700.00 59.6600   1
   5  -8  -7 1314.68 56.8700   1
  -5  -8  -7 1291.29 62.9600   1
   5  -8   7 1267.41 70.3000   1
  -5   8   7 1406.42 47.5400   1
   5   8   7 1517.42 76.5800   1
   8 -17   0 376.270 39.4700   1
  -8 -17   0 421.450 30.6300   1
   8  17   0 326.050 20.9300   1
   8 -17   0 327.540 30.1800   1
  -6  -7   7 1650.27 53.1700   1
   6   7   7 1348.00 73.1000   1
  -6   7   7 1736.73 51.3600   1
  -6  -7  -7 1331.48 60.1400   1
   6  -7  -7 1621.55 60.7300   1
  -6  -7  -7 1328.26 59.5300   1
  -6  -7   7 1730.01 73.9000   1
   6  -7   7 1610.55 58.7300   1
  16   5   0 2605.47 60.3000   1
  16  -5   0 2097.05 65.5300   1
  16  -5   0 2338.49 67.7000   1
   3  -1  -8 231.760 27.6200   1
  -3   1   8 212.640 26.3800   1
  -3  -1   8 224.690 26.4100   1
   3   1   8 334.990 44.1600   1
   3  -1   8 269.470 40.5200   1
  -3   1  -8 146.330 26.0700   1
  -3  -1  -8 165.850 24.9100   1
  -3  -1  -8 152.030 23.5100   1
  10   6  -6 256.840 20.7700   1
 -10  -6  -6 151.950 22.9600   1
  10  -6   6 275.060 31.8100   1
 -10   6  -6 130.420 20.3500   1
 -10  -6   6 315.040 24.6600   1
  10  -6  -6 244.470 32.6200   1
 -10  -6  -6 195.860 23.2000   1
 -10   6   6 381.650 32.0200   1
  10   6   6 314.340 32.3900   1
  -2  -3  -8 1720.41 75.1900   1
  -2  -3  -8 1307.27 69.5000   1
   2   3   8 1679.65 68.0100   1
   2  -3  -8 1625.82 66.6500   1
  11 -11  -4 161.240 25.8900   1
  11  11  -4 217.260 25.0200   1
  11 -11   4 149.680 24.7500   1
  11  11   4 276.330 35.2100   1
 -11  11   4 145.540 22.6400   1
  11 -11  -4 112.710 26.3100   1
 -11 -11  -4 146.380 25.9400   1
 -11 -11  -4 139.600 22.1500   1
   7 -13  -5 45.1200 22.2400   1
   7  13  -5 33.5800 21.0100   1
   7  13   5 14.3800 16.3900   1
  -7  13   5 24.6500 19.3800   1
   7  13   5 26.0100 21.8100   1
   7 -13  -5 15.2000 23.1500   1
   7 -13  -5 34.0200 24.2000   1
  -7 -13  -5 28.6800 23.9200   1
   7 -13   5 48.8200 24.0800   1
  -7 -13   5 -26.850 38.8200   1
  13  -2   5 1018.06 51.8400   1
 -13   2   5 1087.85 40.8900   1
  13  -2   5 1181.95 59.6400   1
 -13  -2   5 1363.63 45.7700   1
  13  -2  -5 1004.45 47.7100   1
  13   2  -5 1440.15 57.3800   1
  13   2   5 917.310 41.8500   1
   0 -10   7 -21.300 18.0100   1
   0  10   7 -18.120 21.6100   1
   0 -10  -7 -3.8700 20.8400   1
   0 -10  -7 -1.1300 24.5800   1
   0 -10  -7 -26.460 25.6000   1
   0 -10  -7 -2.7000 23.5800   1
   0 -10   7 -9.8500 22.9900   1
  16   2   2 1138.17 38.8500   1
  16  -2   2 1452.99 57.2900   1
  16   2  -2 1440.22 53.2700   1
  16  -2  -2 1027.68 47.3000   1
  16  -2   2 1355.00 51.8900   1
  -3 -19  -1 2142.66 75.9800   1
   3 -19  -1 1722.99 63.8300   1
  -3 -19   1 2067.52 58.2500   1
  -3 -19  -1 1542.84 67.6300   1
  -3 -19   1 2066.40 63.9700   1
   3 -19  -1 1834.92 60.2700   1
   3 -19   1 2119.05 64.9700   1
   3 -19  -1 1663.05 64.4400   1
  -3 -19   1 2560.77 94.3000   1
   3 -19   1 1734.34 62.0000   1
   3 -19  -1 1717.39 89.8500   1
   3 -19   1 1904.28 62.9900   1
  15  -8  -1 2060.31 77.0500   1
 -15  -8  -1 2015.22 70.5300   1
  15   8   1 2386.57 64.6100   1
  15   8  -1 2173.51 57.1300   1
  15  -8   1 2156.58 70.3700   1
   7 -17  -2 5997.49 141.360   1
   7 -17   2 7559.18 206.170   1
   7 -17  -2 7841.69 221.510   1
   7 -17  -2 6718.14 99.7000   1
  -7 -17   2 7367.62 186.540   1
  -7 -17  -2 7522.26 217.890   1
   7 -17   2 6792.55 174.880   1
  -7 -17  -2 7166.27 201.350   1
  -7 -17   2 7910.55 217.750   1
   7  17  -2 7994.47 193.080   1
   7  17   2 6111.52 91.3100   1
  -2 -13  -6 506.580 37.3800   1
  -2 -13  -6 361.910 36.8200   1
   2 -13  -6 415.000 43.3600   1
   2  13   6 471.250 42.5300   1
  -2  13   6 597.780 46.2500   1
  -2 -13   6 629.870 46.2800   1
   2 -13   6 597.440 37.0000   1
   2 -13  -6 528.510 39.1700   1
   2 -13  -6 477.530 44.6700   1
   2 -13   6 429.230 27.8100   1
  -2 -13  -6 452.840 41.6500   1
  -2 -13  -6 636.220 35.6600   1
   2 -13  -6 555.260 32.7800   1
  -6 -18   1 539.330 33.4000   1
  -6 -18  -1 528.800 46.3800   1
   6 -18   1 558.640 53.7500   1
   6 -18  -1 424.700 37.5900   1
   6 -18  -1 505.260 31.6600   1
   6 -18   1 468.910 33.3400   1
   6  18   1 696.670 39.3800   1
   6  18  -1 681.520 59.9700   1
  -6 -18   1 770.920 50.7200   1
  -6 -18  -1 615.450 44.9500   1
   6 -18  -1 639.630 44.9000   1
   6 -18   1 608.750 38.7200   1
  -3 -15  -5 5155.52 114.380   1
   3 -15  -5 5532.40 94.8700   1
   3  15   5 5255.61 140.040   1
   3 -15   5 5496.99 107.360   1
   3 -15  -5 4770.19 118.120   1
  -3 -15  -5 4272.15 120.250   1
  -3  15   5 4493.64 108.580   1
   3 -15  -5 4723.54 107.630   1
  -3 -15  -5 4304.94 102.460   1
   3 -15  -5 4806.99 129.290   1
 -10 -10  -5 801.340 49.0700   1
  10 -10  -5 1037.23 51.4200   1
 -10 -10  -5 994.310 39.6900   1
 -10 -10   5 860.750 32.8500   1
  10  10   5 1350.35 60.3400   1
  10  10  -5 1093.34 38.9000   1
  10 -10   5 994.980 55.7900   1
 -10  10   5 1011.40 39.3800   1
   0  -4  -8 757.170 53.0500   1
   0  -4  -8 1199.97 70.4200   1
   0   4   8 1071.20 62.4700   1
   0  -4   8 1343.28 62.9100   1
  -1  10   7 7728.49 239.880   1
  -1 -10  -7 6648.88 109.070   1
  -1 -10  -7 5650.11 142.460   1
   1  10   7 5696.90 123.370   1
  -1 -10  -7 5566.51 105.950   1
  -1 -10   7 6305.20 157.440   1
   1 -10  -7 6217.89 151.910   1
   1 -10  -7 6396.69 113.410   1
   1 -10  -7 5664.72 157.070   1
   1 -10  -7 6175.34 135.390   1
   0 -17  -4 7.73000 21.0200   1
   0 -17   4 -7.8600 28.1600   1
   0 -17  -4 8.31000 18.1100   1
   0 -17  -4 -13.510 26.0400   1
   0 -17   4 2.01000 20.6800   1
   0 -17  -4 24.4700 23.0500   1
  -9   8   6 2793.09 64.0200   1
  -9  -8   6 2757.96 65.4700   1
   9  -8  -6 2075.84 76.1400   1
   9  -8   6 2414.40 71.7800   1
  -9  -8  -6 1943.49 81.4800   1
  -9  -8  -6 2276.61 61.9700   1
 -11  -3   6 107.630 20.7300   1
  11  -3   6 77.3800 22.5800   1
  11   3   6 53.6400 22.8800   1
 -11   3   6 108.410 21.5100   1
 -11   3  -6 71.7700 20.4700   1
  11  -3  -6 159.100 36.5100   1
 -11  -3  -6 53.0500 18.4700   1
   3  -2   8 1955.22 73.6200   1
  -3   2   8 1625.74 65.8000   1
  -3  -2   8 1804.41 64.4200   1
  -3  -2  -8 1105.36 65.0500   1
  -3  -2  -8 1407.04 75.1200   1
   3  -2  -8 1334.93 68.3200   1
   2 -18  -3 1043.61 59.4400   1
  -2 -18  -3 1028.54 61.0200   1
  -2 -18   3 1011.06 44.6500   1
  -2 -18   3 1564.46 58.9200   1
   2 -18   3 1057.30 56.2300   1
   2 -18   3 1214.43 51.4200   1
  -2 -18  -3 1363.39 48.1200   1
   2 -18  -3 1157.07 69.4300   1
  -2 -18  -3 1280.65 62.1100   1
  -2 -18   3 1225.72 46.7500   1
   2 -18   3 1343.29 51.3300   1
   5 -18  -2 2460.03 93.5900   1
   5  18  -2 2644.35 75.9700   1
  -5 -18   2 3012.07 82.5200   1
   5 -18   2 1991.16 68.4500   1
   5 -18  -2 2322.70 83.4700   1
   5 -18   2 2437.18 81.9500   1
  -5 -18  -2 2413.61 78.5800   1
  -5 -18   2 2333.27 65.1100   1
   5 -18  -2 2183.07 84.6600   1
   5  18   2 2438.16 64.0100   1
   5 -18  -2 2680.13 74.9700   1
  -5 -18  -2 2546.92 109.390   1
  15  -7  -2 138.980 28.1500   1
  15  -7   2 93.0800 28.4400   1
  15   7  -2 76.8300 21.9600   1
  15   7   2 63.4700 32.3700   1
  15  -7  -2 100.100 26.3500   1
  15  -7  -2 72.8000 22.0700   1
 -15  -7  -2 91.3600 24.0600   1
  -1  -4   8 605.320 33.2300   1
  -1   4   8 741.750 39.0600   1
   1   4   8 539.710 41.3400   1
  -1  -4  -8 437.840 43.2300   1
  -1  -4  -8 546.020 38.4600   1
   1  -4  -8 653.910 49.9100   1
   1  -4   8 683.850 36.0800   1
  -1  -4  -8 539.930 47.6900   1
   1 -17  -4 2527.90 93.0500   1
   1 -17   4 3251.93 90.3900   1
  -1 -17   4 3328.74 90.5100   1
   1 -17   4 2995.84 69.4800   1
  -1 -17  -4 2223.97 79.9500   1
   1 -17  -4 2998.90 68.6800   1
  -1 -17  -4 3204.49 83.0200   1
   1 -17  -4 2271.74 72.0000   1
  -1 -17  -4 2851.25 108.380   1
  -1 -17   4 3110.37 73.5600   1
   5 -16   4 93.8900 26.6500   1
  -5 -16   4 61.0600 37.6800   1
   5  16   4 54.8800 17.5600   1
  -5  16   4 61.0300 19.0400   1
   5  16   4 45.1200 22.0800   1
   5 -16  -4 71.2700 20.4000   1
   5 -16  -4 83.9800 25.5000   1
   5 -16  -4 57.5400 25.0400   1
  -5 -16  -4 101.840 35.9900   1
   5 -16   4 13.5900 23.8900   1
  -5 -16   4 65.1600 23.8400   1
  -4  -9  -7 134.320 26.8900   1
  -4  -9  -7 54.8500 23.6400   1
  -4  -9  -7 70.0200 26.1000   1
   4   9   7 85.3600 38.4900   1
  -4   9   7 85.2000 27.7500   1
  -4  -9   7 103.420 19.3700   1
  -4  -9   7 70.6300 33.8500   1
   4  -9   7 105.410 19.7100   1
   4  -9  -7 127.890 21.4200   1
   4  -9  -7 113.660 24.0400   1
   4  -9   7 123.510 28.5600   1
   4  -9  -7 99.1800 24.5700   1
   7  -6   7 3375.13 97.5700   1
  -7  -6   7 4391.03 131.640   1
  -7   6   7 3778.76 78.3300   1
  -7  -6  -7 3476.82 117.480   1
   7  -6  -7 3732.64 91.5100   1
  13  12  -1 2202.15 46.5400   1
  13  12   1 2417.50 60.4200   1
 -13 -12  -1 2213.62 56.0400   1
 -13 -12  -1 2090.30 76.6800   1
 -13 -12   1 2310.52 65.9700   1
  13 -12  -1 2205.80 68.2100   1
  13 -12   1 2307.04 90.0200   1
   8  -4   7 987.160 60.6600   1
  -8  -4  -7 1216.79 61.3000   1
  -8   4  -7 790.000 51.9000   1
  -8  -4  -7 656.670 47.8800   1
  -8   4   7 1119.94 47.2700   1
  -8  -4   7 1212.19 49.4900   1
   8  -4  -7 1074.56 58.4500   1
  -8  -4  -7 866.540 61.1100   1
   8 -17  -1 227.460 33.3000   1
   8  17   1 186.530 25.7900   1
   8 -17   1 264.590 41.9700   1
   8 -17  -1 273.610 32.4500   1
   8 -17   1 252.850 33.8300   1
  -8 -17   1 212.330 32.3300   1
  -8 -17  -1 303.650 33.5300   1
   8  17  -1 309.850 31.0200   1
 -16  -5  -1 1087.93 58.9700   1
  16  -5   1 1036.96 51.6100   1
  16  -5  -1 967.780 48.8600   1
  16   5   1 1136.10 48.2700   1
  16  -5  -1 1040.68 49.9200   1
  16  -5   1 1333.14 66.9400   1
  -4 -19   0 1866.55 70.8100   1
   4 -19   0 1981.99 83.3500   1
   4  19   0 2025.37 73.4000   1
  -4 -19   0 2374.23 91.6200   1
   4 -19   0 2271.73 79.7100   1
   4 -19   0 1944.25 75.6800   1
  -4 -19   0 1878.47 87.5300   1
  -5 -12   6 1075.20 66.0600   1
  -5  12   6 606.720 37.1300   1
   5  12   6 725.090 61.6900   1
   5 -12   6 422.590 58.0500   1
   5 -12   6 657.020 39.6700   1
  -5 -12  -6 526.280 46.8600   1
  -5 -12  -6 766.770 50.1400   1
   5 -12  -6 756.380 41.5000   1
   5 -12  -6 701.050 48.4100   1
  -5 -12  -6 720.890 52.8500   1
   5 -12  -6 657.090 54.1400   1
   7 -15   4 4785.43 149.730   1
   7  15  -4 5630.50 154.900   1
  -7  15   4 5164.20 147.930   1
   7 -15  -4 4190.58 141.250   1
   7 -15  -4 5088.57 139.790   1
   7 -15  -4 5442.46 182.310   1
  -7 -15  -4 4873.31 167.190   1
   7  15   4 4214.47 175.650   1
 -13  -3  -5 625.410 46.3900   1
 -13   3   5 880.380 38.5800   1
 -13  -3   5 1000.81 42.6700   1
  13  -3   5 734.150 44.9500   1
  13   3   5 735.720 45.0000   1
  13  -3  -5 835.400 42.4400   1
  13  -3   5 984.190 57.1000   1
  13   3  -5 843.850 44.8900   1
  13 -10  -3 5282.36 160.630   1
 -13 -10  -3 4031.27 155.200   1
 -13 -10  -3 5810.06 151.540   1
  13 -10  -3 3970.62 131.290   1
  13 -10   3 4720.86 143.990   1
  13  10  -3 5700.89 145.250   1
  13  10   3 4796.01 133.250   1
 -13  10   3 4732.50 124.470   1
   0 -19   2 -14.510 29.4100   1
   0 -19  -2 23.5700 28.5900   1
   0 -19   2 -10.420 29.7300   1
   0 -19   2 0.75000 25.5200   1
   0 -19  -2 17.7900 25.9800   1
   0 -19   2 26.8100 28.5400   1
   0 -19  -2 -6.6600 30.6000   1
  16  -3   2 1463.86 69.0000   1
  16   3  -2 1530.48 60.1500   1
  16   3   2 1603.84 61.7900   1
  16  -3  -2 1787.98 76.8200   1
  16  -3   2 1541.62 86.1200   1
  -2 -10   7 275.330 36.3800   1
  -2 -10  -7 266.190 29.8700   1
  -2 -10  -7 265.820 38.8300   1
   2 -10  -7 183.820 32.7200   1
   2 -10  -7 272.210 35.0400   1
  -2 -10  -7 211.660 32.6000   1
   2 -10   7 272.020 31.6100   1
  -2 -10   7 247.960 31.4600   1
   2  10   7 244.500 35.1300   1
   2 -10   7 258.580 34.1100   1
   2 -10  -7 209.000 30.9800   1
  -2 -10  -7 276.890 34.1000   1
  10 -14  -3 3799.00 141.820   1
 -10 -14  -3 3941.05 143.000   1
 -10  14   3 3901.28 110.170   1
  10  14   3 3901.02 103.640   1
  10 -14   3 4822.60 167.740   1
  10 -14  -3 4452.73 144.690   1
  14  -8  -3 37.4500 26.7200   1
  14  -8  -3 86.7500 27.3700   1
  14   8   3 101.770 30.2100   1
  14   8  -3 88.3200 26.9200   1
  14  -8   3 65.3300 29.8900   1
   1 -19  -2 2791.28 98.3600   1
   1 -19   2 2178.13 76.0700   1
   1 -19  -2 2008.79 88.2100   1
  -1 -19   2 3023.39 110.060   1
   1 -19  -2 1958.05 88.4300   1
  -1 -19  -2 2310.32 98.7300   1
  -1 -19   2 2261.03 82.6800   1
   1 -19   2 2448.42 106.800   1
   1 -19  -2 2538.75 97.5200   1
  -1 -19   2 2175.19 79.6700   1
  -1 -19  -2 2380.15 89.8800   1
   1 -19   2 2544.42 88.9900   1
  -1 -19  -2 2478.39 84.2700   1
 -11 -14  -2 2144.87 74.8400   1
  11 -14  -2 2186.25 101.600   1
  11  14  -2 2378.89 74.1200   1
  11 -14  -2 2452.77 96.7800   1
 -11 -14  -2 2061.42 99.2100   1
  11 -14   2 2353.69 92.8500   1
 -11 -14   2 2601.58 95.6800   1
  -3  -3   8 571.040 40.1200   1
  -3  -3  -8 293.590 31.4300   1
   3  -3  -8 400.830 39.2200   1
  -3  -3  -8 387.390 34.2400   1
   3  -3   8 612.140 56.2100   1
  -3  -3  -8 401.910 40.9200   1
  -3   3   8 515.140 39.5900   1
   3   3   8 478.910 45.5300   1
  10 -15   2 482.450 38.3600   1
  10 -15  -2 453.560 36.8800   1
 -10 -15   2 554.450 40.4000   1
 -10 -15  -2 403.350 41.0500   1
  10 -15  -2 469.950 39.5800   1
  10  15   2 494.510 31.5500   1
  10  15  -2 562.940 34.9600   1
  -2  -4  -8 855.410 57.1800   1
   2  -4  -8 1157.55 58.2900   1
  -2  -4  -8 1268.79 73.1100   1
  -2  -4   8 1140.45 57.8100   1
  -2  -4  -8 960.440 63.4600   1
   2   4   8 1117.63 56.4200   1
  -2   4   8 1499.36 94.5500   1
  -2 -17   4 1813.34 65.3900   1
  -2 -17   4 2316.80 93.9200   1
   2 -17  -4 1572.31 70.4300   1
  -2 -17  -4 1787.72 79.5400   1
   2 -17   4 1887.17 83.9100   1
  -2 -17  -4 1511.51 72.9000   1
  -2 -17  -4 1974.01 74.7900   1
   2 -17  -4 1524.76 72.9800   1
  -2 -17  -4 1676.77 82.5800   1
   2 -17   4 1791.88 70.1900   1
  14   5   4 14.9200 27.3300   1
  14   5  -4 12.8700 30.6700   1
  14  -5   4 26.6700 29.7000   1
  14  -5  -4 9.01000 23.8500   1
 -14   5   4 20.8200 26.2500   1
  14  -5  -4 21.0800 31.2000   1
  15   5  -3 807.670 41.8300   1
  15   5   3 1024.14 55.2300   1
  15  -5  -3 759.570 45.1600   1
  15  -5  -3 618.180 37.6200   1
  15  -5   3 877.960 54.9200   1
   4   0   8 1843.62 82.5200   1
  -4   0  -8 1602.28 87.5500   1
   4   0  -8 1691.20 77.5500   1
  -4   0   8 2056.81 80.7100   1
  -3 -13  -6 15.1600 29.8000   1
   3 -13  -6 16.4100 33.9800   1
  -3 -13  -6 -4.7700 27.5900   1
   3 -13  -6 24.0400 28.3200   1
  -3 -13  -6 17.8600 23.6400   1
   3 -13   6 28.2500 27.2900   1
  -3 -13   6 -20.170 31.7800   1
  -3  13   6 27.4900 30.4800   1
   3  13   6 47.7800 27.9000   1
   3 -13  -6 45.8200 29.1800   1
  11 -13  -3 4829.79 165.620   1
  11 -13  -3 3638.17 120.240   1
  11 -13   3 4471.78 147.170   1
 -11 -13  -3 3963.44 131.670   1
 -11  13   3 4134.18 111.590   1
  11  13   3 3947.09 104.170   1
   4  -1   8 94.5100 34.8900   1
   4   1   8 134.930 36.4100   1
  -4  -1   8 121.830 29.1400   1
  -4   1   8 120.320 31.4000   1
   4  -1  -8 92.9100 30.9200   1
  -4  -1  -8 79.1500 27.6700   1
  -4   1  -8 76.7300 29.2800   1
  11  -4   6 1643.23 66.8600   1
  11  -4  -6 1857.23 70.4400   1
 -11  -4  -6 1944.50 64.5300   1
 -11   4  -6 1393.96 79.9300   1
 -11   4   6 2138.96 72.7300   1
 -11  -4   6 1993.32 66.5900   1
  11   4   6 2370.24 102.180   1
  13   8   4 1013.82 46.0600   1
  13   8  -4 1216.18 48.8100   1
  13  -8  -4 816.770 51.0600   1
 -13   8   4 867.660 36.3800   1
  13  -8  -4 908.480 50.3400   1
  13  -8   4 1061.56 55.7000   1
  -3 -18   3 341.300 32.7400   1
   3 -18  -3 375.380 33.7900   1
   3 -18   3 458.420 35.4400   1
   3 -18  -3 362.480 33.6100   1
  -3 -18  -3 241.010 31.9800   1
   3 -18   3 316.330 29.9300   1
  -3 -18   3 535.380 47.5000   1
   3 -18  -3 336.930 40.7100   1
  -3 -18  -3 286.370 37.1300   1
   3 -18   3 384.730 39.3400   1
   9 -15  -3 1770.65 85.8500   1
   9  15   3 1972.95 67.5200   1
   9 -15  -3 1542.24 77.9500   1
   9 -15  -3 2058.71 101.100   1
  -9 -15   3 2094.29 75.5100   1
  -9 -15  -3 1909.19 95.0900   1
  -9  15   3 1676.50 58.1000   1
   9 -15   3 1961.99 77.9100   1
   9  15  -3 1782.58 62.9600   1
   6 -14  -5 653.560 48.1900   1
   6 -14  -5 645.970 39.2400   1
  -6 -14  -5 510.250 47.8800   1
   6 -14  -5 521.500 41.3200   1
   6 -14   5 644.030 44.2500   1
  -6 -14  -5 566.870 51.8700   1
   6  14   5 504.970 49.3900   1
  -6  14   5 460.380 40.1700   1
   6  14   5 391.580 27.4900   1
   6  14  -5 624.940 37.2000   1
  -6 -14   5 804.170 49.6500   1
 -16  -6   0 39.4200 28.8100   1
  16   6   0 49.3000 32.7400   1
  16  -6   0 39.2700 32.9500   1
  16  -6   0 33.7000 38.7600   1
  -4 -19   1 149.910 28.1100   1
  -4 -19  -1 201.720 38.0400   1
   4 -19  -1 125.800 37.6100   1
   4 -19  -1 141.030 29.5200   1
   4 -19   1 165.170 30.3600   1
   4 -19  -1 119.880 25.4100   1
   4 -19   1 140.980 29.1800   1
   4 -19  -1 164.540 30.5200   1
  -4 -19  -1 193.350 35.7700   1
   4  19   1 210.420 28.7400   1
   4  19  -1 104.440 27.3500   1
  -4 -19   1 196.790 55.4300   1
   4 -19   1 185.620 42.0300   1
   0  -5  -8 -2.3600 27.6100   1
   0  -5  -8 35.6000 26.0900   1
   0  -5   8 -3.9400 31.9500   1
   0   5   8 -9.8200 29.5500   1
 -12 -10  -4 780.130 38.6900   1
 -12  10   4 973.130 46.8800   1
  12 -10  -4 565.870 43.1900   1
  12  10   4 769.610 41.9800   1
  12  10  -4 811.760 37.6300   1
  12 -10   4 742.170 46.8800   1
  12 -10  -4 595.420 44.1100   1
  -4  15   5 3.80000 26.2500   1
   4  15   5 25.3800 28.1000   1
   4 -15  -5 29.9200 29.1200   1
  -4 -15  -5 68.8600 28.8800   1
  -4 -15  -5 -22.700 29.1700   1
   4 -15  -5 11.1100 31.7500   1
   4 -15  -5 28.1600 26.8500   1
  -4 -15  -5 21.8400 31.3700   1
   4 -15   5 3.24000 26.3200   1
  -4 -15   5 39.1400 35.2200   1
 -12  -7  -5 4531.88 124.880   1
  12  -7   5 3672.13 115.880   1
  12   7   5 4295.39 132.910   1
  12  -7  -5 4797.22 153.780   1
 -12   7   5 5059.55 138.660   1
  -2 -19   2 1442.53 55.6100   1
  -2 -19   2 1805.04 75.8300   1
  -2 -19  -2 1853.62 70.7600   1
   2 -19  -2 1746.96 83.6000   1
  -2 -19  -2 1457.03 66.6800   1
   2 -19   2 1663.26 84.7000   1
   2 -19  -2 1510.61 69.7200   1
   2 -19   2 1726.72 80.2500   1
  -2 -19  -2 1490.84 70.1200   1
  -2 -19   2 1733.81 70.9500   1
   2 -19  -2 1267.02 71.8000   1
   2 -19   2 1637.06 69.8400   1
   2 -19  -2 1679.96 64.5900   1
 -11  -9  -5 740.860 38.4400   1
  11  -9  -5 590.840 39.6000   1
 -11  -9   5 745.350 37.9300   1
 -11   9   5 750.240 36.7300   1
  11  -9   5 655.010 44.7000   1
  11   9  -5 1072.50 52.6600   1
  11   9   5 585.860 36.6800   1
   6  17  -3 794.410 49.9200   1
  -6 -17   3 743.830 47.3900   1
  -6 -17  -3 511.470 38.3000   1
   6 -17  -3 660.550 52.8100   1
   6 -17  -3 655.700 40.0000   1
   6 -17  -3 461.250 39.5800   1
  -6 -17   3 771.100 53.5400   1
   6 -17   3 631.230 44.0600   1
   6  17   3 733.150 38.6800   1
   6 -17   3 464.010 37.5100   1
   6 -17  -3 501.930 42.1700   1
 -12 -13  -2 1947.68 68.1700   1
  12  13   2 2214.80 67.7400   1
  12 -13  -2 2792.25 107.290   1
  12 -13   2 2396.07 92.7100   1
 -12 -13  -2 2209.11 83.4200   1
 -12 -13   2 2231.94 83.0200   1
  -4  -2   8 381.290 36.0400   1
   4  -2  -8 318.680 36.0400   1
  -4   2   8 312.110 34.6800   1
  -4  -2  -8 213.410 30.3300   1
   4  -2   8 285.260 39.7400   1
   4   2   8 299.970 39.6400   1
  -4  -2  -8 246.590 33.4300   1
  -4   2  -8 269.850 34.5100   1
  -9   0  -7 -11.380 28.9400   1
  -9   0  -7 18.0700 28.4700   1
  -9   0   7 -7.7600 24.7800   1
   9   0   7 14.6800 24.8300   1
   9 -16  -2 144.520 30.8700   1
   9 -16  -2 191.970 28.5900   1
   9  16   2 277.790 30.0000   1
   9 -16   2 262.420 34.3900   1
   9  16  -2 190.880 24.1400   1
  -9 -16  -2 195.430 32.4700   1
  -9 -16   2 159.910 34.2800   1
  -1  -5  -8 662.760 56.0500   1
   1  -5  -8 524.710 45.9700   1
   1  -5   8 792.290 49.9600   1
  -1   5   8 784.370 45.3500   1
  -1  -5   8 924.500 50.8800   1
   1  -5  -8 647.010 46.6300   1
   1   5   8 949.440 56.4600   1
  -1  -5  -8 841.520 62.4300   1
  -1  -5  -8 642.170 42.3500   1
 -15  -9   0 219.030 36.7400   1
  15   9   0 165.410 28.1100   1
  15  -9   0 167.580 32.3000   1
 -13  -4   5 1229.14 47.9000   1
  13   4   5 1424.53 60.9800   1
 -13   4   5 1376.11 55.8700   1
  13  -4  -5 2108.77 99.6100   1
  13  -4   5 1598.96 86.4600   1
  13   4  -5 1519.56 62.0700   1
  14 -11   0 14.8700 29.6800   1
  14  11   0 -9.1200 27.4500   1
 -14 -11   0 33.7100 35.9900   1
  16   4  -2 272.200 30.4800   1
  16  -4   2 287.500 37.6100   1
  16   4   2 323.720 42.9300   1
  16  -4   2 229.200 35.7500   1
  16  -4  -2 206.120 33.1300   1
  -3 -10  -7 65.4200 28.3700   1
  -3 -10   7 39.9100 36.5600   1
   3 -10  -7 10.7400 25.2900   1
   3 -10  -7 23.3500 30.2200   1
   3 -10   7 22.9300 28.5000   1
  -3 -10   7 66.8100 27.6900   1
  -3  10   7 78.8700 33.4600   1
   3  10   7 38.3200 28.9700   1
   3 -10   7 60.5600 32.3000   1
   3 -10  -7 38.2600 27.0000   1
  -3 -10  -7 65.2500 31.5600   1
  -3 -10  -7 22.2100 28.3200   1
   9  -1   7 2750.91 108.510   1
  -9   1   7 3194.16 92.8600   1
  -9  -1   7 3378.96 95.6500   1
  -9   1  -7 2365.10 102.530   1
  -9  -1  -7 2754.34 115.160   1
  -9  -1  -7 2881.26 95.6900   1
   9  -1  -7 2953.58 102.320   1
 -10  -7   6 5887.42 148.860   1
 -10  -7  -6 5178.06 180.790   1
  10  -7  -6 5964.41 188.610   1
 -10  -7  -6 6406.83 164.090   1
  10  -7   6 6000.15 180.970   1
   7 -18   0 322.920 37.7700   1
   7 -18   0 383.850 35.4000   1
  -7 -18   0 442.010 45.7400   1
  -7 -18   0 373.280 35.4600   1
   7  18   0 488.310 36.3000   1
   7 -18   0 269.520 28.4200   1
 -11 -15   0 803.070 44.9000   1
  11 -15   0 576.980 45.4200   1
  11  15   0 1142.93 48.0500   1
  11 -15   0 893.710 49.5400   1
   8  -5  -7 1076.29 55.8700   1
  -8  -5  -7 934.750 45.9800   1
  -8   5  -7 703.060 48.4600   1
  -8  -5  -7 739.250 51.1100   1
  -8  -5  -7 1099.69 73.1800   1
  -8   5   7 931.370 43.3300   1
  -8  -5   7 1230.94 47.9600   1
   8  -5   7 845.520 45.5700   1
   6   8   7 40.2600 31.3600   1
  -6   8   7 35.2500 26.7500   1
  -6  -8   7 22.9100 23.8700   1
  -6  -8  -7 35.9100 26.0800   1
   6  -8  -7 33.9500 32.8500   1
   6  -8   7 28.6900 26.6400   1
  -6  -8   7 46.5400 30.1600   1
  -6  -8  -7 -4.2400 30.1400   1
  -6  -8  -7 -29.560 28.6900   1
  -3   4   8 472.100 41.3300   1
  -3  -4   8 485.610 37.3000   1
   3   4   8 774.290 52.6500   1
  -3  -4  -8 518.830 43.2800   1
  -3  -4  -8 379.150 44.4500   1
   3  -4   8 739.540 61.8600   1
   3  -4  -8 592.470 52.8500   1
  -3  -4  -8 442.500 36.4300   1
  14 -10   2 1242.89 66.0600   1
  14  10   2 1141.01 46.5400   1
 -14 -10  -2 1194.58 61.2600   1
  14 -10  -2 1222.11 66.9100   1
  14 -10  -2 1092.66 53.8900   1
  14  10  -2 1457.55 57.0300   1
   3 -17  -4 2249.07 89.7400   1
   3 -17   4 1970.11 72.9900   1
  -3 -17   4 2600.06 90.0300   1
  -3 -17  -4 2397.26 112.210   1
   3 -17   4 2564.46 92.3700   1
   3 -17  -4 1682.28 76.5300   1
  -3 -17  -4 2108.54 97.7300   1
   3 -17  -4 2318.64 77.5400   1
   3 -17  -4 2647.35 109.830   1
  -8 -10  -6 668.570 51.4900   1
  -8 -10  -6 729.520 55.8600   1
  -8  10   6 986.420 44.0000   1
   8  10  -6 914.450 42.9000   1
   8 -10  -6 940.460 55.6100   1
  -8 -10   6 807.780 38.0600   1
  -8 -10  -6 827.370 64.1900   1
   8 -10   6 872.550 52.1700   1
   7  11  -6 4806.73 135.890   1
   7 -11  -6 3810.02 114.240   1
  -7 -11  -6 3497.02 107.330   1
  -7 -11  -6 3668.32 127.710   1
  -7 -11  -6 3996.23 140.580   1
   7 -11  -6 3511.92 127.190   1
   7  11   6 3630.10 151.620   1
   7 -11   6 4605.19 135.650   1
  12  12   3 1061.27 49.3600   1
 -12  12   3 873.400 44.2600   1
  12 -12  -3 909.640 56.1700   1
  12 -12   3 882.700 49.1600   1
  12 -12  -3 780.750 53.9500   1
  12  12  -3 953.530 40.9400   1
 -12 -12  -3 918.310 62.8100   1
 -12 -12  -3 778.630 37.5400   1
  10 -16   0 37.0200 28.0600   1
  10  16   0 63.7000 27.7500   1
  10 -16   0 36.5000 25.0100   1
  16  -6  -1 762.380 45.4900   1
  16  -6   1 543.300 43.3500   1
  16   6   1 681.770 32.8400   1
  16   6  -1 666.500 38.3700   1
 -16  -6  -1 449.390 35.0700   1
  16  -6  -1 634.220 42.3000   1
  16  -6   1 652.410 42.4400   1
   5  -9   7 933.850 47.6900   1
  -5  -9   7 977.280 56.2200   1
  -5  -9   7 708.710 33.1600   1
   5  -9  -7 614.540 42.7400   1
   5  -9   7 570.470 46.1400   1
   5   9   7 768.190 64.0900   1
  -5  -9  -7 625.750 53.5000   1
   5  -9  -7 750.430 44.3400   1
  -5  -9  -7 615.930 43.3800   1
  -5  -9  -7 505.240 40.0400   1
  -5   9   7 686.150 34.1200   1
   9  -2  -7 164.740 30.3300   1
  -9   2   7 226.170 28.0100   1
  -9  -2  -7 69.6900 24.3900   1
  -9  -2   7 199.800 27.2600   1
  -9   2  -7 133.310 31.0700   1
  -9  -2  -7 190.670 33.9100   1
  -9  -2  -7 152.010 27.1400   1
   9  -2   7 121.490 26.3100   1
  12  14   0 3299.07 91.4500   1
  12 -14   0 2969.81 103.210   1
  12 -14   0 2224.48 99.0100   1
 -12 -14   0 2977.67 100.950   1
  -2  -5  -8 2219.70 101.020   1
  -2  -5  -8 2376.44 122.100   1
   2  -5  -8 2155.14 88.4400   1
  -2  -5  -8 1811.79 105.820   1
   2  -5   8 2528.74 99.0000   1
  -2  -5   8 2629.82 113.110   1
   2   5   8 2359.58 96.9400   1
  -2   5   8 2135.65 86.6300   1
   4   3   8 2355.99 110.380   1
  -4  -3   8 2985.55 103.120   1
   4  -3   8 3008.55 121.350   1
  -4  -3  -8 2080.85 99.3100   1
   4  -3  -8 2021.10 81.8400   1
  -4   3   8 2713.81 92.8500   1
  -4  -3  -8 1746.02 95.6900   1
  -7  -7  -7 46.8000 29.3800   1
  -7  -7   7 116.490 36.0200   1
   7  -7   7 80.4300 27.2400   1
  -7  -7  -7 60.4100 35.6700   1
  -7  -7   7 43.9100 25.7400   1
  -7   7   7 44.5400 26.1300   1
   7  -7  -7 32.7100 40.4300   1
   8 -16  -3 1932.46 70.3100   1
  -8 -16   3 1914.20 66.0500   1
   8 -16  -3 1481.28 83.6600   1
   8  16   3 2268.23 77.3700   1
   8 -16   3 1862.04 77.0100   1
   8 -16  -3 1625.58 78.6200   1
  -8 -16  -3 1885.66 77.6800   1
   8 -16  -3 1449.73 70.6100   1
  -5 -19   0 666.420 41.4800   1
   5 -19   0 751.640 41.1900   1
   5 -19   0 717.970 42.2500   1
  -5 -19   0 846.260 49.4600   1
   5  19   0 952.200 48.4600   1
  -5 -19   0 616.810 41.2300   1
   5 -19   0 746.830 51.8500   1
  -4 -13  -6 1119.05 70.2600   1
  -4 -13  -6 927.330 63.0200   1
   4  13   6 1061.46 66.9500   1
  -4  13   6 1180.57 58.7300   1
   4 -13   6 1297.48 55.6600   1
   4 -13  -6 816.570 59.3500   1
   4 -13  -6 934.610 59.4700   1
   4 -13  -6 1241.82 71.6900   1
  -4 -13  -6 1092.78 57.6300   1
 -11  -5  -6 82.6900 28.2600   1
  11   5   6 41.6900 27.5200   1
 -11   5  -6 49.8600 26.9700   1
 -11  -5  -6 55.6600 28.3000   1
  11  -5   6 79.6900 29.4100   1
 -11   5   6 91.9800 27.1000   1
  11  -5  -6 74.6600 31.2000   1
 -11  -5   6 69.6100 24.1500   1
 -15  -9  -1 444.240 35.1800   1
  15  -9  -1 284.610 35.0700   1
  15   9   1 472.220 31.4500   1
  15   9  -1 536.350 36.8100   1
  15  -9   1 553.810 44.4300   1
  15  -9  -1 451.340 40.4500   1
   3 -19  -2 223.790 32.6700   1
   3 -19  -2 295.040 32.8800   1
  -3 -19   2 277.190 32.1200   1
   3 -19  -2 270.270 35.3200   1
  -3 -19  -2 205.080 31.1800   1
   3 -19   2 267.680 32.8000   1
  -3 -19   2 287.730 33.6200   1
   3 -19   2 292.630 30.3100   1
   3 -19  -2 275.390 33.1900   1
   3 -19   2 341.050 37.0600   1
  -3 -19  -2 268.000 32.7200   1
  -3 -19   2 476.690 47.9200   1
  15  -8  -2 739.760 46.3800   1
  15  -8   2 1067.06 59.1100   1
  15  -8  -2 1161.45 66.5900   1
 -15  -8  -2 886.600 49.3600   1
  15  -8  -2 1185.76 72.3200   1
  15   8   2 907.400 40.2500   1
  15   8  -2 1141.50 48.0000   1
  14 -11  -1 4099.90 135.560   1
  14 -11   1 3975.17 124.430   1
  14  11  -1 4241.87 116.390   1
  14  11   1 4473.31 119.300   1
 -14 -11  -1 3672.04 116.900   1
 -14 -11  -1 3549.50 104.220   1
 -14 -11   1 4010.11 129.300   1
   6 -18  -2 4799.10 150.530   1
   6  18   2 5545.43 148.860   1
   6 -18  -2 5641.47 148.120   1
   6 -18  -2 4703.75 162.850   1
   6 -18   2 5102.28 172.110   1
  -6 -18  -2 6341.07 190.400   1
  -6 -18  -2 5221.90 176.430   1
  -6 -18   2 5604.26 150.080   1
  -6 -18   2 6695.78 205.900   1
   6 -18   2 6361.97 185.560   1
   6  18  -2 5832.77 159.520   1
  -6 -16  -4 3480.83 131.990   1
   6 -16  -4 3210.40 124.540   1
   6  16  -4 3624.21 108.430   1
   6  16   4 3024.88 93.2100   1
  -6 -16   4 3285.82 102.740   1
   6 -16  -4 2825.25 111.100   1
   6 -16  -4 3684.88 110.620   1
   6 -16   4 2953.86 108.390   1
  14  -6   4 568.160 38.9400   1
  14  -6  -4 506.910 35.0700   1
 -14   6   4 470.080 32.9200   1
  14  -6  -4 597.760 42.9600   1
  14   6   4 541.900 35.0900   1
  14   6  -4 666.930 36.3500   1
  15   6   3 2649.88 87.0700   1
  15  -6  -3 2796.04 104.820   1
  15  -6  -3 3706.40 138.290   1
  15   6  -3 3222.10 94.8700   1
  15  -6   3 3002.17 106.090   1
   9  -9   6 199.920 28.6900   1
   9   9  -6 280.320 30.4200   1
  -9  -9   6 225.490 25.3100   1
  -9   9   6 246.200 33.1000   1
  -9  -9  -6 151.420 29.6800   1
   9  -9  -6 205.210 34.6100   1
   7  18   1 2020.36 71.3100   1
   7 -18  -1 1527.52 70.0100   1
   7  18  -1 2015.12 71.6900   1
  -7 -18   1 1906.33 72.8400   1
  -7 -18  -1 1382.21 57.7400   1
  -7 -18  -1 1614.30 85.3500   1
   7 -18  -1 1578.35 83.7900   1
   7 -18  -1 1629.42 67.4100   1
  -7 -18   1 2035.29 98.4400   1
  -7 -18  -1 1598.81 69.1000   1
   7 -18   1 1524.59 64.8100   1
   7 -18   1 1329.68 71.6600   1
  11 -15  -1 6354.25 178.390   1
  11 -15   1 6433.91 180.290   1
  11  15  -1 7183.71 107.390   1
  11 -15  -1 7058.41 230.030   1
 -11 -15  -1 7750.64 125.120   1
 -11 -15   1 6593.22 180.230   1
   4 -18  -3 3197.97 114.480   1
  -4 -18  -3 3966.65 151.330   1
  -4 -18   3 4174.53 127.410   1
   4 -18  -3 2869.37 106.440   1
  -4 -18   3 4124.71 129.790   1
   4 -18   3 3578.92 113.450   1
   4  18   3 3566.91 104.520   1
   4 -18   3 3452.05 131.430   1
   4 -18  -3 3712.26 106.340   1
  17   0   0 11.4600 23.9200   1
  10 -13   4 2099.89 94.8200   1
 -10 -13  -4 1294.25 66.9800   1
  10 -13  -4 1304.43 65.3300   1
  10  13  -4 1741.94 62.5400   1
  10 -13  -4 1681.35 77.2200   1
 -10  13   4 1989.40 66.4600   1
  10  13   4 1881.29 65.5300   1
   9 -12  -5 554.250 40.4700   1
  -9 -12  -5 529.180 51.1400   1
   9  12   5 931.480 53.5500   1
   9 -12   5 543.950 41.4200   1
   9  12  -5 842.310 41.1900   1
  -9  12   5 699.850 34.4200   1
   0 -16  -5 -11.860 36.0400   1
   0 -16  -5 -0.6000 31.3600   1
   0 -16  -5 8.47000 25.4900   1
   0 -16  -5 4.14000 28.0300   1
   0  16   5 -14.780 29.9200   1
   0 -16   5 -4.0800 35.5200   1
   0 -16   5 -15.490 25.8800   1
  -6 -12  -6 5895.04 190.070   1
   6 -12  -6 6039.27 173.920   1
   6 -12  -6 7028.54 184.930   1
  -6 -12  -6 5686.43 170.900   1
   6 -12  -6 5675.90 177.780   1
  -6  12   6 6448.32 170.260   1
   6 -12   6 7093.99 188.490   1
   6  12   6 6996.42 236.490   1
  -5   0   8 -13.990 27.6800   1
   5   0   8 3.17000 37.6600   1
  -5   0  -8 -3.7200 23.8000   1
   5   0  -8 -2.6300 26.0900   1
  -9 -14  -4 1191.85 68.4600   1
   9  14   4 1263.74 48.0100   1
   9 -14  -4 1126.08 68.3400   1
   9 -14   4 1452.71 63.8100   1
   9  14  -4 1328.42 48.8300   1
  -9  14   4 1268.12 50.6900   1
  17  -1   0 331.210 37.6200   1
  17   1   0 247.420 34.5000   1
  -9  -3  -7 2565.09 78.9200   1
   9  -3  -7 2483.10 96.7300   1
  -9  -3  -7 2192.35 98.1500   1
  -9  -3   7 2586.62 81.2700   1
  -9  -3  -7 1761.87 91.1800   1
   9  -3   7 1941.98 79.4800   1
  -9   3   7 2470.67 77.3500   1
  -8 -13  -5 333.650 40.5200   1
   8 -13  -5 387.820 30.8500   1
   8 -13  -5 319.830 34.9500   1
  -8  13   5 619.310 40.2100   1
   8  13  -5 559.300 35.8000   1
   8  13   5 417.860 34.9900   1
   8 -13   5 455.740 33.1000   1
   8 -13  -5 379.080 45.0800   1
 -13 -12  -2 1164.68 57.8300   1
  13 -12  -2 945.630 62.2200   1
  13 -12  -2 1374.24 66.0000   1
  13  12   2 1589.68 62.6400   1
  13 -12   2 1256.84 64.4900   1
  -5  -1  -8 1647.31 81.9200   1
  -5  -1   8 2630.50 89.0500   1
  -5   1   8 2521.83 82.8800   1
   5   1   8 2878.02 123.230   1
   5  -1   8 2599.00 119.630   1
  -5   1  -8 1996.60 94.0000   1
  -5  -1  -8 1838.41 82.8100   1
   5  -1  -8 2108.37 86.5400   1
  10  16  -1 3713.21 109.440   1
  10 -16   1 3433.15 120.350   1
  10 -16  -1 3508.49 117.170   1
 -10 -16  -1 3111.48 96.2400   1
 -10 -16   1 3449.75 106.230   1
  10 -16   1 2925.66 124.840   1
  10  16   1 3901.00 111.380   1
   1 -16  -5 20.4900 26.2500   1
  -1 -16  -5 35.0300 33.5800   1
   1 -16   5 36.5000 26.9800   1
  -1 -16   5 51.3800 32.0200   1
  -1  16   5 35.2300 26.5500   1
   1  16   5 33.1700 27.6100   1
   1 -16  -5 20.8800 31.2800   1
  -1 -16  -5 45.1200 30.1900   1
   1 -16   5 -17.260 31.9800   1
  -1 -16  -5 63.6700 26.9100   1
   1 -16  -5 66.1700 29.1100   1
  -1 -16  -5 25.4100 28.8500   1
   1 -16  -5 20.1500 28.1500   1
  -1 -16   5 49.6500 30.0300   1
 -13  -5   5 105.780 23.5400   1
  13   5   5 95.7000 30.7700   1
  13   5  -5 152.750 32.7800   1
  13  -5   5 68.8000 30.6600   1
 -13   5   5 102.660 28.3100   1
  13  -5  -5 59.2000 29.2400   1
   0 -11  -7 3571.47 137.070   1
   0 -11  -7 2503.19 110.590   1
   0 -11  -7 3202.06 133.940   1
  12 -14  -1 2774.96 98.4500   1
  12 -14   1 2838.95 107.380   1
  12  14  -1 4005.36 121.310   1
 -12 -14   1 3288.42 104.610   1
 -12 -14  -1 3017.86 102.670   1
  -8 -17  -2 175.530 36.7000   1
   8 -17   2 196.420 29.6700   1
   8 -17  -2 118.710 30.7900   1
   8  17  -2 190.760 29.4900   1
   8 -17   2 161.480 28.7500   1
  -8 -17  -2 144.550 35.1500   1
  -8 -17   2 191.790 36.0100   1
  -8 -17   2 222.280 43.1500   1
   8 -17  -2 168.960 30.6900   1
   8 -17  -2 203.470 32.6900   1
   8  17   2 156.860 25.8300   1
  16   5   2 1711.39 65.4100   1
  16   5  -2 2017.72 71.5400   1
  16  -5   2 1931.23 87.3500   1
  16  -5   2 1896.15 101.050   1
  16  -5  -2 1439.13 74.0800   1
   0  -6  -8 299.230 36.0600   1
   0  -6   8 387.500 41.5900   1
   0  -6   8 356.040 34.3600   1
   0  -6  -8 296.180 39.0100   1
   0   6   8 329.190 32.3600   1
   0  -6  -8 309.460 31.5700   1
   0 -20   0 4594.18 158.830   1
   0 -20   0 4622.01 130.650   1
   0 -20   0 4823.69 144.340   1
 -15   0   4 3.31000 28.0200   1
  15   0   4 11.0200 29.6100   1
  15   0  -4 -7.0300 32.5700   1
  15   0   4 37.6800 28.1400   1
  -9 -17   0 1037.31 45.3400   1
   9  17   0 1094.13 44.0200   1
   9 -17   0 1067.18 54.0000   1
   9 -17   0 817.250 57.5000   1
  -4 -10   7 1922.06 78.3900   1
   4  10   7 2402.00 122.190   1
  -4 -10   7 1973.11 73.6100   1
   4 -10   7 1741.85 67.7600   1
   4 -10  -7 1435.24 81.7200   1
   4 -10  -7 1434.46 79.0600   1
  -4 -10  -7 2159.54 122.630   1
  -4 -10  -7 1442.90 81.3400   1
  -4 -10  -7 1918.07 94.6100   1
  -4  10   7 2090.55 78.0400   1
   4 -10  -7 1887.19 70.9500   1
   4 -10   7 1723.94 99.4700   1
  10 -11   5 238.090 32.3900   1
 -10 -11  -5 168.080 32.7100   1
  10 -11  -5 175.110 33.0800   1
 -10  11   5 156.700 25.7400   1
  10  11  -5 174.880 23.1200   1
  10  11   5 223.270 29.7300   1
   0 -14   6 5179.10 151.280   1
   0  14   6 4053.06 152.850   1
   0 -14  -6 4329.77 155.130   1
   0 -14  -6 4010.02 160.410   1
   0 -14  -6 4416.48 129.860   1
  -1 -11  -7 150.970 35.2500   1
   1 -11  -7 143.650 32.7600   1
  -1 -11  -7 209.910 34.9000   1
   1 -11  -7 257.340 34.8100   1
  -1 -11  -7 211.890 31.4600   1
   1 -11  -7 226.050 29.7100   1
   1 -11   7 162.270 27.6200   1
  -1 -11  -7 157.750 32.4500   1
   1 -11  -7 159.440 33.0200   1
   1  11   7 215.270 36.2900   1
  -1  11   7 185.100 35.8100   1
  -1 -11   7 253.160 40.4900   1
   1 -11   7 252.450 36.4500   1
  16  -7   0 1914.66 85.8500   1
  16   7   0 1887.31 64.5400   1
  16  -7   0 1538.04 75.4900   1
 -16  -7   0 1958.47 79.5800   1
   5  19  -1 1324.77 58.3500   1
  -5 -19   1 1385.92 60.9400   1
  -5 -19  -1 1318.60 61.2100   1
   5 -19   1 1350.54 60.1100   1
   5 -19  -1 1173.93 62.5500   1
   5 -19  -1 1129.27 67.3100   1
   5 -19   1 1340.50 74.3300   1
   5 -19  -1 1302.58 58.5000   1
  -5 -19  -1 1245.33 64.1800   1
  -5 -19   1 1467.33 59.5900   1
   5 -19   1 1136.92 49.7900   1
   5  19   1 1277.49 52.2400   1
   1   6   8 832.860 54.6600   1
  -1  -6  -8 605.540 44.0000   1
  -1  -6   8 884.730 53.3600   1
   1  -6  -8 612.690 44.8600   1
  -1  -6  -8 658.200 54.8700   1
  -1   6   8 935.910 54.0900   1
  -1  -6   8 1023.65 56.3800   1
   1  -6  -8 752.030 57.3500   1
   1  -6   8 906.350 56.6300   1
   1  -6   8 781.380 51.2700   1
  -1  -6  -8 703.300 49.0800   1
  -3   5   8 11.5800 29.6300   1
   3   5   8 57.2000 31.2300   1
   3  -5   8 53.6400 40.8600   1
  -3  -5  -8 19.3400 25.7200   1
   3  -5  -8 71.5900 29.1600   1
  -3  -5  -8 51.8500 32.0100   1
  -3  -5  -8 49.8600 28.8000   1
  -3  -5   8 17.3600 26.8500   1
 -11 -12  -4 1443.29 65.9600   1
  11 -12  -4 1677.41 83.3500   1
 -11 -12  -4 2011.94 77.8800   1
 -11  12   4 1548.14 54.2700   1
  11  12   4 1594.15 60.0500   1
  11  12  -4 2040.36 66.3300   1
  11 -12   4 1815.30 84.5000   1
  11 -12  -4 1550.89 72.1900   1
  15   1  -4 3261.59 99.5700   1
  15  -1   4 3535.72 126.320   1
  15   1   4 3282.07 109.940   1
 -15   1   4 4006.76 116.510   1
  15  -1   4 3627.70 113.100   1
  15  -1  -4 3214.60 103.800   1
   1 -20   0 91.1400 27.3800   1
   1 -20   0 57.3200 30.4500   1
  -1 -20   0 49.3900 30.7400   1
   1 -20   0 68.4600 33.8500   1
  -1 -20   0 82.8900 34.2800   1
  -1 -20   0 82.7000 28.1400   1
  13 -13   0 1471.54 61.8900   1
  13  13   0 1703.82 56.4200   1
 -13 -13   0 2120.23 75.8600   1
  17   2   0 675.950 40.7100   1
  17  -2   0 569.770 41.5600   1
   5 -15  -5 2458.20 102.360   1
  -5 -15  -5 2354.78 96.2300   1
  -5  15   5 2335.21 84.3000   1
   5 -15  -5 2171.90 106.930   1
   5 -15  -5 2781.01 93.7200   1
  -5 -15  -5 2346.73 102.490   1
  -5 -15   5 3134.78 112.920   1
   5  15   5 2466.93 126.010   1
   5 -15   5 2654.46 94.7300   1
  14  -9  -3 6193.51 178.390   1
  14  -9   3 4379.30 133.200   1
  14  -9  -3 5521.41 196.230   1
  14   9   3 5610.18 154.080   1
  -4  -4  -8 226.640 33.5000   1
  -4  -4  -8 148.710 28.9800   1
   4  -4   8 200.660 35.5900   1
   4   4   8 282.690 39.9900   1
  -4  -4   8 221.000 31.6300   1
  -4   4   8 244.610 35.3700   1
   4  -4  -8 208.200 30.1400   1
  -4  17   4 869.450 53.9200   1
   4 -17  -4 1169.09 50.4100   1
   4  17   4 956.280 40.9700   1
  -4 -17   4 1184.35 58.1400   1
   4 -17   4 1016.50 52.7900   1
   4 -17  -4 1072.90 63.1800   1
  -4 -17  -4 1216.25 77.1800   1
   4 -17   4 1012.65 58.3800   1
   4 -17  -4 826.620 56.3600   1
  -4 -17   4 1234.52 54.9700   1
  -4 -17  -4 839.260 47.1300   1
  -1 -14   6 43.8200 31.0800   1
   1 -14   6 31.4400 28.7500   1
  -1  14   6 35.4900 29.7000   1
   1  14   6 32.3200 29.7000   1
   1 -14  -6 37.7800 33.7000   1
  -1 -14  -6 64.8000 29.7300   1
   1 -14  -6 49.1500 27.7900   1
   1 -14  -6 63.5400 35.8900   1
  -1 -14  -6 49.0700 29.8800   1
   1 -14  -6 15.8600 29.9200   1
  -1 -14  -6 10.2700 28.4500   1
  -1 -14  -6 44.6500 27.8800   1
   1 -14   6 27.8900 24.2000   1
  -5   2   8 87.2700 29.1500   1
   5  -2   8 145.690 38.7700   1
   5  -2  -8 149.320 37.6400   1
  -5  -2  -8 69.3600 27.5200   1
  -5   2  -8 85.8900 28.9700   1
  -5  -2  -8 83.9700 30.0200   1
   5   2   8 77.5500 39.4000   1
  -5   2  -8 107.790 33.2300   1
  -5  -2   8 114.810 31.4000   1
  -8  -6  -7 145.090 33.4400   1
  -8  -6  -7 130.020 35.1400   1
  -8  -6  -7 89.5700 25.8800   1
  -8   6   7 116.970 29.1700   1
  -8  -6   7 130.340 25.2300   1
   8  -6   7 89.6600 28.5900   1
  -8   6  -7 64.4000 25.3000   1
   8  -6  -7 153.570 39.4800   1
  12   0   6 2357.00 107.450   1
 -12   0   6 2518.10 74.8300   1
  12   0   6 2398.51 101.440   1
  17   0  -1 13.4100 31.0900   1
  17   0   1 1.39000 27.9300   1
  16   0  -3 2828.09 91.4700   1
  16   0   3 2901.83 100.060   1
   2 -16   5 2213.19 80.8100   1
  -2 -16  -5 2273.90 82.6100   1
   2 -16  -5 2066.50 76.2100   1
  -2 -16   5 1825.62 66.2500   1
  -2 -16  -5 1729.49 82.2200   1
   2 -16  -5 1982.77 104.940   1
  -2  16   5 1582.58 74.3400   1
   2  16   5 1839.09 107.500   1
   2 -16  -5 1415.12 71.0900   1
  -2 -16  -5 1644.82 85.5200   1
   2 -16  -5 1475.98 72.7600   1
   2 -16   5 1779.99 65.1500   1
 -12   1   6 157.240 25.3000   1
 -12   1  -6 71.3400 23.9100   1
  12  -1   6 126.960 27.5300   1
  12  -1   6 123.670 26.9200   1
  12   1   6 124.580 26.3800   1
  12   1   6 150.910 40.9000   1
 -12  -1   6 150.060 25.2700   1
   8  15   4 44.0600 32.9200   1
   8  15   4 -20.040 33.5000   1
  -8  15   4 -10.910 25.5400   1
   8 -15   4 -0.8400 26.7100   1
   8  15  -4 19.3700 26.0400   1
  -8 -15   4 -68.930 45.0600   1
  -8 -15  -4 -17.420 33.2000   1
   8 -15  -4 -17.600 38.0800   1
   8 -15  -4 35.5800 28.1900   1
   8 -15  -4 -8.0900 26.4400   1
  17  -1   1 3959.33 126.570   1
  17   1   1 2994.91 94.3300   1
  17  -1  -1 2979.00 95.5600   1
 -12  -8   5 403.070 28.2300   1
  12   8  -5 485.980 32.7400   1
  12  -8   5 409.320 36.9600   1
  12   8   5 302.040 28.2200   1
 -12  -8  -5 404.980 32.7300   1
  12  -8  -5 394.210 38.3900   1
  16   1  -3 37.4600 27.3700   1
  16  -1  -3 66.6700 27.9800   1
  16   1   3 80.8800 29.7600   1
  16  -1   3 37.2700 31.7300   1
  16  -1   3 63.3800 31.3900   1
  13  -9   4 382.070 37.8500   1
  13  -9  -4 389.420 32.8200   1
 -13  -9  -4 507.190 34.5700   1
 -13   9   4 496.460 31.4200   1
  13  -9  -4 335.780 32.1500   1
  13   9   4 368.360 30.1400   1
 -15   2   4 1596.63 58.2900   1
  15  -2   4 1821.38 81.9700   1
  15  -2  -4 1370.10 62.6100   1
  15   2   4 1687.84 75.6400   1
  15  -2   4 1561.55 76.0200   1
 -13 -11  -3 16.0500 22.9700   1
  13 -11  -3 68.9200 32.2200   1
  13 -11  -3 4.93000 24.6300   1
 -13 -11  -3 20.9500 19.5600   1
 -13  11   3 42.0900 26.0200   1
  13  11   3 73.0700 21.3500   1
  13  11  -3 64.1400 18.0200   1
  13 -11   3 31.9900 20.5200   1
  -2  11   7 4264.68 123.940   1
  -2 -11  -7 3329.82 113.300   1
   2 -11  -7 4135.04 147.360   1
  -2 -11  -7 4484.80 104.550   1
   2 -11  -7 4515.10 106.170   1
  -2 -11  -7 3440.95 102.010   1
  -2 -11  -7 3204.47 121.360   1
   2 -11   7 4513.71 113.770   1
   2  11   7 4341.15 134.650   1
   2 -11   7 4070.89 125.670   1
   2  -6   8 182.620 22.3800   1
  -2  -6   8 237.640 30.6800   1
  -2  -6  -8 119.260 23.7700   1
  -2   6   8 188.170 28.9800   1
   2  -6   8 149.770 25.5500   1
  -2  -6   8 182.480 26.3600   1
   2  -6  -8 161.250 32.9000   1
  -2  -6  -8 155.900 24.4700   1
  -2  -6  -8 126.590 21.2000   1
   2   6   8 196.600 27.6600   1
   7  14  -5 393.040 26.2600   1
  -7 -14  -5 283.690 30.9000   1
   7 -14  -5 298.770 28.7500   1
   7 -14  -5 268.580 24.8500   1
   7 -14  -5 271.730 27.4800   1
   7  14   5 276.780 45.4500   1
   7  14   5 346.030 29.1600   1
  -7  14   5 407.650 33.6700   1
  -7 -14   5 593.090 50.5400   1
   7 -14   5 343.350 33.6700   1
  -2 -20   0 1140.81 70.7100   1
   2 -20   0 1207.16 50.7500   1
  -2 -20   0 1429.82 65.0400   1
   2 -20   0 1236.49 61.0100   1
  -2 -20   0 1209.13 53.5900   1
   2 -20   0 1250.67 52.3400   1
   0 -20  -1 27.4800 26.7600   1
   0 -20  -1 -3.9900 29.0700   1
   0 -20   1 26.3100 29.6700   1
   0 -20  -1 16.3600 23.9200   1
   0 -20   1 -6.0200 20.3700   1
   0 -20   1 -28.380 22.5200   1
   4 -19   2 2071.92 80.8800   1
   4 -19   2 2268.01 79.3000   1
   4 -19  -2 1868.06 68.8000   1
  -4 -19   2 2637.08 83.5400   1
  -4 -19  -2 1968.31 72.7300   1
  -4 -19  -2 2112.49 73.3100   1
   4 -19  -2 2263.06 93.5400   1
   4 -19  -2 1828.55 73.2400   1
   4  19   2 2215.24 68.7400   1
  -4 -19   2 2591.41 82.2500   1
   4 -19  -2 2550.65 78.1900   1
  -4 -19   2 2679.73 77.7400   1
   4 -19   2 2512.18 81.1500   1
   9  -4  -7 264.900 29.7300   1
  -9   4  -7 137.270 21.7900   1
   9  -4   7 239.130 24.8400   1
  -9  -4   7 333.490 26.2700   1
  -9   4   7 263.460 26.1300   1
  -9  -4  -7 255.300 31.4300   1
  -9  -4  -7 244.430 31.1200   1
  -9  -4  -7 350.460 30.9000   1
   9 -17  -1 2004.89 71.4800   1
   9 -17   1 2145.93 75.7100   1
   9  17  -1 2197.91 57.9600   1
   9 -17  -1 1904.64 78.5800   1
   9 -17   1 1746.42 71.6400   1
  -9 -17   1 2178.54 71.1600   1
  -9 -17  -1 2264.50 77.1700   1
  -2 -14  -6 847.250 53.1000   1
   2 -14  -6 966.870 57.8900   1
  -2 -14  -6 1234.21 51.8200   1
   2 -14  -6 1013.70 43.9200   1
  -2 -14  -6 856.760 49.5400   1
  -2 -14  -6 782.590 48.4200   1
   2 -14  -6 809.430 53.4900   1
   2 -14  -6 767.800 45.9700   1
   2  14   6 954.860 61.1900   1
  -2  14   6 1069.41 65.4700   1
  -2 -14   6 996.920 50.8400   1
   2 -14   6 1162.65 60.0600   1
  10  -8  -6 289.870 36.5300   1
 -10  -8  -6 235.330 26.3700   1
 -10  -8  -6 176.380 22.6400   1
 -10   8   6 347.450 30.5800   1
  10  -8   6 239.180 26.3200   1
  10   8  -6 297.280 22.9800   1
  10   8   6 199.490 22.6000   1
 -10  -8   6 309.450 24.7300   1
  17   3   0 62.8300 23.6900   1
  17  -3   0 35.4400 24.2000   1
  12  -2   6 1478.93 66.4800   1
 -12  -2   6 1439.64 44.7400   1
 -12   2   6 1474.56 46.1200   1
 -12   2  -6 1234.26 65.9200   1
  12  -2  -6 1826.33 76.2300   1
  12  -2   6 1316.26 55.8200   1
  12   2   6 1583.72 72.7700   1
 -16  -7  -1 513.510 34.7800   1
  16   7   1 720.530 44.0400   1
  16   7  -1 808.510 40.5600   1
  16  -7  -1 605.040 36.0500   1
  16  -7   1 852.050 48.1600   1
  16  -7  -1 569.200 39.5000   1
 -11  -6  -6 4686.33 94.7900   1
  11   6  -6 4370.89 104.200   1
   1 -20  -1 2939.30 108.200   1
   1 -20  -1 2790.36 94.4100   1
   1 -20   1 3065.24 102.890   1
  -1 -20  -1 2847.15 99.8600   1
   1 -20   1 2525.92 83.7000   1
  -1 -20   1 2717.52 91.1000   1
  -1 -20  -1 2882.23 99.9000   1
  -1 -20   1 3284.76 94.4100   1
   1 -20   1 2621.56 69.7900   1
  -1 -20   1 2798.92 75.7900   1
  -1 -20  -1 2948.38 80.8700   1
 -13 -13  -1 729.700 34.1900   1
  13 -13  -1 788.270 45.0300   1
  13 -13  -1 492.170 35.7400   1
  13 -13   1 624.950 42.2800   1
 -13 -13  -1 887.400 48.1000   1
 -13 -13   1 802.610 45.3800   1
  13  13   1 635.480 29.2900   1
  17  -2   1 132.750 24.9700   1
  17  -2  -1 194.990 31.2400   1
  17   2   1 104.210 23.6000   1
  17   2  -1 171.340 26.1600   1
  -5   3  -8 885.600 67.5700   1
   5  -3  -8 1005.59 50.1600   1
  -5   3  -8 998.860 42.7900   1
  -5  -3  -8 1070.83 74.7100   1
  -5  -3  -8 802.910 59.2200   1
   5  -3   8 1343.77 88.5800   1
   5   3   8 1066.36 75.7800   1
  -5   3   8 1127.54 53.2300   1
  -5  -3   8 1230.25 54.3500   1
  16  -2   3 1670.76 60.7800   1
  16  -2  -3 2030.56 70.5300   1
  16   2   3 1475.08 50.3700   1
  16  -2   3 1909.18 76.5100   1
  -7 -17  -3 811.310 55.3900   1
  -7 -17   3 813.620 46.7400   1
   7 -17  -3 671.440 36.7800   1
   7 -17  -3 606.600 39.6000   1
   7  17  -3 877.150 44.9000   1
  -7 -17   3 863.540 53.7000   1
   7 -17   3 779.270 48.0500   1
   7  17   3 779.350 38.2500   1
   7 -17  -3 597.990 50.2800   1
   7 -17  -3 608.290 47.4500   1
   5  13   6 2219.61 98.6700   1
   5 -13  -6 1444.69 60.3500   1
  -5 -13  -6 1513.38 75.3700   1
  -5 -13  -6 1987.69 84.6100   1
   5 -13   6 1736.88 65.1300   1
  -5 -13   6 2244.94 81.6500   1
   5 -13  -6 1770.45 74.8400   1
  -5 -13  -6 1691.25 78.9300   1
   5 -13  -6 2116.74 70.8400   1
  -5  13   6 2027.13 71.1300   1
 -11 -10   5 248.070 21.2600   1
  11  10   5 297.300 26.9800   1
 -11  10   5 232.590 20.4100   1
  11 -10   5 199.210 25.5100   1
  11  10  -5 376.370 28.6500   1
  11 -10  -5 297.270 30.8300   1
 -11 -10  -5 310.910 27.0500   1
   6  -9   7 7342.53 139.750   1
   6   9   7 8187.92 204.410   1
  15   3  -4 1465.63 57.1700   1
  15  -3   4 1378.99 65.8000   1
 -15   3   4 1350.95 50.4000   1
  15   3   4 1225.90 52.4300   1
  15  -3  -4 1654.37 73.6200   1
  15  -3   4 1221.65 57.4900   1
  15 -10   0 1255.08 57.2500   1
 -15 -10   0 1478.71 67.0600   1
  15  10   0 1370.99 45.2600   1
  14  -7   4 20.8800 21.9600   1
  14   7  -4 -14.670 21.0600   1
  14   7   4 4.34000 18.6000   1
  14  -7  -4 -12.050 22.3400   1
 -14   7   4 -4.0200 20.7900   1
  14  -7  -4 3.26000 20.0900   1
   5 -18  -3 794.440 41.1200   1
   5 -18  -3 813.980 53.6100   1
  -5 -18  -3 690.890 46.7700   1
   5 -18   3 836.100 57.4400   1
  -5 -18   3 866.460 41.2600   1
   5 -18   3 834.520 46.3300   1
   5  18   3 780.230 36.6500   1
   5 -18  -3 672.400 50.2000   1
  -5 -18   3 1099.40 60.2700   1
  15  -7  -3 292.180 30.0900   1
  15  -7  -3 294.580 32.3200   1
  15   7   3 300.760 24.3500   1
  15  -7   3 471.590 37.5800   1
  15   7  -3 347.400 26.0000   1
   7  -8   7 4075.68 108.860   1
  -7   8   7 4580.56 93.7300   1
   7   8   7 4370.90 163.660   1
  -7  -8  -7 4630.43 129.930   1
  -7  -8   7 5166.33 96.7500   1
   7  -8  -7 3961.54 114.710   1
 -12 -11  -4 1300.07 48.7200   1
 -12  11   4 1551.17 52.0200   1
  12 -11  -4 992.220 49.9300   1
  12  11   4 1190.71 45.7400   1
  12  11  -4 1295.28 44.7600   1
  12 -11   4 1209.49 58.5300   1
  12 -11  -4 899.460 51.6000   1
   3 -16  -5 19.9200 20.8000   1
  -3  16   5 29.7000 18.1300   1
   3  16   5 21.9900 23.7800   1
  -3 -16   5 33.7500 26.1300   1
  -3 -16  -5 31.9900 25.3700   1
   3 -16  -5 16.7600 25.5600   1
   3 -16  -5 39.2000 24.3400   1
  -3 -16  -5 8.41000 21.2600   1
  -3 -16   5 83.6000 30.1700   1
   3 -16   5 45.5400 24.3500   1
  -3 -16  -5 1.21000 22.7400   1
   6 -19   0 269.130 27.8900   1
  -6 -19   0 282.560 29.1200   1
  -6 -19   0 403.430 39.7000   1
   6 -19   0 235.940 30.9200   1
   6 -19   0 297.490 30.7600   1
   6  19   0 301.560 26.0500   1
  13  -6   5 1703.50 74.1200   1
  13   6   5 1623.37 56.1500   1
 -13  -6   5 1739.91 51.4600   1
 -13   6   5 1783.62 52.5400   1
  13  -6  -5 1690.19 61.1900   1
  16   6   2 233.450 26.4200   1
  16  -6  -2 131.100 21.7200   1
  16   6  -2 218.140 23.8900   1
  -4   5   8 3371.74 99.0100   1
   4  -5   8 3181.75 128.840   1
  -4  -5   8 3435.21 92.3300   1
  -4  -5  -8 2808.32 117.120   1
   4  -5  -8 2997.77 106.640   1
   4   5   8 3382.45 131.830   1
  -2 -20   1 1780.72 73.4500   1
  -2 -20  -1 1627.18 69.2000   1
   2 -20   1 1533.06 59.3300   1
  -2 -20   1 1309.61 68.8800   1
  -2 -20  -1 1445.25 69.8100   1
   2 -20   1 1485.16 71.2300   1
   2 -20  -1 1243.83 62.4900   1
  -2 -20  -1 1381.85 54.1800   1
  -2 -20   1 1345.89 50.5400   1
   2 -20  -1 1525.93 60.4800   1
   2 -20   1 1541.18 55.2200   1
   2 -20  -1 1075.67 59.6400   1
  14   0   5 135.130 23.8300   1
  14   0  -5 203.300 23.9500   1
  14   0   5 222.590 28.6600   1
 -14   0   5 242.910 21.5300   1
  12   3   6 687.110 44.5400   1
  12  -3   6 849.200 56.5800   1
 -12  -3   6 1062.69 42.4600   1
 -12   3   6 870.510 35.5900   1
 -12   3  -6 583.680 42.1700   1
  12  -3  -6 946.320 50.5600   1
  12  -3   6 995.880 58.4300   1
   3 -11  -7 891.530 51.7800   1
   3 -11   7 1106.20 47.3800   1
  -3 -11  -7 1337.35 83.6900   1
   3 -11   7 1455.19 85.1200   1
  -3 -11   7 1473.68 64.5500   1
   3  11   7 1077.74 59.8100   1
  -3  11   7 1320.24 64.5400   1
   3 -11  -7 1153.86 48.8500   1
  -3 -11  -7 1081.46 61.2200   1
  -3 -11  -7 793.910 52.4700   1
   3 -11  -7 880.540 54.0200   1
  -8 -18   0 3099.24 89.6400   1
   8 -18   0 2693.13 96.6800   1
  -8 -18   0 3815.42 131.780   1
   8  18   0 3425.68 85.9100   1
  17  -3   1 2363.63 82.7100   1
  17  -3   1 2415.91 80.2000   1
  17  -3  -1 2863.07 89.1700   1
  17   3   1 2496.00 71.0000   1
  17   3  -1 2890.83 83.1700   1
   0 -19  -3 1176.71 49.1600   1
   0 -19   3 1065.19 49.6200   1
   0 -19  -3 902.630 57.4500   1
   0 -19   3 1071.59 53.6100   1
   0 -19  -3 1039.25 65.5200   1
  -3  -6   8 5449.86 108.600   1
  -3   6   8 5732.85 118.220   1
  -3  -6  -8 4505.01 129.910   1
  -3  -6   8 5753.72 108.660   1
   3  -6  -8 4351.90 128.450   1
  16  -3   3 1039.43 52.2300   1
  16   3  -3 864.420 36.9500   1
  16  -3  -3 829.550 65.4800   1
  16  -3   3 695.150 39.7600   1
  16   3   3 865.850 43.3200   1
   3 -20   0 3461.77 113.730   1
  -3 -20   0 3434.23 108.290   1
   3 -20   0 3346.62 100.650   1
  -3 -20   0 3850.50 106.340   1
   3 -20   0 3194.97 84.2300   1
  -3 -20   0 3825.70 99.1100   1
 -14   1   5 613.400 37.8600   1
  14   1   5 392.860 36.1200   1
 -14  -1   5 455.730 25.1200   1
  14  -1   5 372.900 30.1000   1
  14   1   5 396.370 30.4200   1
  14   1  -5 457.030 34.7900   1
  14  -1   5 551.870 42.0100   1
   0  -7  -8 11.0400 25.9100   1
   0  -7  -8 -33.350 24.2000   1
   0  -7  -8 20.5300 22.7800   1
   0  -7   8 -11.280 20.2000   1
   0  -7   8 -2.3900 26.1500   1
   0   7   8 -2.9300 27.1700   1
   5 -10   7 3640.96 105.100   1
   5 -10  -7 2820.58 81.5800   1
   5 -10  -7 2867.69 101.220   1
  -5 -10  -7 3506.61 133.130   1
  -5 -10  -7 2480.92 101.520   1
  -5 -10  -7 2531.37 99.5100   1
   5 -10  -7 2758.74 115.360   1
   5 -10   7 2776.27 133.430   1
   5  10   7 3412.99 131.790   1
  -5  10   7 3394.11 95.4300   1
  -5 -10   7 2965.47 76.5400   1
   3 -14   6 1279.36 54.2000   1
  -3  14   6 836.860 50.3700   1
   3 -14  -6 1170.18 65.8600   1
  -3 -14  -6 1144.52 66.2500   1
   3 -14  -6 1285.39 52.9100   1
  -3 -14  -6 881.300 51.9000   1
  -3 -14  -6 911.690 56.0100   1
   3 -14  -6 990.990 62.4000   1
   3  14   6 1299.06 78.8100   1
  15   9   2 59.9100 28.7600   1
  15   9  -2 21.7400 28.1900   1
  15  -9   2 -4.2100 24.8200   1
  15  -9  -2 -3.8200 23.5200   1
  15  -9  -2 3.07000 16.1700   1
 -15  -9  -2 60.0200 25.8200   1
  14 -11  -2 -2.3600 17.9700   1
  14  11  -2 45.8000 18.6400   1
  14  11   2 61.7100 21.4200   1
  14 -11   2 47.4700 24.7600   1
 -14 -11  -2 30.5200 22.2100   1
 -14 -11  -2 40.6600 22.1900   1
  14 -11  -2 36.9100 25.9900   1
  -6   0  -8 2949.14 107.800   1
  -6   0  -8 3799.78 117.470   1
   6   0  -8 3042.11 88.4900   1
  -6   0   8 3511.48 83.2000   1
   6   0   8 3381.42 118.480   1
  17   4   0 2823.23 81.9700   1
  17  -4   0 2165.89 73.9600   1
  17  -4   0 2362.30 84.8400   1
   1 -19  -3 142.040 31.1500   1
  -1 -19  -3 92.1900 19.0500   1
  -1 -19   3 149.240 23.7200   1
   1 -19   3 158.430 24.6500   1
  -1 -19  -3 207.270 30.0500   1
   1 -19   3 229.330 27.3800   1
  -1 -19  -3 150.860 28.6300   1
   1 -19  -3 101.340 27.2000   1
  -1 -19   3 234.480 38.2600   1
   1 -19  -3 146.540 22.6100   1
  14  12   0 3251.27 85.9400   1
 -14 -12   0 2796.92 83.8800   1
  14 -12   0 2874.63 97.2300   1
  11  14   3 244.060 38.4400   1
 -11  14   3 129.550 18.7900   1
  11 -14  -3 115.590 30.8400   1
  11 -14   3 160.070 27.2200   1
 -11 -14  -3 139.690 25.1900   1
  11  14  -3 176.060 24.1800   1
  11 -14  -3 147.690 26.4500   1
   8 -11  -6 1877.44 73.3700   1
  -8 -11  -6 1895.65 85.9200   1
  -8 -11  -6 2083.75 80.1700   1
  -8  11   6 2596.60 72.6000   1
   8 -11   6 2629.86 90.8400   1
 -10 -15  -3 91.4800 27.2900   1
 -10 -15   3 66.7000 25.5900   1
  10 -15   3 71.5200 30.9400   1
  10 -15  -3 49.9000 23.5500   1
 -10  15   3 34.6300 19.6100   1
  10  15   3 19.4400 17.3000   1
  10  15  -3 24.8400 18.2000   1
  10 -15  -3 47.7100 22.3300   1
   7 -18   2 25.5100 28.4700   1
  -7 -18  -2 45.7400 24.4000   1
  -7 -18   2 25.3500 23.8100   1
   7  18  -2 77.6700 21.2200   1
  -7 -18   2 133.540 35.7900   1
  -7 -18  -2 -3.9200 29.6700   1
   7 -18   2 87.6700 23.8800   1
   7 -18  -2 64.0800 25.5400   1
   7  18   2 57.7000 18.4600   1
   7 -18  -2 53.8900 20.1800   1
   7 -18  -2 22.4200 22.0400   1
  11 -15   2 120.890 31.4100   1
 -11 -15  -2 109.990 25.4100   1
 -11 -15  -2 130.260 25.9400   1
 -11 -15   2 118.510 29.0500   1
  11  15   2 90.1700 18.7000   1
  11  15  -2 176.340 29.9400   1
  11 -15  -2 97.7300 22.9000   1
  11 -15  -2 117.550 22.8900   1
   1  -7  -8 193.800 27.0900   1
   1  -7   8 260.580 30.8300   1
   1   7   8 255.500 31.8400   1
   1  -7   8 236.310 25.8200   1
  -1  -7   8 237.750 26.9700   1
  -1  -7  -8 156.110 26.3600   1
  -1   7   8 242.350 30.1400   1
  -1  -7  -8 243.620 32.1600   1
  -1  -7   8 298.240 28.9800   1
  -1  -7  -8 150.530 22.1600   1
   1  -7  -8 111.990 29.5700   1
   5  -4  -8 3569.78 108.660   1
  -5   4  -8 3495.75 87.7900   1
  -5  -4  -8 3491.55 127.170   1
  -5  -4  -8 2805.24 113.420   1
   5  -4   8 4189.20 159.890   1
   5   4   8 3920.19 135.720   1
  -5   4   8 4281.73 111.320   1
  -5  -4   8 3488.36 83.9600   1
   6  -1  -8 13.1200 20.2100   1
  -6  -1   8 37.0500 20.5900   1
  -6   1   8 21.9100 18.0400   1
   6  -1   8 -18.560 23.2500   1
  -6  -1  -8 24.8600 17.5700   1
  -6   1  -8 -3.0300 24.8300   1
  -6  -1  -8 -0.9800 26.3400   1
  -6   1  -8 24.1600 22.0700   1
   5 -17  -4 1528.74 74.5900   1
   5  17   4 1893.98 63.2200   1
   5 -17   4 1608.60 78.0700   1
   5 -17  -4 1413.91 72.6500   1
   5 -17  -4 1882.98 63.6600   1
  -5 -17   4 2052.65 72.6600   1
  -5 -17  -4 1706.73 92.8300   1
  -5  17   4 1107.03 65.0800   1
   5 -17   4 1774.47 77.7000   1
   7 -16  -4 38.0200 22.0300   1
   7 -16  -4 54.1500 21.8300   1
  -7  16   4 26.1300 13.5800   1
   7 -16  -4 99.0200 26.0600   1
  -7 -16   4 73.8800 25.6000   1
  -7 -16   4 45.5100 35.5800   1
   7  16   4 51.6500 14.7100   1
   7  16  -4 50.3400 18.5800   1
   7 -16   4 70.7300 30.4700   1
   9  -5  -7 780.610 41.2800   1
  -9  -5  -7 600.110 37.7400   1
  -9   5  -7 647.680 49.7400   1
  -9  -5  -7 525.380 34.4600   1
  -9   5   7 839.590 35.6900   1
  -9  -5   7 934.780 38.9000   1
   9  -5   7 803.330 52.9600   1
  -9  -5  -7 779.560 36.1800   1
   0 -18  -4 1435.93 69.7900   1
   0 -18   4 1647.27 58.6500   1
   0 -18  -4 1871.19 65.3900   1
   0 -18  -4 1132.05 54.3900   1
   0 -18  -4 1420.29 76.7400   1
   0 -18   4 1461.18 62.8900   1
  15 -10   1 3784.05 113.370   1
  15  10   1 3584.37 84.1200   1
  15 -10  -1 4191.84 122.990   1
 -15 -10   1 3396.83 89.3100   1
   8  -7  -7 1749.15 73.6700   1
  -8  -7  -7 1864.69 87.9100   1
  -8  -7   7 2368.05 66.5500   1
  -8  -7  -7 1578.66 82.5900   1
   8  -7   7 1958.05 80.5000   1
  -8   7   7 2493.75 74.7400   1
  14   2  -5 29.7600 20.2500   1
  14   2   5 20.9600 24.9000   1
 -14  -2   5 6.40000 16.8800   1
  14  -2   5 0.06000 23.6000   1
 -14   2   5 11.3700 24.9300   1
  14  -2   5 13.4700 25.6900   1
   7 -12  -6 67.9800 25.0900   1
   7 -12   6 115.350 26.3500   1
  -7 -12   6 128.880 36.4400   1
   7  12  -6 87.6900 18.6400   1
  -7  12   6 95.0600 20.9200   1
   7  12   6 93.9200 26.5700   1
   7 -12  -6 79.6000 25.7700   1
  -7 -12  -6 81.3400 23.6500   1
  -7 -12  -6 128.880 23.1900   1
   7 -12  -6 93.5300 22.3900   1
  -7 -12  -6 63.7300 25.1400   1
   9 -10  -6 1096.25 55.5800   1
   9  10  -6 1558.89 57.2700   1
  -9 -10   6 1218.17 49.2400   1
  -9 -10  -6 965.340 59.6600   1
   9 -10   6 1289.22 68.9600   1
  -9  10   6 1294.08 48.0400   1
 -16  -8   0 17.8000 28.7100   1
  16  -8   0 32.6500 23.9800   1
  16   8   0 15.5300 24.0600   1
 -10   0  -7 2101.04 90.2200   1
  10   0   7 2048.37 80.0800   1
   6 -19  -1 1477.60 60.3900   1
   6 -19  -1 1354.35 66.9000   1
  -6 -19  -1 1472.85 77.4500   1
  -6 -19   1 1502.56 57.6900   1
  -6 -19  -1 1744.69 69.0200   1
   6 -19   1 1594.86 72.5300   1
   6 -19   1 1647.74 76.6000   1
   6 -19  -1 1398.80 65.6500   1
   6  19  -1 1603.42 53.7600   1
  -6 -19   1 1877.02 82.7900   1
   6  19   1 1574.07 56.2600   1
   6 -19   1 1306.90 48.9500   1
  10  16  -2 142.870 22.4100   1
 -10 -16   2 138.500 26.8600   1
  10 -16  -2 109.170 24.0600   1
  10 -16   2 49.2400 25.1200   1
  10  16   2 93.8900 19.6200   1
  10 -16  -2 117.600 26.7100   1
 -10 -16  -2 119.290 28.7800   1
   1 -18  -4 345.400 29.0700   1
   1 -18  -4 313.070 30.3700   1
  -1 -18  -4 321.290 31.5100   1
  -1 -18  -4 406.600 32.9900   1
  -1 -18  -4 311.380 31.5000   1
   1 -18   4 338.770 26.6100   1
   1 -18  -4 237.040 28.2100   1
   1 -18  -4 321.120 33.6300   1
  -1 -18   4 327.850 35.9400   1
   1 -18   4 312.610 29.5900   1
  -1 -18   4 385.270 28.5300   1
  -1 -18  -4 335.270 36.4700   1
  15  -4  -4 540.660 36.6600   1
  15  -4  -4 508.230 35.3200   1
 -15   4   4 508.430 32.0200   1
  15  -4   4 738.230 60.3400   1
  15   4   4 712.050 45.5700   1
  15   4  -4 600.840 33.1500   1
  15  -4   4 628.210 45.6600   1
  -6 -15  -5 26.5700 27.9100   1
   6 -15  -5 53.1200 25.0100   1
   6 -15   5 56.9300 23.8700   1
   6 -15  -5 37.8800 25.2900   1
  -6 -15  -5 21.1100 21.7500   1
   6 -15  -5 51.8000 19.1000   1
   6  15   5 38.0700 32.1200   1
  -6  15   5 43.3500 22.0000   1
  -6 -15   5 71.3400 38.2300   1
  12 -14  -2 2319.58 81.4600   1
 -12 -14   2 2367.67 73.6900   1
  12 -14  -2 1853.95 87.7400   1
  12 -14   2 2281.69 83.4700   1
  12  14   2 2526.13 67.4200   1
 -12 -14  -2 1947.42 75.4000   1
 -12 -14  -2 2198.88 85.2300   1
  12  14  -2 2794.05 76.2700   1
 -10  -1  -7 52.4100 28.6200   1
 -10  -1  -7 47.6400 20.6900   1
 -10   1  -7 33.9100 24.1000   1
 -10   1   7 35.7400 22.9800   1
  10  -1  -7 36.1100 24.7600   1
 -10  -1   7 66.9500 21.6000   1
   6  -2  -8 3795.45 110.790   1
  -6   2   8 3559.49 90.3600   1
   6   2   8 3496.81 145.340   1
   6  -2   8 3770.86 147.240   1
  -6   2  -8 3246.26 108.000   1
  -6  -2  -8 3314.76 111.580   1
  -6   2  -8 4238.48 97.9200   1
  -2 -19   3 179.430 30.6200   1
   2 -19  -3 134.150 23.6400   1
  -2 -19  -3 150.480 26.2800   1
  -2 -19   3 147.740 29.8300   1
   2 -19   3 211.720 31.1800   1
   2 -19  -3 139.510 28.2600   1
  -2 -19  -3 156.610 24.6100   1
   2 -19  -3 132.530 27.3700   1
  -2 -19  -3 152.590 28.7300   1
   2 -19   3 134.620 28.9000   1
   8 -18   1 1110.27 56.4200   1
   8  18   1 1020.78 40.0800   1
   8  18  -1 1292.46 51.0400   1
  -8 -18   1 1465.00 81.1300   1
  -8 -18   1 1091.97 51.0500   1
  -8 -18  -1 1073.86 55.6400   1
   8 -18  -1 871.590 48.8700   1
   8 -18  -1 1147.74 67.7400   1
  -8 -18  -1 951.160 44.1100   1
   8 -18   1 729.040 50.4100   1
  -8 -18  -1 856.570 52.9600   1
   3 -20  -1 46.9600 21.0400   1
   3 -20   1 24.5200 23.5500   1
  -3 -20  -1 47.4800 23.9000   1
   3 -20  -1 5.75000 18.9600   1
   3 -20  -1 27.4200 33.5100   1
   3 -20   1 52.4400 24.6300   1
   3 -20  -1 55.9200 20.7300   1
  -3 -20   1 34.7300 24.1400   1
  -3 -20  -1 17.7000 20.9900   1
  -3 -20   1 -15.000 25.5200   1
  -3 -20  -1 33.6300 31.7200   1
   3 -20   1 16.6400 21.6000   1
  -3 -20   1 7.02000 19.0100   1
  -3 -20   1 43.2900 32.9600   1
   5 -19   2 1656.97 70.9900   1
   5 -19  -2 1600.94 78.9400   1
  -5 -19   2 1986.31 78.4400   1
   5 -19   2 1825.06 82.8100   1
   5 -19  -2 1749.58 83.3800   1
   5 -19  -2 2105.20 70.1700   1
   5  19   2 2234.51 68.5600   1
   5  19  -2 1724.41 57.8000   1
  -5 -19  -2 2274.25 84.2200   1
  -5 -19  -2 1775.94 70.9300   1
  -5 -19   2 2226.15 76.4800   1
   5 -19  -2 1758.97 67.6900   1
  12  13  -3 1566.00 47.6800   1
  12 -13   3 1476.77 67.4300   1
 -12 -13  -3 1208.18 74.1700   1
  12 -13  -3 1098.45 59.8300   1
 -12 -13  -3 1373.07 48.7800   1
 -12  13   3 1789.38 65.0000   1
  12 -13  -3 1344.59 61.8800   1
  12  13   3 1277.27 44.3600   1
   2  -7  -8 2739.60 102.910   1
  -2  -7  -8 2538.70 94.7000   1
   2  -7  -8 2909.71 98.1600   1
   2   7   8 3301.34 100.990   1
   2  -7   8 3615.78 114.010   1
  -2   7   8 3329.23 116.700   1
   2  -7   8 3788.69 105.840   1
   9  16   3 111.680 21.4400   1
  -9 -16   3 134.880 30.1800   1
  -9 -16  -3 115.080 31.8000   1
  -9  16   3 129.650 20.2800   1
   9 -16  -3 68.8900 25.9600   1
   9 -16  -3 121.690 24.4800   1
   9 -16   3 126.080 24.8500   1
   9  16  -3 105.490 21.7700   1
   9 -16  -3 84.7400 19.8500   1
 -12  -4   6 1193.71 47.2900   1
  12   4   6 1230.41 69.4300   1
  12  -4   6 1038.85 61.4300   1
 -12   4   6 1024.58 41.0000   1
 -12  -4  -6 692.040 46.8800   1
  17  -4   1 43.6300 24.5200   1
  17   4  -1 9.52000 20.4300   1
  17   4   1 33.6400 30.7400   1
  17  -4   1 33.4800 22.9000   1
  17  -4  -1 40.2300 22.9200   1
  16   4  -3 2323.42 76.4500   1
  16  -4  -3 1676.05 68.0200   1
  16  -4   3 1855.19 67.9400   1
  16   4   3 2129.35 73.3200   1
  16  -4   3 1699.40 70.7700   1
  14 -12  -1 92.9200 20.4500   1
  14 -12  -1 176.320 33.5700   1
 -14 -12  -1 128.910 28.4800   1
  14 -12   1 121.930 27.8500   1
  14  12  -1 143.920 20.7100   1
  14  12   1 164.540 23.6900   1
 -14 -12  -1 145.910 24.7900   1
 -14 -12   1 163.040 26.1600   1
  11  -7  -6 110.830 34.9400   1
 -11  -7  -6 93.5100 19.4700   1
 -11  -7  -6 130.820 23.0900   1
 -11   7   6 135.200 25.1900   1
 -11  -7   6 121.590 17.9900   1
  11   7   6 102.590 22.5100   1
  11  -7   6 151.910 27.2300   1
  10  -2   7 1828.93 80.7000   1
 -10  -2  -7 1979.20 87.5600   1
 -10  -2  -7 2556.62 68.2200   1
  10  -2  -7 2262.62 80.3900   1
 -10   2   7 2553.43 70.9800   1
  -4  16   5 3731.56 111.100   1
   4  16   5 3771.67 126.910   1
   4 -16  -5 3591.54 105.360   1
  -4 -16  -5 4220.71 144.210   1
  -4 -16  -5 3676.52 112.380   1
   4 -16  -5 3963.89 106.990   1
  -4 -16   5 4571.77 108.880   1
   4 -16   5 4131.42 97.6100   1
  17   0   2 -25.320 26.9000   1
  17   0  -2 -4.8000 29.0800   1
  -2 -18  -4 1052.43 62.2800   1
  -2 -18   4 1560.01 58.0200   1
   2 -18   4 1461.78 63.6100   1
  -2 -18  -4 1309.47 69.8200   1
   2 -18  -4 1120.61 72.6600   1
  -2 -18  -4 1560.13 57.0900   1
   2 -18  -4 1558.57 55.4300   1
   2 -18   4 1326.14 55.4300   1
   2 -18  -4 1211.00 66.8300   1
  -2 -18  -4 1278.16 65.2000   1
  -2 -18   4 1353.48 64.5000   1
   2 -18  -4 976.890 50.7300   1
  14   3  -5 2201.83 72.3000   1
  14   3   5 1786.76 68.5600   1
  14  -3   5 1712.72 79.5500   1
 -14   3   5 2014.28 64.5800   1
  14  -3  -5 2000.78 76.4700   1
 -14  -3   5 2335.29 64.6300   1
  14  -3   5 1993.31 72.9700   1
 -14 -10  -3 760.580 36.7500   1
  14 -10  -3 974.720 58.7800   1
  14 -10   3 889.400 57.6500   1
  14  10   3 907.550 40.1300   1
  14 -10  -3 598.350 40.6200   1
 -12  -9  -5 2234.65 55.6900   1
  12  -9  -5 3146.98 124.190   1
  12   9  -5 2986.65 76.1400   1
 -12  -9   5 2781.84 75.1000   1
  12   9   5 2914.17 83.9800   1
 -12   9   5 2312.29 66.9200   1
  12  -9   5 2486.12 92.4000   1
  17   1   2 35.8800 27.9700   1
  17  -1  -2 68.1100 21.3100   1
  17   1  -2 88.6700 26.7300   1
  17  -1   2 29.5400 24.0400   1
   4 -11  -7 82.1100 21.2000   1
  -4 -11  -7 133.490 32.1100   1
   4 -11  -7 116.060 24.4400   1
   4 -11  -7 110.720 23.8700   1
  -4 -11  -7 123.770 26.1100   1
  -4 -11  -7 40.9000 23.8600   1
  -4  11   7 130.780 25.5500   1
   4 -11   7 92.8000 25.3900   1
   4  11   7 201.330 37.6000   1
  -4 -11   7 109.000 30.9700   1
   4 -11   7 75.4900 22.5600   1
 -16  -8  -1 152.070 27.8500   1
  16   8   1 133.720 20.5700   1
  16   8  -1 147.800 22.2400   1
  16  -8   1 165.310 30.3400   1
  16  -8  -1 161.680 27.0900   1
  16  -8  -1 114.100 22.4400   1
  -4   6   8 463.560 37.9700   1
  -4  -6   8 418.450 33.0600   1
  -4  -6   8 428.890 39.7900   1
   4   6   8 414.030 56.3600   1
   4  -6   8 319.050 39.6400   1
  -4  -6  -8 323.190 36.2300   1
  -4  -6  -8 288.870 39.5300   1
   4  -6  -8 306.110 34.0000   1
  -4  -6  -8 244.650 31.7500   1
  -4 -20   0 1238.38 72.9900   1
   4 -20   0 1440.32 69.1600   1
   4 -20   0 1165.60 56.0500   1
  -4 -20   0 1633.96 73.1500   1
   4 -20   0 1203.97 62.5600   1
   6  -3  -8 78.8300 22.9200   1
  -6   3   8 91.1500 22.3500   1
   6   3   8 93.5900 30.6400   1
   6  -3   8 64.8100 24.9500   1
  -6  -3  -8 52.1600 21.6300   1
  -6  -3   8 140.750 25.1700   1
  -6   3  -8 77.2000 21.1400   1
  -6   3  -8 89.1000 24.8100   1
  -6  -3  -8 88.7400 20.6100   1
 -11 -16   0 113.340 25.3900   1
  11 -16   0 89.2600 22.1400   1
  11 -16   0 113.530 23.9300   1
  11  16   0 109.200 19.7600   1
 -17  -5   0 51.3900 23.7700   1
  17  -5   0 17.7100 21.7100   1
  17  -5   0 48.8900 29.2600   1
  17   5   0 16.4000 23.1200   1
   9  13   5 912.470 38.9000   1
   9  13  -5 1239.98 54.6300   1
   9 -13   5 928.110 49.5900   1
  -9 -13  -5 950.680 57.8300   1
   9 -13  -5 888.870 45.9200   1
  -9  13   5 1212.77 48.4400   1
   0 -12  -7 -4.9400 24.7300   1
   0 -12  -7 25.6200 24.5100   1
   0 -12  -7 20.5800 25.2700   1
   0 -12  -7 18.7600 24.6100   1
   0  12   7 -23.060 34.8400   1
   0 -12   7 19.1800 25.3300   1
   4 -14  -6 179.890 28.4000   1
   4  14   6 148.500 28.8800   1
   4 -14  -6 112.030 28.2400   1
  -4 -14  -6 118.180 22.9800   1
  -4 -14  -6 124.740 21.6500   1
   4 -14  -6 197.730 37.0300   1
  -4 -14  -6 189.660 32.9000   1
   4 -14   6 133.960 26.2900   1
  -4 -14   6 149.080 29.6600   1
  -4  14   6 148.600 24.6500   1
   0 -20  -2 2824.82 97.4900   1
   0 -20  -2 2797.31 83.7600   1
   0 -20   2 3148.10 97.9600   1
   0 -20   2 2647.70 78.5700   1
   0 -20  -2 2883.04 80.1500   1
   0 -20   2 2765.33 92.5200   1
  12 -15   0 68.6700 25.1200   1
  12  15   0 128.780 27.4000   1
 -12 -15   0 92.6900 23.3900   1
  -9 -17  -2 898.900 53.0000   1
   9 -17  -2 897.870 56.0300   1
   9  17  -2 1080.83 46.8900   1
   9 -17   2 924.040 50.3400   1
  -9 -17   2 905.100 84.1400   1
   9 -17  -2 820.490 55.8200   1
  -6 -13  -6 228.250 33.9900   1
  -6  13   6 363.020 30.3500   1
  -6 -13   6 448.950 50.2700   1
   6 -13   6 331.010 35.1400   1
   6 -13  -6 281.500 33.5100   1
  -6 -13  -6 256.330 31.6600   1
   6  13   6 325.740 43.8600   1
  -6 -13  -6 267.970 27.3200   1
   6 -13  -6 345.390 28.2300   1
   6 -13  -6 277.850 31.7600   1
  10  -9  -6 2578.43 95.6900   1
  10   9  -6 3696.46 89.3400   1
  10  -9   6 3371.98 120.840   1
 -10  -9  -6 2952.09 80.2200   1
 -10  -9   6 3230.35 82.6600   1
 -10  -9  -6 2516.72 104.080   1
  -5   5   8 400.970 34.6500   1
  -5  -5   8 283.780 23.4600   1
   5   5   8 301.750 36.9200   1
   5  -5   8 381.330 38.9700   1
  -5  -5  -8 199.770 25.6000   1
  -5  -5  -8 246.240 29.0600   1
  -5   5  -8 238.440 22.7400   1
   5  -5  -8 229.960 31.2600   1
  13  10   4 300.200 23.5600   1
 -13  10   4 307.130 21.6600   1
  13 -10  -4 370.940 30.2600   1
  13 -10   4 296.990 28.5100   1
  13  10  -4 535.680 35.0100   1
 -13 -10  -4 412.500 31.8100   1
 -13   7   5 -3.8800 24.4400   1
  13  -7   5 25.6400 23.2100   1
 -13  -7  -5 4.96000 22.1500   1
  13  -7  -5 2.36000 20.9100   1
  13   7  -5 27.1800 18.3800   1
  13   7   5 28.9100 20.3400   1
 -13  -7   5 8.10000 18.2800   1
  10 -12   5 1782.14 67.4100   1
  10  12   5 1516.09 48.2300   1
 -10  12   5 1979.03 57.7400   1
  10 -12  -5 1596.34 65.4200   1
 -10 -12  -5 1408.18 83.8500   1
  16   7  -2 3887.29 90.7300   1
  16  -7   2 3869.49 109.490   1
  16  -7  -2 3683.88 110.180   1
  -1 -12  -7 1686.71 83.3700   1
   1 -12  -7 1467.95 54.9800   1
   1 -12   7 1718.43 77.9600   1
  -1 -12   7 1578.73 61.3500   1
  -1  12   7 1289.34 72.1100   1
   1  12   7 1245.57 60.6000   1
   1 -12  -7 1166.57 78.4600   1
  -1 -12  -7 1295.16 85.5500   1
   1 -12  -7 1090.23 50.0000   1
  -1 -12  -7 1342.95 62.0400   1
  -1 -12  -7 1510.01 57.5600   1
   1 -12  -7 1312.30 70.6200   1
  -1 -20   2 377.820 35.8500   1
  -1 -20   2 352.310 41.0900   1
  -1 -20   2 418.100 32.8000   1
  -1 -20  -2 405.040 48.5800   1
   1 -20  -2 342.000 43.0500   1
  -1 -20  -2 406.510 31.8600   1
   1 -20  -2 412.020 33.8200   1
  -1 -20   2 344.600 26.6700   1
   1 -20   2 327.900 25.4200   1
   1 -20  -2 346.550 33.9200   1
   1 -20   2 422.780 35.1300   1
  -1 -20  -2 390.870 41.0500   1
   1 -20   2 379.630 38.5200   1
   1 -20  -2 298.690 27.1500   1
  13 -13  -2 1949.00 79.9900   1
  13 -13   2 1735.72 71.3100   1
  13  13  -2 2108.01 56.5400   1
 -13 -13  -2 1860.59 58.0200   1
 -13 -13  -2 2081.58 72.9200   1
 -13 -13   2 1960.94 68.8700   1
  17   2  -2 391.960 29.0200   1
  17  -2  -2 276.720 23.2700   1
  17  -2   2 306.370 29.3300   1
  17  -2   2 290.070 26.7500   1
  17   2   2 322.820 28.4600   1
  10 -14  -4 299.390 36.0300   1
 -10  14   4 241.370 21.8100   1
 -10 -14  -4 232.240 29.1600   1
  10 -14   4 326.620 32.6300   1
  10  14  -4 316.740 21.6800   1
  10  14   4 296.200 24.4100   1
  14   8   4 77.9900 19.4300   1
  14  -8  -4 69.8400 21.2200   1
  14  -8   4 47.4200 23.4200   1
  14   8  -4 132.090 29.4700   1
  14  -8  -4 90.2800 26.5200   1
 -14   8   4 80.5500 21.9100   1
   3 -19  -3 2918.18 105.180   1
   3 -19   3 3109.86 120.450   1
  -3 -19  -3 2798.84 91.8000   1
   3 -19  -3 2896.24 88.9500   1
   3 -19  -3 3480.98 95.8900   1
  -3 -19   3 3864.53 115.290   1
   3 -19   3 3250.01 94.8300   1
  -3 -19   3 3382.83 86.9700   1
  15  -8  -3 2485.23 85.3800   1
  15  -8   3 3086.93 103.800   1
  15   8   3 2934.03 79.1300   1
  15  -8  -3 2927.71 111.780   1
  -6 -18   3 340.170 30.7700   1
   6  18   3 322.340 22.4000   1
   6  18  -3 395.550 27.7200   1
  -6 -18   3 502.110 51.0400   1
   6 -18   3 366.000 33.6400   1
   6 -18  -3 291.940 33.9500   1
   6 -18  -3 252.300 25.2400   1
  -6 -18  -3 301.550 34.6300   1
   6 -18   3 240.320 27.3600   1
   6 -18  -3 362.050 30.7100   1
 -10  -3   7 37.3700 19.9200   1
  10  -3  -7 91.6100 40.1400   1
 -10   3   7 37.4900 20.6200   1
 -10  -3  -7 12.2500 18.4700   1
  10  -3   7 22.7200 22.3300   1
 -10  -3  -7 43.6800 24.8600   1
 -10  -3  -7 33.5400 19.6200   1
 -10   3  -7 -16.500 25.9000   1
  10  -3   7 18.2600 18.3400   1
  -3  -7  -8 13.4400 27.3600   1
   3  -7  -8 22.5400 24.3500   1
  -3  -7  -8 -23.100 22.0400   1
  -3  -7  -8 -21.270 26.6500   1
   3  -7   8 10.8600 27.8600   1
  -3   7   8 -12.060 26.1600   1
  -3  -7   8 23.0500 22.1500   1
  -3  -7   8 20.5100 21.4400   1
   3  -7   8 -11.030 21.7400   1
   3   7   8 30.0600 24.0100   1
  15  -5  -4 428.250 31.7300   1
  15   5  -4 628.780 35.1900   1
  15   5   4 671.360 40.7900   1
  15  -5  -4 456.020 30.8700   1
  15  -5   4 540.570 33.7300   1
 -15   5   4 490.900 27.6500   1
   9  -6  -7 606.980 43.4200   1
   9  -6   7 552.660 44.3500   1
  -9  -6   7 829.900 39.4200   1
  -9   6   7 659.250 31.8600   1
  -9  -6  -7 455.570 40.9000   1
  -9  -6  -7 526.690 34.7000   1
  -9  -6  -7 653.480 33.8100   1
   8  14   5 484.450 57.4100   1
  -8 -14  -5 534.550 45.6900   1
   8 -14  -5 678.500 47.9800   1
   8 -14  -5 616.930 31.6200   1
   8 -14  -5 613.370 51.1000   1
  -8 -14   5 1117.45 62.0200   1
   8  14   5 651.060 33.3900   1
   8 -14   5 676.230 39.0300   1
  -8  14   5 748.350 36.9300   1
   8  14  -5 877.850 35.6800   1
  11 -13  -4 386.470 35.4100   1
 -11 -13  -4 336.860 29.2400   1
  11  13   4 492.240 36.1800   1
  11 -13  -4 297.490 27.4100   1
  11 -13   4 385.550 32.3600   1
  11  13  -4 439.720 25.1800   1
 -11  13   4 461.460 31.3500   1
 -10 -17   0 827.840 40.8000   1
  10 -17   0 578.910 45.1900   1
  10  17   0 957.490 42.6300   1
  10 -17   0 701.360 42.3400   1
   7  -9   7 290.900 32.4600   1
  -7  -9   7 380.090 44.3900   1
  -7  -9   7 236.050 22.6400   1
   7  -9  -7 187.450 27.0000   1
  -7  -9  -7 273.960 31.4600   1
  -7  -9  -7 186.600 32.1000   1
   7   9   7 161.460 29.3200   1
  -7   9   7 237.090 24.5000   1
   3 -18   4 1874.76 74.3600   1
   3 -18   4 2412.70 86.1600   1
   3 -18  -4 2029.35 89.2900   1
  -3 -18  -4 1987.79 75.5400   1
   3 -18  -4 2317.23 68.2500   1
   3 -18  -4 2535.00 92.4600   1
  -3 -18  -4 2220.43 90.3700   1
  -3 -18   4 2706.84 81.3900   1
   9  15   4 1292.98 45.5700   1
   9 -15   4 1266.22 57.9800   1
   9  15  -4 1575.79 52.8300   1
  -9 -15  -4 1354.81 60.5000   1
   9 -15  -4 1116.89 64.8100   1
   9 -15  -4 864.080 56.4200   1
  -9  15   4 1196.09 43.1200   1
 -13 -12  -3 1166.57 39.1900   1
  13 -12  -3 1165.95 56.5600   1
 -13 -12  -3 1019.98 64.2100   1
  13 -12  -3 1197.07 56.8900   1
  13 -12   3 1336.59 57.8800   1
  13  12   3 1333.97 45.4400   1
  14   4   5 219.850 26.3400   1
  14  -4   5 230.440 27.8400   1
 -14  -4   5 224.690 22.5100   1
 -14   4   5 282.210 30.7600   1
  14  -4   5 290.450 31.8500   1
  14   4  -5 230.830 22.7600   1
  14  -4  -5 215.200 28.2400   1
  12  -5   6 1778.80 73.3200   1
 -12  -5   6 1869.03 51.4300   1
 -12  -5  -6 1858.42 49.7400   1
 -12   5   6 1689.92 46.8600   1
  12  -5  -6 1808.43 76.1900   1
  12   5   6 1736.79 63.6300   1
  -4 -20  -1 1542.36 66.0700   1
   4 -20   1 1275.55 64.6800   1
   4 -20  -1 1555.62 70.2800   1
  -4 -20   1 1864.09 73.9200   1
  -4 -20   1 1529.34 58.1200   1
  -4 -20   1 1566.42 55.3600   1
  -4 -20  -1 1856.65 71.0800   1
   4 -20   1 1495.92 60.5100   1
   4 -20  -1 1426.04 57.2300   1
   4 -20  -1 1427.18 54.7000   1
   4 -20   1 1417.33 48.6300   1
   0  -8  -8 120.280 32.0900   1
   0   8   8 92.8700 28.2400   1
   0  -8   8 152.910 24.4300   1
   0  -8  -8 80.0800 22.3900   1
   0  -8  -8 98.5500 22.3900   1
  -2 -12  -7 839.860 53.3800   1
  -2 -12  -7 815.770 44.4700   1
  -2  12   7 1036.70 56.3200   1
   2  12   7 861.880 53.0200   1
   2 -12  -7 838.890 62.3100   1
  -2 -12  -7 1038.91 75.2700   1
   2 -12  -7 933.100 60.0400   1
   2 -12  -7 1191.49 49.8100   1
   2 -12   7 978.090 45.9400   1
  -2 -12   7 1182.16 54.0200   1
  -2 -12  -7 925.550 44.2300   1
   6  10   7 220.040 37.5100   1
  -6 -10  -7 160.510 28.2300   1
   6 -10   7 263.150 28.5800   1
  -6 -10   7 364.390 38.5900   1
   6 -10  -7 192.640 27.0900   1
  -6 -10  -7 131.670 34.1400   1
  -6 -10  -7 172.050 32.0600   1
   6 -10   7 208.770 39.9200   1
  -6  10   7 163.860 22.7200   1
   6 -10  -7 158.040 26.5500   1
  11 -16   1 177.560 23.9800   1
  11  16  -1 208.800 21.4800   1
  11  16   1 237.450 24.4400   1
  11 -16  -1 122.130 27.8100   1
 -11 -16  -1 153.710 32.1300   1
 -11 -16   1 174.230 26.1100   1
  11 -16  -1 166.020 23.6300   1
  17  -5  -1 623.240 37.6600   1
  17   5   1 577.050 35.5100   1
  17  -5   1 605.400 35.0500   1
  17   5  -1 743.530 35.2600   1
  17  -5   1 564.480 35.3200   1
   8 -17  -3 135.600 26.5100   1
   8 -17  -3 153.170 27.6800   1
   8 -17  -3 112.540 19.7400   1
   8  17   3 128.910 17.2600   1
   8  17  -3 231.230 23.7600   1
  -8 -17   3 227.760 44.6500   1
   8 -17   3 124.030 26.2200   1
  -8 -17  -3 148.920 27.6600   1
  -8 -17   3 180.650 35.2800   1
  16   5  -3 1147.86 51.1300   1
  16   5   3 955.540 43.3100   1
  16  -5  -3 1067.13 54.6600   1
  16  -5  -3 802.810 46.5200   1
  16  -5   3 1148.15 66.4500   1
  16  -5   3 1117.66 61.9100   1
   2 -20   2 501.510 31.3100   1
   2 -20  -2 389.760 34.4500   1
  -2 -20   2 510.730 31.8600   1
   2 -20  -2 523.540 32.0600   1
   2 -20  -2 545.340 39.5100   1
  -2 -20  -2 599.930 36.3400   1
   2 -20   2 734.500 44.1400   1
  -2 -20   2 515.450 32.2300   1
   2 -20   2 496.020 37.9100   1
  -2 -20  -2 500.780 35.3700   1
   2 -20  -2 559.990 45.8900   1
  -2 -20  -2 441.980 32.6300   1
  -2 -20   2 614.000 43.4900   1
   7 -19   0 1994.42 63.1300   1
  -7 -19   0 2207.55 82.2500   1
   7 -19   0 2257.93 97.4200   1
  -7 -19   0 2771.40 95.3400   1
   7 -19   0 2425.99 86.3500   1
   7  19   0 2478.19 59.7100   1
 -13 -14   0 32.2900 24.3600   1
  13  14   0 124.370 36.2100   1
  13 -14   0 123.640 30.1500   1
  12 -15  -1 36.4800 20.2000   1
 -12 -15  -1 37.0600 28.6800   1
 -12 -15   1 43.6900 25.4300   1
  12  15  -1 98.6900 23.4000   1
  12 -15   1 70.0000 23.5900   1
  12 -15  -1 78.6700 24.7500   1
  12  15   1 49.8300 21.2800   1
  17  -3   2 68.1400 23.7300   1
  17   3  -2 34.2600 19.5600   1
  17  -3   2 66.9000 25.3100   1
  17   3   2 78.2400 27.6200   1
  17  -3  -2 48.5100 25.9400   1
  -1  -8  -8 417.920 35.1900   1
  -1  -8  -8 643.790 44.6600   1
  -1  -8  -8 711.430 43.8500   1
   1  -8  -8 418.610 35.6000   1
  -1  -8  -8 499.890 43.5600   1
   1  -8   8 779.880 43.8500   1
   1  -8   8 532.370 36.5300   1
  -1  -8   8 553.620 39.4800   1
  -1  -8   8 528.510 50.6800   1
  -1   8   8 836.000 48.5700   1
   1   8   8 559.800 42.7400   1
   1  -8  -8 400.740 39.9600   1
  -6  -4   8 1067.41 45.0400   1
  -6   4   8 925.780 45.2600   1
   6   4   8 1182.44 69.4200   1
   6  -4   8 950.370 68.9800   1
  -6  -4  -8 641.440 47.4800   1
  -6   4  -8 833.400 68.6800   1
   6  -4  -8 893.170 48.9400   1
  -6   4  -8 763.050 41.0700   1
  -6  -4  -8 882.330 45.6100   1
   6 -17  -4 238.650 29.9200   1
   6  17  -4 269.310 24.1800   1
   6 -17  -4 225.150 30.4200   1
   6 -17   4 225.010 30.7900   1
   6  17   4 254.260 22.9700   1
  -6  17   4 152.560 21.4700   1
  -6 -17   4 390.930 47.6000   1
  -6 -17   4 231.750 28.6900   1
  -6 -17  -4 202.990 29.2800   1
   6 -17  -4 270.890 34.2300   1
  11 -11   5 803.810 56.1000   1
  11  11   5 674.600 36.5300   1
  11  11  -5 844.670 35.0000   1
 -11  11   5 993.180 47.7200   1
  11 -11  -5 601.800 35.4100   1
 -11 -11  -5 838.860 36.2700   1
   0 -15  -6 0.79000 26.2700   1
   0 -15  -6 9.14000 23.3700   1
   0  15   6 -7.1000 24.1200   1
   0 -15   6 18.6700 27.0700   1
   0 -15  -6 14.1800 18.6300   1
   0 -15   6 20.5900 23.1600   1
   0 -15  -6 39.7800 29.6500   1
  15  11   0 316.400 36.6300   1
 -15 -11   0 254.350 36.0700   1
  15 -11   0 218.260 34.3200   1
   8  -8  -7 117.150 30.0500   1
   8  -8   7 134.190 24.1400   1
  -8  -8  -7 87.0700 24.3500   1
  -8  -8  -7 124.040 27.3200   1
  -8   8   7 180.970 25.6100   1
  -8  -8   7 81.2800 21.0400   1
  -8  -8   7 144.700 33.9600   1
   1 -15  -6 2497.17 88.2700   1
  -1  15   6 2477.50 112.660   1
   1 -15  -6 2707.03 89.0400   1
   1  15   6 1903.58 98.3000   1
  -1 -15  -6 2253.91 90.4700   1
   1 -15  -6 3133.99 82.1700   1
  -1 -15  -6 3030.69 76.9600   1
  -1 -15  -6 2450.60 93.2100   1
   1 -15  -6 2499.40 91.7500   1
   0 -17   5 658.180 37.2900   1
   0 -17  -5 680.540 57.8900   1
   0 -17  -5 639.460 37.4900   1
   0 -17  -5 497.570 38.3900   1
   0 -17  -5 552.040 42.8500   1
   0  17   5 316.780 34.6700   1
   0 -17   5 667.080 48.9900   1
  -7   0  -8 3.38000 18.8400   1
  -7   0  -8 19.0200 25.2600   1
  -7   0  -8 10.0000 18.7700   1
  -7   0   8 18.5500 18.5500   1
 -10  -4  -7 1603.02 46.8500   1
 -10  -4  -7 1486.97 62.6000   1
 -10   4   7 1881.18 56.7000   1
 -10  -4  -7 1216.03 75.6000   1
  10  -4   7 1811.68 81.4000   1
  10  -4  -7 1659.64 62.7300   1
 -15 -10  -2 386.970 32.1900   1
  15  10  -2 506.360 30.5100   1
  15 -10   2 429.690 33.3500   1
  15 -10  -2 473.260 37.2300   1
  15 -10  -2 404.750 41.9400   1
  15  10   2 476.090 28.1300   1
  -7   1  -8 3087.02 104.660   1
  -7  -1  -8 3452.32 82.2400   1
  -7   1  -8 3700.07 75.3800   1
   7  -1  -8 3349.70 86.2800   1
  10  17  -1 31.2200 18.5900   1
  10 -17   1 10.4300 23.9100   1
  10 -17  -1 16.9000 23.6200   1
 -10 -17   1 0.68000 24.7900   1
  10 -17  -1 16.8300 25.2900   1
 -10 -17  -1 24.0400 25.5600   1
  10  17   1 49.6500 32.5100   1
  -1 -17  -5 116.800 25.0100   1
   1 -17  -5 124.420 26.1100   1
   1 -17  -5 65.6400 16.6400   1
  -1 -17  -5 100.370 24.2000   1
   1 -17  -5 98.6200 22.5700   1
  -1 -17  -5 76.3600 24.4500   1
   1 -17  -5 127.830 29.0100   1
  -1 -17  -5 120.140 25.4100   1
  -1 -17   5 171.710 30.0400   1
   1 -17   5 87.0300 20.8300   1
   1 -17   5 86.4400 28.4100   1
  -1 -17   5 137.650 33.9600   1
  -5 -16  -5 50.1600 22.0100   1
  -5  16   5 50.2400 20.7100   1
   5  16   5 39.7300 25.3400   1
   5 -16  -5 47.9900 23.5200   1
  -5 -16  -5 46.9000 27.8800   1
   5 -16  -5 38.5900 25.3600   1
   5 -16   5 57.6900 25.4300   1
   5 -16  -5 76.7900 26.4100   1
  -5 -16  -5 28.7400 29.5500   1
  -5 -16   5 67.7500 32.3600   1
 -12 -12  -4 1775.02 51.9700   1
 -12  12   4 1818.81 52.0100   1
  12  12   4 1718.56 49.1200   1
  12 -12   4 1806.13 72.9400   1
  12 -12  -4 1647.68 63.6200   1
  12  12  -4 1952.95 49.2400   1
  12 -12  -4 1537.98 62.8600   1
 -16  -9   0 1087.95 49.6100   1
  16   9   0 1313.31 46.0400   1
  16  -9   0 1429.47 63.1600   1
  -6 -19   2 637.710 35.7200   1
  -6 -19  -2 669.600 49.8700   1
   6 -19   2 570.720 41.3200   1
   6 -19  -2 595.960 48.2800   1
   6  19   2 710.560 36.7400   1
   6  19  -2 739.830 36.4900   1
   6 -19  -2 658.510 40.0800   1
   6 -19   2 729.510 49.1300   1
  -6 -19  -2 672.250 39.2300   1
  -6 -19   2 958.300 51.3500   1
   6 -19  -2 683.740 38.6100   1
  -2  -8  -8 103.020 25.0300   1
   2  -8  -8 93.3000 25.2700   1
  -2  -8  -8 126.750 26.8000   1
   2  -8   8 155.060 23.1500   1
  -2  -8   8 193.420 33.9400   1
  -2  -8   8 137.780 22.4600   1
  -2   8   8 150.560 25.9000   1
   2   8   8 128.170 30.1000   1
   2  -8   8 132.000 27.3000   1
   2  -8  -8 88.9100 24.7400   1
  -2  -8  -8 85.0900 19.4300   1
  -2  -8  -8 99.8300 23.5100   1
  17   6   0 3317.60 81.5100   1
  17  -6   0 2854.08 92.4000   1
 -17  -6   0 3047.40 91.2700   1
  17  -6   0 2719.63 79.5400   1
   5 -11  -7 702.310 43.9400   1
  -5 -11  -7 729.130 53.8400   1
   5  11   7 1364.30 92.0500   1
  -5  11   7 958.440 45.9000   1
   5 -11   7 946.820 82.9200   1
  -5 -11   7 1110.22 54.0300   1
   5 -11  -7 939.260 48.9600   1
  -5 -11  -7 694.650 40.9300   1
  -5 -11  -7 699.990 52.1600   1
   5 -11  -7 799.740 58.4600   1
   5 -11   7 1069.81 56.1600   1
  -7 -19  -1 36.1800 26.9600   1
  -7 -19   1 -4.5500 25.7700   1
   7 -19  -1 -1.9700 25.7400   1
   7 -19  -1 16.3200 17.8800   1
   7 -19   1 13.9700 24.3800   1
  -7 -19  -1 14.2600 35.4100   1
  -7 -19   1 2.92000 28.4400   1
   7  19  -1 4.25000 25.8500   1
   7  19   1 50.3500 21.1900   1
   7 -19   1 -3.9700 23.3800   1
   7 -19  -1 13.5700 24.8500   1
 -13 -14  -1 172.140 26.3100   1
 -13 -14  -1 184.690 29.7300   1
  13 -14   1 210.120 24.2000   1
  13  14  -1 212.290 21.5600   1
 -13 -14   1 178.070 33.4000   1
  13  14   1 284.260 26.1000   1
  13 -14  -1 132.160 20.8200   1
  13 -14  -1 209.030 27.7100   1
   4 -19  -3 13.0300 26.2000   1
   4 -19  -3 -12.350 23.7700   1
   4 -19   3 21.9600 21.3700   1
  -4 -19   3 5.67000 23.1000   1
  -4 -19  -3 43.5500 30.7300   1
   4 -19   3 -19.130 24.6400   1
  -4 -19   3 17.5000 31.5600   1
   4 -19  -3 32.3600 20.2100   1
   4  19   3 1.68000 15.2000   1
  -4 -19  -3 20.1700 17.6700   1
  -5   6   8 1243.16 53.7400   1
  -5  -6  -8 895.920 60.0900   1
   5   6   8 1211.30 73.3000   1
   5  -6   8 1206.27 71.6900   1
  -5  -6   8 1133.31 47.4700   1
  -5  -6   8 1096.04 59.7500   1
  -5  -6  -8 839.030 51.3900   1
   5  -6  -8 863.600 48.5900   1
  -5 -20   0 1550.61 64.4400   1
   5 -20   0 1246.54 59.7000   1
  -5 -20   0 1234.84 59.8600   1
   5 -20   0 1513.17 81.2700   1
   5 -20   0 1343.55 47.8200   1
   5  20   0 1505.83 54.6100   1
   7  15   5 79.7800 27.7500   1
  -7  15   5 143.530 24.9000   1
  -7 -15  -5 55.1000 29.8400   1
   7 -15  -5 94.5600 27.3700   1
   7 -15  -5 116.880 22.4500   1
   7 -15  -5 109.420 26.4000   1
   7 -15   5 188.920 27.6300   1
   7  15  -5 169.720 23.9100   1
  -7 -15   5 224.370 32.8800   1
   8  18   2 2009.11 50.3400   1
  -8 -18  -2 2185.58 77.4700   1
   8 -18  -2 1754.06 60.8600   1
   8 -18  -2 1725.50 51.9400   1
  -8 -18   2 2381.69 83.2300   1
   8  18  -2 2542.49 75.3400   1
  -8 -18   2 2246.56 77.3600   1
  -8 -18  -2 2126.95 93.7200   1
   8 -18   2 2207.23 78.2500   1
   8 -18  -2 2090.26 81.6600   1
   4  -7  -8 3734.64 134.410   1
  -4  -7  -8 2551.68 99.9000   1
   4  -7   8 3189.99 90.0900   1
  -4  -7   8 3748.29 98.6000   1
  -4   7   8 3581.28 106.670   1
   4   7   8 4017.32 129.340   1
  -4  -7   8 3647.32 94.3900   1
   4  -7   8 3592.45 118.530   1
  -4  -7  -8 2838.41 95.7300   1
  -3 -12  -7 289.260 29.1000   1
  -3 -12  -7 433.000 43.5000   1
   3 -12  -7 390.720 31.1100   1
   3 -12  -7 397.520 40.6600   1
  -3 -12  -7 328.060 35.5000   1
  -3 -12   7 570.200 43.4800   1
   3 -12   7 348.860 30.4400   1
  -3  12   7 387.710 39.2800   1
  -3 -12  -7 449.360 32.8900   1
   3  12   7 414.120 41.6500   1
   3 -12  -7 275.860 27.3400   1
   8 -16  -4 3316.90 85.6100   1
  -8  16   4 2835.02 73.9900   1
   8  16   4 2965.39 63.1300   1
  -8 -16  -4 2751.42 89.7300   1
   8 -16   4 2952.10 80.7600   1
  -8 -16   4 3406.92 87.1600   1
   8 -16  -4 2993.02 92.5000   1
  -5 -14  -6 404.440 37.2900   1
   5 -14   6 319.390 29.7700   1
  -5 -14   6 515.730 46.1100   1
  -5  14   6 352.930 32.9000   1
   5  14   6 473.630 58.5000   1
   5 -14  -6 299.040 35.3300   1
   5 -14  -6 458.710 35.3100   1
   5 -14  -6 366.240 39.1200   1
  -5 -14  -6 242.430 30.5900   1
  -5 -14  -6 302.000 31.2900   1
  11  -8   6 3044.65 84.9200   1
  11   8  -6 2730.13 60.5300   1
  11   8   6 2778.40 81.2000   1
 -11  -8   6 3523.16 73.8700   1
 -11   8   6 3245.44 65.7300   1
 -11  -8  -6 2540.47 96.1700   1
 -11  -8  -6 3446.79 76.8100   1
  11  -8  -6 2851.86 91.2400   1
  -3 -20  -2 3414.30 108.450   1
   3 -20  -2 2947.78 114.070   1
   3 -20  -2 3083.14 93.7200   1
   3 -20   2 3424.31 86.7500   1
   3 -20   2 3495.46 114.910   1
  -3 -20   2 3524.85 91.6300   1
  -3 -20  -2 3830.28 86.8800   1
  -3 -20   2 3306.71 80.7500   1
   3 -20  -2 3334.54 82.6300   1
  -2 -15   6 88.2900 32.1700   1
   2 -15  -6 85.2700 20.3600   1
  -2 -15  -6 22.5700 24.8000   1
   2 -15  -6 91.7600 23.0900   1
  -2 -15  -6 60.0300 23.3400   1
  -2  15   6 80.2300 22.7500   1
  -2 -15  -6 53.8400 24.6500   1
   2 -15  -6 79.0600 24.1900   1
  -2 -15  -6 27.5100 22.7500   1
   2  15   6 57.6700 27.2500   1
   2 -15   6 92.7400 28.1800   1
  -7  -2  -8 50.0600 20.9300   1
   7  -2  -8 65.4600 26.9600   1
  -7   2  -8 79.8700 25.4500   1
  -7  -2  -8 48.8200 25.8000   1
  -7  -2   8 37.7500 18.1600   1
  -7   2   8 55.0100 22.0700   1
  -7  -2  -8 80.6700 26.1500   1
  -7   2  -8 26.1000 21.3200   1
   7   2   8 18.7300 34.9900   1
  -9 -18   0 1577.32 63.1100   1
   9 -18   0 1627.48 66.8500   1
   9 -18   0 1224.35 54.3000   1
   9  18   0 1219.63 39.8100   1
 -15 -11   1 733.870 41.1000   1
 -15 -11  -1 718.620 44.4900   1
  15  11   1 820.310 35.2100   1
  15  11  -1 780.850 33.4500   1
  15 -11   1 703.880 44.8200   1
  15 -11  -1 809.650 46.9600   1
  17  -4   2 2477.56 94.5000   1
  17   4  -2 2862.37 73.1300   1
  17  -4   2 2538.96 88.5400   1
  17  -4  -2 2223.24 76.5200   1
  17   4   2 2605.50 76.0000   1
  14 -12  -2 998.160 55.5400   1
  14 -12   2 1045.79 50.9300   1
  14  12  -2 1270.05 44.0300   1
  14  12   2 1249.22 44.7000   1
 -14 -12  -2 963.910 48.2600   1
  14 -12  -2 810.800 51.8800   1
 -14 -12  -2 1076.28 44.2900   1
  15   6  -4 1340.91 48.2900   1
  15  -6  -4 1610.19 74.7600   1
 -15   6   4 1158.83 45.8800   1
  15  -6  -4 1055.70 54.6000   1
  15   6   4 1187.35 46.6000   1
  15  -6   4 1384.57 64.7100   1
  -2 -17   5 86.7000 28.7700   1
  -2  17   5 39.2500 19.6700   1
   2 -17  -5 37.7600 19.3800   1
  -2 -17   5 55.4000 25.3000   1
   2 -17  -5 28.5000 19.8200   1
  -2 -17  -5 -7.2400 28.8400   1
   2 -17  -5 20.1500 28.6200   1
  -2 -17  -5 4.20000 24.4700   1
  -2 -17  -5 33.4900 22.2300   1
  -2 -17  -5 38.5100 26.8000   1
   2 -17   5 87.9800 27.6800   1
  14   5  -5 1707.20 51.1900   1
 -14   5   5 2154.96 63.6500   1
  14  -5   5 1908.46 70.0800   1
 -14  -5   5 1792.85 53.5700   1
  14   5   5 1570.74 54.6900   1
   8 -12  -6 843.630 52.7000   1
  -8 -12  -6 925.840 52.0600   1
  -8 -12  -6 827.270 58.0200   1
   8  12  -6 1053.07 39.2200   1
  -8 -12   6 1428.15 83.4100   1
   8 -12   6 1005.61 49.9900   1
  -8  12   6 1012.83 47.6000   1
  -8 -12  -6 844.660 50.9100   1
   8  12   6 900.930 66.7200   1
   4 -18  -4 142.050 29.0400   1
   4 -18  -4 102.310 24.9700   1
   4  18   4 92.3600 18.5400   1
   4 -18   4 134.040 25.8400   1
  -4 -18   4 121.740 32.4600   1
   4 -18  -4 123.790 30.9600   1
  -4 -18  -4 120.090 31.4500   1
   4 -18   4 96.9200 22.8900   1
  -4 -18  -4 84.3000 21.6500   1
  -4 -18   4 139.180 28.9200   1
   9 -11   6 173.720 22.9700   1
  -9  11   6 255.880 27.9400   1
   9 -11  -6 187.650 30.4700   1
  -9 -11  -6 198.260 26.6500   1
   9  11  -6 253.680 25.3400   1
  13   0   6 12.8700 23.0400   1
  13   0   6 -22.150 20.5900   1
 -13   0   6 -14.530 20.2400   1
  13   1   6 3539.41 107.850   1
 -13   1   6 4255.27 77.1300   1
 -13  -1   6 3891.74 69.8500   1
  13  -1   6 3696.53 95.4900   1
  -6   5  -8 1723.23 60.9300   1
  -6  -5  -8 1856.01 84.3500   1
   6   5   8 2538.50 107.430   1
  -6   5   8 2202.59 70.8300   1
  -6  -5  -8 1614.14 70.0400   1
   6  -5   8 1636.76 82.8700   1
   6  -5  -8 1745.24 62.3800   1
  13  -8   5 3308.49 96.2500   1
  13   8  -5 3719.73 75.1800   1
 -13  -8   5 4274.49 97.8600   1
  13   8   5 3419.14 90.2500   1
  13  -8  -5 3151.78 86.9800   1
 -13  -8  -5 3947.94 79.5900   1
  14  13   0 386.380 25.3800   1
 -14 -13   0 377.910 34.4000   1
  14 -13   0 386.560 70.8000   1
  12  -6   6 51.2200 26.6400   1
 -12  -6   6 41.3700 18.5500   1
 -12   6   6 30.8400 20.3900   1
 -12  -6  -6 18.1800 20.5900   1
  12   6   6 18.7400 19.3500   1
  12  -6  -6 13.6600 25.7400   1
 -12  -6  -6 16.0400 19.5700   1
 -16  -9  -1 973.260 74.3000   1
  16   9   1 1205.78 47.1000   1
  16   9  -1 1362.47 47.3700   1
  16  -9   1 1373.49 66.8800   1
  16  -9  -1 1443.62 64.3000   1
  16  -8  -2 110.320 28.4200   1
  16  -8   2 99.5200 24.3500   1
  16   8  -2 141.180 24.1300   1
  16   8   2 74.2800 19.6700   1
  16  -8  -2 66.7400 21.2300   1
  -9  -7   7 0.81000 22.0700   1
  -9   7   7 23.1300 20.0300   1
  -9  -7  -7 -11.750 23.7000   1
   9  -7  -7 49.9300 20.8900   1
  -9  -7  -7 -43.580 28.2600   1
  -9  -7  -7 1.65000 20.5100   1
   9  -7   7 -9.3500 17.2100   1
  17  -6  -1 5.87000 20.8700   1
  17  -6   1 -2.4600 24.5400   1
  17  -6  -1 42.7100 22.7600   1
  17  -6   1 38.5300 25.7000   1
  17   6  -1 35.2900 24.8200   1
  17   6   1 -18.620 19.3400   1
  16  -6   3 141.670 28.5800   1
  16   6  -3 121.000 24.1800   1
  16   6   3 81.8500 23.3500   1
  16  -6  -3 87.8200 26.1800   1
  16  -6  -3 68.8600 22.6500   1
  -5 -20   1 259.520 24.9700   1
  -5 -20  -1 260.640 31.6700   1
   5  20  -1 277.070 22.7900   1
   5 -20   1 243.510 29.4900   1
   5 -20  -1 296.510 38.5300   1
   5 -20  -1 216.740 24.6500   1
   5 -20   1 294.250 30.5700   1
   5  20   1 295.710 26.5500   1
   5 -20  -1 251.740 27.4900   1
   5 -20   1 279.750 28.6400   1
  -5 -20  -1 352.880 34.0000   1
  -5 -20   1 291.320 31.6000   1
  12  10   5 472.010 31.2600   1
  12  10  -5 783.180 43.8300   1
  12 -10   5 477.830 41.6100   1
  12 -10  -5 352.410 29.7400   1
 -12 -10  -5 490.290 29.3700   1
 -12  10   5 442.070 27.3400   1
  -3  -8  -8 3226.41 125.380   1
   3   8   8 3621.32 127.410   1
  -3   8   8 4102.34 103.730   1
   3  -8  -8 3526.09 111.440   1
  -3  -8  -8 3869.43 98.1300   1
  -3  -8   8 3685.44 98.2000   1
  -3  -8   8 4281.58 119.410   1
   3  -8   8 3176.02 89.1000   1
  -3  -8  -8 3445.29 110.810   1
  -7  -3  -8 2503.45 97.4900   1
  -7  -3  -8 2009.41 81.7200   1
  -7   3  -8 1991.14 86.8600   1
   7  -3  -8 3201.36 103.660   1
   7   3   8 2621.43 117.650   1
   0 -21   0 6.35000 22.0800   1
   0 -21   0 9.61000 28.5900   1
   0 -21   0 1.78000 20.1100   1
   7  13   6 2273.32 98.9900   1
  -7 -13  -6 2134.41 85.0800   1
  -7 -13  -6 2053.59 85.2100   1
  -7 -13   6 3040.06 99.9100   1
  -7  13   6 2419.94 70.0700   1
   7 -13   6 2387.35 83.6200   1
   7 -13  -6 2135.10 81.7900   1
  -7 -13  -6 1959.09 80.4800   1
   7 -13  -6 2052.23 80.0800   1
  13  -2   6 465.130 38.2600   1
  13   2   6 352.110 30.4400   1
  13  -2   6 543.120 44.0200   1
 -13   2  -6 414.650 43.3900   1
 -13   2   6 530.770 28.7800   1
 -13  -2   6 543.340 28.2200   1
 -10  -5  -7 133.560 23.4200   1
 -10  -5  -7 95.1900 25.1400   1
 -10  -5  -7 98.6500 23.0500   1
 -10   5   7 173.210 26.6100   1
 -10  -5   7 174.320 23.4600   1
  10  -5   7 129.440 22.4000   1
  10  -5  -7 99.8800 26.0100   1
  -9 -18   1 352.030 28.7700   1
  -9 -18  -1 327.730 30.2900   1
  -9 -18  -1 303.310 32.1200   1
   9 -18   1 226.600 24.8800   1
   9 -18  -1 307.590 30.1800   1
   9  18   1 320.330 21.9000   1
   9  18  -1 454.930 28.9600   1
  -9 -18  -1 410.970 41.3900   1
  -9 -18   1 391.610 44.4800   1
   9 -18   1 296.860 28.2200   1
   9 -18  -1 315.590 29.7100   1
  14  -9   4 78.9700 27.6700   1
  14   9   4 64.9300 27.2700   1
  14  -9  -4 93.8600 32.3600   1
 -14  -9  -4 54.7400 22.7300   1
 -14   9   4 70.7800 23.0400   1
  14   9  -4 151.920 36.8400   1
  15  -9   3 97.0200 25.2200   1
  15  -9  -3 39.4800 17.0800   1
  15  -9  -3 73.9900 23.0500   1
  15   9   3 117.110 24.7500   1
  15   9  -3 107.660 24.4200   1
 -14 -11  -3 3548.99 79.8000   1
  14 -11   3 2759.06 91.3700   1
  14  11   3 3487.61 82.7100   1
  14 -11  -3 2743.43 82.6800   1
  -3 -15  -6 52.1300 24.8600   1
   3 -15  -6 8.54000 21.1000   1
   3  15   6 -2.1600 23.0400   1
  -3 -15  -6 9.01000 30.2700   1
   3 -15  -6 -28.920 27.1800   1
  -3  15   6 -0.5700 19.0500   1
  -3 -15   6 -13.920 26.6700   1
  -3 -15  -6 39.8200 38.7300   1
   3 -15   6 -12.710 26.6700   1
   3 -15  -6 30.5300 25.2400   1
  -3 -15  -6 1.13000 26.8700   1
  10 -10   6 271.480 26.3500   1
  10 -10  -6 272.020 28.3800   1
  10  10  -6 325.880 28.9800   1
 -10  10   6 325.960 26.4400   1
 -10 -10  -6 209.860 29.5300   1
   1 -21   0 533.260 32.4800   1
  -1 -21   0 577.310 46.5300   1
   1 -21   0 595.550 40.1200   1
  -1 -21   0 647.150 36.6300   1
   1 -21   0 645.790 36.4100   1
  -1 -21   0 571.970 35.6900   1
  -7 -18   3 41.0000 24.7400   1
   7  18   3 69.3600 23.9900   1
   7 -18  -3 61.2500 23.3200   1
   7 -18  -3 77.4500 27.7200   1
  -7 -18   3 110.750 33.5300   1
   7  18  -3 62.5600 23.5200   1
   7 -18  -3 37.9000 23.9500   1
   7 -18   3 83.5800 25.9100   1
  -7 -18  -3 10.0200 19.6600   1
  11  15   3 1466.93 46.8900   1
  11  15  -3 1550.84 46.5100   1
  11 -15   3 1330.86 60.5800   1
  11 -15  -3 1573.19 76.6200   1
 -11 -15   3 1443.75 55.5500   1
 -11 -15  -3 1312.45 68.3900   1
  11 -15  -3 1189.98 61.9000   1
 -11  15   3 1700.80 64.1700   1
  16   0   4 960.100 55.7100   1
  16   0  -4 976.750 48.8900   1
   3 -17  -5 4614.76 89.8600   1
   3 -17   5 4423.68 107.050   1
   3 -17  -5 4022.82 127.840   1
  -3 -17  -5 3613.08 118.970   1
   3 -17  -5 3725.22 118.880   1
  -3 -17  -5 3828.89 108.540   1
  -3 -17   5 4932.28 97.9300   1
  16  -1   4 142.660 25.5500   1
  16   1   4 118.220 26.5200   1
  16  -1   4 196.430 28.7000   1
  16  -1  -4 175.660 22.3300   1
  16   1  -4 151.460 22.5200   1
 -14 -13   1 194.310 28.3700   1
 -14 -13  -1 248.670 33.0800   1
 -14 -13  -1 220.650 23.5100   1
  14  13   1 247.760 26.4800   1
  14 -13   1 179.450 27.0700   1
  14 -13  -1 243.860 31.9200   1
  14  13  -1 217.230 22.5500   1
 -13  11   4 481.280 40.5300   1
  13 -11   4 292.770 29.4300   1
  13  11  -4 560.660 33.3200   1
  13  11   4 420.700 28.2100   1
 -13 -11  -4 482.620 33.4500   1
  13 -11  -4 313.890 31.9900   1
   4  12   7 2043.02 88.7600   1
   4 -12   7 2098.40 78.6900   1
  -4 -12   7 2489.22 78.0800   1
  -4  12   7 2108.65 78.4100   1
   4 -12  -7 1777.48 94.7500   1
  -4 -12  -7 1796.99 91.3200   1
  -4 -12  -7 2165.26 81.1600   1
   4 -12  -7 2504.70 77.8400   1
   4 -12  -7 1775.88 74.5700   1
  -4 -12  -7 1899.96 89.3500   1
  10 -16  -3 3193.26 108.680   1
  10 -16  -3 3334.00 90.3000   1
  10  16   3 4143.19 80.3800   1
 -10 -16  -3 3644.41 101.670   1
 -10 -16   3 4130.91 102.480   1
  10 -16   3 3428.49 98.8200   1
  10  16  -3 4069.58 71.1500   1
  -4 -20   2 251.810 29.0100   1
   4 -20  -2 252.380 26.0800   1
   4 -20  -2 181.200 24.0200   1
  -4 -20   2 358.620 41.3700   1
   4 -20  -2 277.720 28.2400   1
   4 -20   2 290.130 28.8900   1
  -4 -20   2 280.890 29.2700   1
   4 -20  -2 262.360 33.0000   1
   4 -20   2 313.630 29.4800   1
   4 -20   2 250.050 30.3600   1
  -4 -20  -2 248.540 29.7700   1
   0  -9   8 6.93000 20.7100   1
   0  -9   8 -15.200 25.8500   1
   0  -9  -8 -16.030 19.5900   1
   0  -9  -8 15.8300 18.2400   1
   0  -9  -8 20.8800 19.6200   1
   0  -9  -8 23.2600 22.7600   1
   0   9   8 -26.170 21.1700   1
 -11   0   7 -4.0600 25.2700   1
 -11   0  -7 -4.4800 26.7700   1
  11 -16  -2 136.040 23.9500   1
  11 -16   2 157.840 25.0100   1
  11  16  -2 255.480 28.2900   1
  11  16   2 237.770 25.9400   1
 -11 -16  -2 183.690 28.6400   1
 -11 -16   2 212.070 30.7800   1
  11 -16  -2 148.630 23.2600   1
  17  -5   2 110.720 29.1100   1
  17  -5  -2 184.520 28.3100   1
  17   5   2 185.970 28.3300   1
  17   5  -2 226.780 25.3000   1
  17  -5   2 207.110 28.7900   1
  12  14  -3 286.870 25.5500   1
 -12 -14  -3 199.760 28.8900   1
  12 -14  -3 167.920 34.2700   1
  12  14   3 289.100 23.8100   1
  12 -14   3 242.400 27.7100   1
  12 -14  -3 218.690 28.7200   1
  18   0   0 302.700 25.8600   1
 -12 -15  -2 35.2500 26.8200   1
  12 -15  -2 68.5100 22.0600   1
  12 -15   2 69.6300 26.5000   1
  12  15  -2 70.1300 23.7600   1
  12  15   2 18.7300 16.5000   1
  12 -15  -2 61.9900 27.5700   1
 -12 -15   2 81.7700 32.3600   1
 -12 -15  -2 50.0800 21.1100   1
  -7 -10   7 2867.04 91.2700   1
   7 -10   7 2599.23 77.5600   1
  -7 -10  -7 1916.76 79.9700   1
  -7 -10  -7 2480.65 88.7100   1
   7  10   7 2406.84 116.780   1
  -7  10   7 2448.96 74.5000   1
   7 -10  -7 1920.01 64.0100   1
 -11  -1  -7 1571.77 74.6700   1
 -11  -1   7 2122.11 56.0500   1
 -11   1  -7 1783.90 93.4400   1
  13   3   6 1001.74 50.6100   1
  13  -3   6 882.760 52.9300   1
 -13  -3   6 1189.33 46.6300   1
  13  -3  -6 981.130 53.3100   1
  13  -3   6 1009.54 60.7100   1
   1  -9  -8 353.040 29.5000   1
  -1  -9  -8 342.480 39.0600   1
  -1  -9  -8 254.340 30.5500   1
   1  -9  -8 335.080 36.7800   1
   1   9   8 379.400 48.5900   1
   1  -9  -8 330.810 34.9300   1
  -1   9   8 356.160 33.8300   1
  -1  -9   8 392.010 39.0800   1
  -1  -9   8 384.470 34.6400   1
   1  -9   8 434.290 39.6900   1
  -1  -9  -8 306.640 34.1300   1
  -1  -9  -8 357.150 34.8100   1
   1  -9   8 401.800 32.5400   1
 -17  -7   0 124.710 26.7800   1
  17   7   0 143.980 23.9300   1
  17  -7   0 164.080 25.1800   1
  17  -7   0 132.700 23.3500   1
   2 -21   0 1346.28 70.4400   1
  -2 -21   0 1432.12 65.0500   1
   2 -21   0 1510.99 58.3400   1
  -2 -21   0 1642.49 69.9500   1
   2 -21   0 1441.13 68.0400   1
  -2 -21   0 1348.77 71.0200   1
   5 -19   3 1168.36 60.4600   1
  -5 -19   3 1692.25 92.9900   1
   5 -19  -3 1005.58 72.9400   1
   5 -19  -3 1365.91 62.0300   1
   5 -19  -3 1226.06 70.9400   1
  -5 -19  -3 1094.08 56.3300   1
   5 -19   3 893.940 53.6700   1
  -5 -19   3 1075.92 47.5000   1
   5  19   3 1284.80 58.9400   1
  18   1   0 95.3400 26.2400   1
  18  -1   0 77.6900 24.3200   1
   0 -21  -1 4049.15 131.310   1
   0 -21   1 4248.40 140.420   1
   0 -21  -1 4003.25 136.090   1
   0 -21   1 4209.99 128.810   1
   0 -21   1 4996.19 149.540   1
  16  -2  -4 721.230 44.1200   1
  16   2   4 463.580 36.6500   1
  16  -2   4 638.930 41.1600   1
  16   2  -4 899.430 55.7900   1
  16  -2   4 678.550 47.3100   1
   5  -7  -8 173.800 24.4700   1
  -5  -7  -8 161.030 22.8300   1
  -5  -7  -8 198.580 29.4100   1
   5  -7   8 228.580 35.9000   1
  -5   7   8 255.680 27.9100   1
  -5  -7   8 204.090 22.4100   1
  -5  -7   8 255.120 29.7300   1
   5   7   8 250.670 36.4500   1
  -7  -4   8 321.520 25.1400   1
  -7   4   8 289.870 26.6300   1
   7   4   8 279.940 33.1400   1
  -7  -4  -8 199.020 27.8700   1
  -7   4  -8 163.140 25.1700   1
  -7  -4  -8 242.930 29.9900   1
  -7   4  -8 262.720 23.6800   1
   7  -4  -8 246.910 27.6100   1
  -7 -17   4 6789.64 114.800   1
  -7 -17  -4 6295.24 129.160   1
   7 -17  -4 5952.50 153.330   1
   7 -17  -4 5290.90 148.530   1
  -7  17   4 5334.97 149.180   1
   7  17   4 6492.72 94.5500   1
   7  17  -4 6559.28 101.800   1
   7 -17   4 6331.89 123.340   1
   0 -13  -7 332.490 37.5500   1
   0 -13   7 528.730 40.0400   1
   0  13   7 327.940 38.2600   1
   0 -13  -7 435.810 38.4500   1
   0 -13  -7 506.210 36.5400   1
   0 -13  -7 571.140 55.4700   1
  -8  -9  -7 2737.50 113.650   1
  -8  -9   7 4242.15 122.460   1
   8  -9  -7 3090.18 107.950   1
  -8   9   7 3994.69 120.330   1
  -8  -9  -7 3084.03 118.620   1
   8  -9   7 3005.04 113.690   1
  -6 -16  -5 727.300 48.4100   1
   6 -16  -5 953.460 49.9000   1
   6 -16  -5 805.810 64.0500   1
  -6 -16  -5 787.200 53.4000   1
   6 -16   5 975.890 57.8100   1
  -6  16   5 634.520 50.4200   1
   6 -16  -5 720.550 42.8600   1
  -6 -16  -5 556.760 43.9400   1
 -14   6   5 171.630 28.3100   1
 -14  -6   5 151.750 22.6400   1
  14   6   5 98.9200 20.2100   1
  14   6  -5 136.330 21.3400   1
  14  -6   5 131.570 26.5000   1
  14  -6  -5 122.910 23.3500   1
   1 -21  -1 239.930 24.5700   1
   1 -21   1 348.180 33.2600   1
  -1 -21  -1 318.160 33.4800   1
  -1 -21  -1 232.100 26.0300   1
  -1 -21  -1 230.510 26.8400   1
   1 -21  -1 237.950 26.4000   1
   1 -21   1 267.610 31.1700   1
  -1 -21   1 234.510 32.6300   1
  -1 -21   1 267.750 28.1000   1
   1 -21   1 236.070 26.4900   1
  -1 -21   1 286.920 32.3100   1
   1 -21  -1 268.250 38.1500   1
  17   0   3 -10.150 22.9000   1
  17   0  -3 -3.4900 21.1700   1
 -10 -13  -5 120.550 23.7700   1
  10 -13   5 261.290 33.1200   1
  10  13  -5 245.110 25.1800   1
  10  13   5 162.610 20.7500   1
 -10  13   5 131.580 18.9000   1
  10 -13  -5 146.670 26.9000   1
  -1 -13  -7 548.230 45.5600   1
   1  13   7 873.170 63.2400   1
  -1  13   7 721.900 58.6500   1
   1 -13   7 946.140 60.8500   1
  -1 -13   7 1011.58 62.9400   1
   1 -13  -7 611.910 48.3500   1
  -1 -13  -7 869.290 70.1400   1
   1 -13  -7 682.460 49.1600   1
  -1 -13  -7 902.890 44.1500   1
   1 -13  -7 854.030 46.3900   1
  -1 -13  -7 729.680 53.0400   1
   1 -13  -7 732.990 52.3600   1
  11  -2   7 70.7500 21.4100   1
 -11  -2   7 82.5500 21.7300   1
 -11   2   7 144.090 28.0600   1
 -11  -2  -7 69.6800 20.3900   1
 -11  -2  -7 43.3500 22.6800   1
  11  -2  -7 79.8300 27.3700   1
 -11   2  -7 70.0700 21.9900   1
   8 -19   0 826.780 44.5700   1
  -8 -19   0 1154.94 70.8200   1
   8 -19   0 840.050 60.8500   1
  -8 -19   0 881.160 44.2500   1
   8  19   0 1368.27 63.5100   1
  -6 -11  -7 990.520 61.0600   1
   6 -11  -7 1355.03 64.3400   1
   6 -11   7 940.610 80.0800   1
  -6  11   7 1199.65 56.8000   1
   6 -11  -7 873.420 49.3800   1
   6 -11  -7 1022.93 58.6700   1
  -6 -11  -7 924.120 57.2900   1
  -6 -11  -7 1024.30 57.0300   1
   6 -11   7 1168.90 57.8800   1
   6  11   7 1304.57 85.3000   1
  10 -17  -2 116.180 25.2900   1
  10  17   2 201.980 33.9200   1
  10 -17   2 79.9700 25.0200   1
  10  17  -2 66.7800 16.5800   1
  10 -17  -2 120.900 29.6600   1
 -10 -17  -2 85.2000 29.8300   1
 -10 -17   2 104.700 23.3000   1
   6   6   8 131.970 33.6700   1
   6  -6  -8 77.7400 34.4000   1
   6  -6   8 63.9500 25.9000   1
  -6  -6  -8 83.2400 23.9600   1
  -6  -6  -8 70.7300 20.9800   1
  -6   6  -8 23.2100 11.1300   1
  -6  -6   8 99.8900 34.1900   1
  -6  -6   8 102.700 19.0600   1
  -6   6   8 112.060 27.3300   1
   5 -18   4 874.340 56.5800   1
  -5 -18   4 1277.21 77.2300   1
   5  18   4 925.100 45.6300   1
   5 -18  -4 811.700 59.5300   1
  -5 -18  -4 776.470 48.8900   1
  -5 -18   4 1109.11 57.5300   1
   5 -18  -4 1077.60 53.3700   1
  -5 -18  -4 871.330 61.1900   1
   5 -18  -4 840.790 57.2200   1
  15   7  -4 140.280 24.3800   1
  15  -7   4 81.7000 29.4900   1
  15  -7  -4 92.1900 21.6500   1
 -15   7   4 103.250 24.7000   1
  15   7   4 114.350 32.7300   1
   9 -14   5 72.1200 22.4600   1
   9 -14  -5 102.780 28.8100   1
  -9 -14  -5 49.8000 25.5000   1
   9  14   5 67.0500 21.0400   1
   9  14  -5 99.3900 25.6800   1
  -9  14   5 64.9400 20.0900   1
  -6 -20   0 885.960 48.6400   1
   6 -20   0 809.060 54.0800   1
   6 -20   0 893.270 45.6700   1
   6 -20   0 700.730 53.5900   1
  -6 -20   0 591.830 47.9200   1
   6  20   0 1054.65 55.6500   1
  -6 -20   0 725.570 45.6500   1
  18  -2   0 399.050 32.6300   1
  18   2   0 604.760 44.7800   1
  17  -1   3 2571.63 95.8000   1
  17   1   3 2628.73 101.650   1
  17   1  -3 2676.29 93.1700   1
  17  -1  -3 3123.70 111.040   1
   4  -8   8 3.07000 28.2200   1
  -4  -8  -8 14.2700 27.0700   1
   4   8   8 34.3500 30.1500   1
  -4  -8  -8 -9.6300 22.1300   1
  -4   8   8 36.4200 27.3100   1
  -4  -8  -8 46.3700 35.3500   1
  -4  -8   8 10.9100 18.9600   1
  -4  -8   8 56.9500 28.4200   1
   4  -8   8 17.9700 17.7000   1
   4  -8  -8 -9.4900 21.5700   1
  -4  -8  -8 -7.4100 23.1800   1
  -6  14   6 1607.61 66.8900   1
   6 -14   6 2081.10 86.1500   1
   6  14   6 2238.07 124.050   1
   6 -14  -6 1697.89 77.1900   1
  -6 -14  -6 1473.60 83.0800   1
  -6 -14  -6 1706.42 81.5300   1
   6 -14  -6 1979.88 69.7900   1
   6 -14  -6 1608.79 70.4500   1
  -6 -14  -6 1579.54 79.5500   1
   2  -9  -8 1557.01 63.2700   1
   2  -9   8 1682.78 75.2700   1
  -2  -9   8 1835.43 86.0200   1
  -2   9   8 1806.13 96.7800   1
  -2  -9  -8 1770.99 73.0000   1
   2  -9  -8 1558.10 81.7100   1
  -2  -9  -8 1307.98 68.7400   1
  -2  -9   8 1685.60 77.7200   1
   2   9   8 1762.67 85.1900   1
   2  -9   8 1857.73 85.2400   1
   2  -9  -8 1306.10 72.6700   1
  -2  -9  -8 1360.78 84.7200   1
  -2  -9  -8 1578.97 76.9800   1
   7 -19  -2 1721.19 89.8100   1
   7 -19   2 1275.05 77.2500   1
  -7 -19  -2 1640.05 73.6600   1
  -7 -19   2 1526.78 59.3700   1
   7  19   2 1987.54 69.5200   1
  -7 -19   2 2093.75 86.7300   1
   7 -19  -2 1666.74 62.5600   1
   7 -19  -2 1428.60 78.1500   1
   7  19  -2 1829.11 69.0300   1
  -7 -19  -2 1488.96 68.5600   1
   7 -19   2 1589.66 68.3400   1
 -13 -14   2 51.1800 30.0300   1
  13 -14  -2 42.4000 29.9800   1
  13  14  -2 17.8300 20.8200   1
 -13 -14  -2 30.6200 24.0200   1
  13 -14   2 14.4700 26.8100   1
  13  14   2 -3.6800 24.8700   1
  13 -14  -2 30.5100 18.5100   1
 -13 -14  -2 14.7000 27.0600   1
 -13 -14  -2 50.2500 20.7200   1
   0 -20  -3 -0.0100 18.9700   1
   0 -20  -3 29.0500 24.9000   1
   0 -20  -3 -12.150 30.9500   1
   0 -20   3 10.5900 21.9700   1
   0 -20   3 23.6200 26.7900   1
  18   0   1 1509.93 60.4300   1
  18   0  -1 2137.07 77.2000   1
  15   0   5 -7.0100 22.5900   1
  15   0   5 7.30000 25.7400   1
 -15   0   5 15.9300 16.8400   1
  -9 -17   3 2662.43 96.8500   1
  -9 -17   3 3056.68 139.230   1
   9  17  -3 2653.35 94.3100   1
   9  17   3 2906.31 92.9600   1
   9 -17   3 2013.82 85.3200   1
   9 -17  -3 1805.43 89.6600   1
  -9 -17  -3 1898.13 81.3600   1
   4 -15  -6 115.200 24.1100   1
  -4 -15  -6 87.3300 24.4100   1
   4 -15  -6 79.9700 25.6600   1
   4  15   6 107.540 28.3300   1
  -4  15   6 126.200 25.3700   1
  -4 -15   6 181.930 35.3700   1
   4 -15   6 135.040 27.1600   1
  -4 -15  -6 116.400 25.4300   1
  -4 -15  -6 143.970 29.7300   1
   4 -15  -6 131.090 38.4600   1
 -12  -7   6 1919.72 64.2300   1
  12  -7  -6 1648.68 65.9100   1
  12   7   6 1485.03 60.5400   1
  12  -7   6 2379.86 104.360   1
 -12  -7  -6 2257.61 73.6900   1
 -12  -7  -6 1629.39 78.6100   1
 -12   7   6 1880.88 62.4200   1
  -8   0   8 2291.06 77.1900   1
  -8   0  -8 2312.04 74.6200   1
   0 -19  -4 -9.4200 23.5100   1
   0 -19   4 -20.820 23.4400   1
   0 -19  -4 -28.370 25.8500   1
   0 -19  -4 14.1700 22.3500   1
   0 -19   4 10.5000 26.6700   1
  16  -3  -4 554.450 42.2200   1
  16   3  -4 580.250 35.7900   1
  16   3   4 596.220 46.4600   1
  16  -3   4 643.980 44.2800   1
  16  -3   4 624.910 54.5400   1
  11  -9  -6 66.5100 22.1000   1
 -11  -9  -6 151.850 24.8100   1
 -11  -9  -6 107.830 24.6600   1
 -11   9   6 126.970 19.0700   1
 -11  -9   6 131.850 24.4300   1
  11   9  -6 118.490 30.7000   1
  11  -9   6 84.1200 25.8100   1
  16 -10   0 335.420 32.4100   1
 -16 -10   0 344.760 34.7000   1
  16  10   0 360.570 29.0300   1
  10  -6  -7 450.260 38.7100   1
  10  -6   7 469.110 41.6600   1
 -10  -6  -7 369.970 36.5000   1
 -10  -6  -7 504.660 33.1600   1
 -10   6   7 660.940 38.3500   1
 -10  -6   7 513.500 32.7700   1
 -10  -6  -7 428.130 47.1600   1
  17  -7   1 126.800 24.6500   1
  17  -7   1 114.050 24.1700   1
  17   7   1 165.710 25.3900   1
  17  -7  -1 131.900 24.3600   1
  17  -7  -1 71.0000 21.4200   1
  17   7  -1 156.870 29.3300   1
   2 -21  -1 1567.70 64.4800   1
  -2 -21  -1 1646.78 63.4000   1
   2 -21  -1 1517.57 82.1800   1
   2 -21   1 1369.89 64.3000   1
  -2 -21  -1 1309.01 61.6900   1
   2 -21   1 1327.96 53.6100   1
   2 -21   1 1725.50 73.1300   1
  -2 -21   1 1931.19 78.8900   1
  -2 -21  -1 1351.25 63.0900   1
  -2 -21   1 1498.88 81.7900   1
   2 -21  -1 1480.58 74.8000   1
   2 -21  -1 1312.06 62.5900   1
  -2 -21   1 1615.78 68.4600   1
  16  -7  -3 480.680 41.5200   1
  16   7  -3 650.860 36.0200   1
  16   7   3 881.190 48.9700   1
  16  -7   3 514.490 36.1700   1
  16  -7  -3 411.940 34.6000   1
  18   1   1 21.9300 23.3900   1
  18   1  -1 42.5300 30.5600   1
  18  -1   1 8.53000 24.0200   1
  11 -12   5 15.9000 24.9700   1
  11 -12  -5 34.3900 24.4800   1
 -11  12   5 13.4100 18.7900   1
  11  12   5 13.2500 14.2600   1
  11  12  -5 8.99000 12.7100   1
  15  -1   5 638.690 44.6300   1
 -15   1   5 811.410 39.2300   1
 -15  -1   5 654.260 35.6600   1
  15  -1   5 563.820 42.2700   1
  15   1   5 759.830 53.0200   1
   1 -20  -3 1417.29 68.6400   1
  -1 -20  -3 1773.00 75.6200   1
   1 -20  -3 1992.69 80.9500   1
  -1 -20  -3 2049.89 76.7300   1
   1 -20  -3 1751.51 89.1800   1
   1 -20   3 1628.85 80.3400   1
   1 -20   3 1707.43 63.1500   1
  -1 -20   3 1983.08 80.0200   1
  -1 -20  -3 2011.81 97.9700   1
   1 -20   3 2109.46 87.1400   1
  -1 -20   3 2123.70 81.3000   1
 -13 -13  -3 90.4500 29.6000   1
  13 -13  -3 143.780 22.2500   1
  13 -13   3 162.780 25.9100   1
  13  13  -3 197.000 23.0100   1
  13  13   3 211.330 28.7400   1
  13 -13  -3 154.320 28.2900   1
 -13 -13  -3 173.020 22.3800   1
  17  -2   3 46.0000 22.2600   1
  17  -2  -3 32.1900 22.7800   1
  17  -2   3 0.33000 25.7400   1
  17   2  -3 26.1600 23.9800   1
  -8   1   8 74.1200 19.8400   1
   8  -1  -8 56.3900 22.6000   1
  -8  -1  -8 47.4400 19.1400   1
  -8  -1  -8 75.3300 23.8400   1
  -8   1  -8 54.6300 17.3300   1
  -8   1  -8 54.8800 24.7700   1
  -8  -1   8 84.7600 19.3600   1
   2 -13  -7 266.490 28.5700   1
  -2 -13  -7 306.680 28.1000   1
   2 -13  -7 195.410 30.5400   1
  -2 -13  -7 234.770 33.7800   1
  -2 -13   7 267.900 34.3700   1
   2 -13   7 233.000 27.2100   1
  -2  13   7 211.170 29.3000   1
   2  13   7 269.950 29.7800   1
   2 -13  -7 196.030 33.8000   1
  -2 -13  -7 155.400 26.0200   1
  -2 -13  -7 198.360 28.3100   1
  13  -4   6 700.170 46.7800   1
  13  -4   6 778.880 49.8500   1
 -13   4   6 943.410 45.8300   1
  13  -4  -6 716.690 52.5600   1
  13   4   6 674.790 47.3700   1
 -13  -4   6 676.140 34.0100   1
  -4 -17  -5 145.940 25.4000   1
  -4 -17   5 162.290 30.1700   1
   4 -17   5 200.190 24.9300   1
  -4 -17   5 231.220 36.5000   1
  -4  17   5 132.590 19.4200   1
   4 -17  -5 116.000 25.2400   1
  -4 -17  -5 130.750 22.6500   1
  -4 -17  -5 152.530 30.7900   1
   4 -17  -5 138.210 26.3300   1
   4 -17  -5 103.920 27.3300   1
  15 -11  -2 421.290 32.8400   1
  15  11  -2 452.280 28.8000   1
  15  11   2 471.070 33.8400   1
 -15 -11  -2 458.870 34.4700   1
  15 -11  -2 328.820 31.9100   1
 -15 -11  -2 380.060 31.2900   1
  15 -11   2 375.730 34.5900   1
  -1 -19  -4 1744.89 84.0700   1
   1 -19  -4 1557.02 71.0400   1
  -1 -19  -4 2080.32 77.3400   1
   1 -19  -4 1951.61 75.8900   1
  -1 -19  -4 1766.23 81.4900   1
   1 -19  -4 1718.46 81.2300   1
  -1 -19   4 2381.23 96.5200   1
   1 -19   4 2033.45 82.8700   1
   1 -19   4 1998.81 75.8700   1
  -1 -19   4 1989.86 74.6100   1
 -11 -14  -4 1415.62 71.6600   1
  11 -14  -4 1374.88 59.2000   1
 -11  14   4 1639.79 57.3200   1
  11  14   4 1444.73 56.2700   1
  11  14  -4 1760.31 58.2000   1
  11 -14   4 1909.31 82.0700   1
  -3 -21   0 80.3400 26.5600   1
   3 -21   0 124.340 30.4600   1
   3 -21   0 89.2500 25.8200   1
  -3 -21   0 148.910 28.2100   1
   3 -21   0 74.6700 23.2600   1
  -3 -21   0 135.240 24.6700   1
  15 -12   0 848.160 53.6900   1
  15  12   0 806.200 42.5500   1
 -15 -12   0 1042.38 50.4400   1
 -10  15   4 205.600 24.9700   1
  10 -15   4 149.840 23.0700   1
  10  15   4 187.970 23.5900   1
 -10 -15  -4 154.550 32.2400   1
  10 -15  -4 226.740 30.6500   1
  10  15  -4 241.870 23.8700   1
  -9  -8  -7 1832.32 91.3600   1
  -9  -8   7 2536.17 85.2700   1
   9  -8   7 2428.62 99.9600   1
  -9   8   7 2567.23 80.0700   1
   9  -8  -7 1757.61 69.3300   1
  -9  -8  -7 1808.37 85.4000   1
 -11  -3   7 2546.74 76.9000   1
 -11  -3  -7 1623.19 81.9700   1
 -11  -3  -7 2220.36 72.2100   1
  11  -3  -7 2095.65 96.8600   1
  11  -3   7 1724.12 79.7100   1
  12  16   0 2708.12 85.1300   1
  12 -16   0 1915.22 83.1300   1
 -12 -16   0 2456.75 90.0100   1
  18  -3   0 482.830 39.5200   1
  18   3   0 468.590 35.3200   1
  -8 -19  -1 677.480 51.5800   1
   8 -19   1 600.030 42.8700   1
   8 -19  -1 642.970 44.0800   1
   8  19   1 886.300 68.1100   1
   8 -19   1 763.100 43.7700   1
  -8 -19  -1 758.640 46.8200   1
   8 -19  -1 653.800 50.8000   1
  -8 -19   1 807.590 49.7200   1
   8  19  -1 901.630 42.3900   1
  -8 -19   1 791.580 49.7900   1
  -8  15   5 34.4600 17.9300   1
   8  15   5 43.2900 30.2400   1
   8 -15  -5 71.4000 24.2600   1
   8 -15  -5 38.7500 19.3700   1
   8 -15   5 66.8300 24.4400   1
   8 -15  -5 51.7700 18.9700   1
  -8 -15  -5 61.8800 24.6900   1
  -8 -15   5 79.3800 35.3500   1
   6 -20   1 324.240 38.8700   1
   6 -20  -1 281.720 31.4300   1
  -6 -20   1 396.340 38.7300   1
  -6 -20  -1 315.310 35.4100   1
  -6 -20   1 314.220 29.6900   1
   6 -20   1 287.240 37.5200   1
   6  20   1 301.000 27.6400   1
   6  20  -1 271.040 25.2900   1
   6 -20  -1 250.170 26.3900   1
  -6 -20  -1 221.170 27.2200   1
   6 -20  -1 260.390 29.0400   1
   6 -20   1 241.270 21.9000   1
  18  -2   1 1945.80 82.8100   1
  18  -2  -1 2019.12 81.2300   1
  18   2   1 2346.34 87.5800   1
  18   2  -1 2008.19 75.1200   1
 -11 -17   0 606.920 40.4300   1
  11 -17   0 334.950 29.6800   1
  11 -17   0 566.370 48.5600   1
  13   9   5 81.8800 21.4000   1
 -13   9   5 73.2400 19.9400   1
  13  -9   5 30.9300 19.5700   1
  13   9  -5 106.450 23.8100   1
  13  -9  -5 45.2500 19.7800   1
 -13  -9  -5 109.770 21.4600   1
  15  -2   5 227.400 25.0300   1
 -15   2   5 355.950 28.6300   1
 -15  -2   5 326.940 23.5800   1
  15   2  -5 348.220 27.8700   1
  15   2   5 224.190 22.9100   1
  15  -2   5 296.490 27.5400   1
  16  -9  -2 1516.25 77.5700   1
  16  -9  -2 1412.61 85.2500   1
  16   9   2 1543.30 59.9000   1
  16  -9   2 1511.67 81.5200   1
   8  -2  -8 2679.92 96.9100   1
  -8   2  -8 2351.38 85.0300   1
  -8  -2  -8 2899.30 87.2100   1
  -8  -2  -8 2243.53 94.4900   1
  -8   2  -8 2068.68 97.4400   1
  -8   2   8 2758.88 81.1200   1
  17  -6  -2 1889.35 93.8500   1
  17   6   2 2577.05 80.6900   1
  17   6  -2 2513.68 80.4700   1
  17  -6   2 2239.98 89.6100   1
  17  -6   2 3184.24 127.310   1
  -7  -5  -8 454.420 52.4700   1
  -7   5  -8 382.170 38.3200   1
  -7  -5  -8 569.300 49.0600   1
  -7   5  -8 510.410 36.3300   1
   7  -5  -8 513.470 43.0600   1
  -7  -5   8 566.860 32.3300   1
  -7   5   8 462.150 34.3900   1
   7   5   8 440.740 47.6200   1
   2 -20   3 1640.00 83.1300   1
  -2 -20   3 1767.34 72.2600   1
  -2 -20  -3 1801.89 96.0600   1
   2 -20  -3 1651.44 80.1400   1
  -2 -20  -3 1901.92 73.4700   1
   2 -20  -3 1751.00 71.5500   1
   2 -20   3 2328.79 102.980   1
  -2 -20   3 2316.04 87.3500   1
  -5 -12  -7 426.430 42.5800   1
  -5 -12  -7 326.300 28.1700   1
   5 -12  -7 419.730 29.7200   1
   5 -12  -7 355.230 32.1300   1
  -5 -12  -7 386.110 37.4500   1
   5  12   7 423.770 51.7000   1
   5 -12  -7 328.930 36.0600   1
   5 -12   7 477.020 40.2300   1
  -5 -12   7 614.690 46.3700   1
  -5  12   7 456.240 36.5500   1
   5 -20   2 1124.53 65.4000   1
   5  20   2 1294.92 52.8100   1
   5 -20  -2 1176.63 60.7000   1
  -5 -20   2 1318.61 62.3600   1
   5 -20   2 1162.05 52.4800   1
  -5 -20   2 1342.50 57.3600   1
  -5 -20  -2 1069.30 62.7900   1
  -5 -20   2 1340.27 59.0900   1
   5 -20  -2 1370.94 60.5300   1
   5 -20  -2 1053.02 59.2100   1
   3  -9  -8 43.5200 20.9900   1
  -3  -9  -8 7.66000 30.4300   1
  -3  -9   8 22.5000 23.6200   1
   3  -9   8 21.6500 19.8700   1
  -3  -9  -8 33.4300 27.2600   1
  -3  -9  -8 17.1600 25.0800   1
   3  -9  -8 -18.430 21.1700   1
  -3  -9  -8 13.5400 23.0400   1
   3  -9   8 -2.3400 20.0900   1
  -3  -9   8 36.7000 28.9500   1
   3   9   8 63.7300 28.7300   1
  -3   9   8 20.0100 26.2100   1
  13 -15   0 3634.75 120.460   1
  13  15   0 4275.27 114.550   1
 -13 -15   0 3642.98 114.900   1
   2 -19   4 1632.92 84.2800   1
   2 -19  -4 1302.96 72.1300   1
  -2 -19   4 1655.50 81.0100   1
  -2 -19   4 1409.17 56.6500   1
   2 -19   4 1405.24 61.9400   1
  -2 -19  -4 1336.44 69.0200   1
  -2 -19  -4 1695.60 72.2100   1
   2 -19  -4 1539.33 68.3000   1
  -2 -19  -4 1302.32 77.0800   1
   2 -19  -4 1283.86 67.9500   1
  17  -3   3 1765.06 75.1800   1
  17  -3  -3 1878.71 78.0700   1
  17  -3   3 1886.91 80.8400   1
  17   3  -3 1934.74 70.8100   1
  17   3   3 2186.56 86.7800   1
  16 -10  -1 910.030 50.9100   1
 -16 -10  -1 873.270 48.2200   1
  16 -10   1 1017.55 64.2600   1
  16  10   1 1087.82 48.5100   1
 -16 -10   1 1121.42 56.1400   1
  12 -13  -4 2434.09 91.8500   1
  12  13   4 2410.84 75.3200   1
  12 -13   4 2470.38 99.4900   1
 -12  13   4 2464.81 75.0800   1
   9 -18  -2 914.640 51.8900   1
   9  18   2 1079.45 40.9200   1
   9  18  -2 1278.01 55.6000   1
  -9 -18  -2 929.200 69.0200   1
  -9 -18   2 1151.61 59.2300   1
  -9 -18   2 1528.86 91.7600   1
  -9 -18  -2 880.820 58.4100   1
   9 -18   2 1041.11 56.3400   1
   9 -18  -2 953.030 53.4100   1
   9 -16   4 201.230 26.0300   1
   9  16   4 226.100 32.0800   1
  -9 -16   4 218.920 46.5600   1
  -9 -16  -4 104.850 31.1900   1
  -9  16   4 65.9300 15.2700   1
   9 -16  -4 64.0900 20.3100   1
   9 -16  -4 113.290 26.8700   1
   9  16  -4 157.180 22.4900   1
  16  -4  -4 250.060 28.9500   1
  16   4  -4 290.360 24.0100   1
  16  -4   4 312.010 36.3100   1
  16   4   4 405.790 40.4800   1
  16  -4   4 338.120 35.3400   1
   3 -21  -1 878.460 49.3900   1
   3 -21   1 903.880 47.9600   1
  -3 -21   1 1082.47 60.6500   1
   3 -21  -1 939.380 57.2700   1
  -3 -21   1 812.770 56.6500   1
  -3 -21  -1 842.120 41.3500   1
  -3 -21   1 781.310 43.7200   1
   3 -21   1 806.000 44.5000   1
  -3 -21  -1 824.680 48.2600   1
  -3 -21  -1 714.210 55.5000   1
   3 -21   1 883.840 62.7700   1
   3 -21  -1 838.930 55.5700   1
 -15 -12   1 698.740 48.3800   1
  15 -12  -1 830.540 53.2800   1
  15 -12   1 672.730 48.8500   1
  15  12  -1 689.180 34.0600   1
  15  12   1 832.900 41.6300   1
 -15 -12  -1 616.590 36.1900   1
 -15 -12  -1 790.730 51.1000   1
  12  16  -1 2377.66 73.5000   1
  12 -16  -1 1749.24 85.7500   1
  12 -16  -1 2087.83 83.9500   1
 -12 -16  -1 2261.13 90.2500   1
  12 -16   1 2064.85 83.3100   1
 -12 -16   1 2223.37 79.7400   1
  12  16   1 2864.41 91.4700   1
   3  13   7 3169.76 138.600   1
   3 -13  -7 2126.59 93.1100   1
  -3 -13  -7 2719.06 106.020   1
   3 -13  -7 2722.42 91.1600   1
  -3 -13  -7 2935.04 103.640   1
   3 -13  -7 2515.21 105.110   1
  -3 -13  -7 2449.85 102.780   1
   3 -13   7 2668.81 95.0900   1
  -3  13   7 2847.10 116.250   1
  -9 -12  -6 1267.67 69.3500   1
   9 -12  -6 1152.21 56.5100   1
   9  12  -6 1579.50 55.7600   1
  -9  12   6 1665.04 68.2800   1
   9 -12   6 1522.44 83.7900   1
  18   3   1 325.660 32.9600   1
  18  -3  -1 319.800 30.1400   1
  18   3  -1 336.580 29.4300   1
  18  -3   1 326.910 34.1600   1
   0   0   9 -6.6600 27.3000   1
  14 -10  -4 480.710 45.3400   1
  14  10   4 496.210 34.6800   1
  14  10  -4 528.630 32.1500   1
  14 -10   4 455.770 38.6000   1
 -14  10   4 490.880 32.8600   1
 -14 -10  -4 572.470 35.3100   1
  15   3  -5 801.310 48.5600   1
 -15  -3   5 785.100 38.0100   1
  15  -3   5 735.500 55.1800   1
 -15   3   5 892.280 42.4000   1
  15   3   5 689.890 46.8000   1
  15  -3   5 643.360 51.2100   1
 -15 -10  -3 1776.00 65.7900   1
  15  10  -3 1627.74 55.7800   1
  15 -10  -3 1452.57 65.5400   1
  15 -10  -3 1320.84 64.5000   1
  15 -10  -3 1584.74 81.7500   1
  15 -10   3 1777.02 84.1500   1
  15  10   3 1652.46 60.7900   1
   0 -16  -6 2477.90 92.0500   1
   0 -16   6 2348.97 90.8100   1
   0 -16   6 2316.37 87.3300   1
   0 -16  -6 1912.61 85.5700   1
   0 -16  -6 1497.79 81.7700   1
   0  16   6 1662.08 87.0400   1
   0 -16  -6 1868.10 81.7600   1
  14   7   5 2432.28 84.4800   1
 -14  -7  -5 1952.71 66.8500   1
  14  -7  -5 2222.39 82.7600   1
  14  -7   5 2458.59 103.090   1
  14   7  -5 2514.39 75.4600   1
  -8   3  -8 186.120 27.0600   1
  -8  -3  -8 204.060 28.1000   1
  -8   3   8 144.040 21.6200   1
  -8  -3   8 161.870 26.6700   1
  -8  -3  -8 89.0400 19.8100   1
  -8   3  -8 108.650 22.4900   1
  -8  -3  -8 98.1100 30.7000   1
   8  -3  -8 230.180 38.6300   1
  11  -4  -7 249.770 38.6900   1
 -11  -4  -7 77.9800 20.3500   1
 -11  -4  -7 77.1700 17.7300   1
 -11   4   7 153.130 29.2800   1
 -11  -4   7 91.8700 18.4700   1
  11  -4   7 87.2900 25.2800   1
 -11  -4  -7 114.290 25.8300   1
  11  17   1 3046.37 86.4900   1
  11 -17   1 2766.64 100.090   1
  11 -17  -1 2491.78 95.9700   1
  11 -17  -1 2271.29 91.9400   1
 -11 -17  -1 2511.81 92.4600   1
 -11 -17   1 2924.60 93.2000   1
 -12  11   5 1069.95 45.2200   1
  12  11   5 912.640 45.7200   1
 -12 -11  -5 804.300 39.2400   1
  12 -11  -5 822.900 52.7800   1
  12 -11   5 863.410 55.1800   1
 -14 -13  -2 311.440 25.7400   1
  14 -13  -2 154.300 21.6200   1
 -14 -13  -2 259.050 28.1400   1
 -14 -13   2 293.520 29.0000   1
  14 -13   2 374.970 35.9600   1
  14 -13  -2 318.500 31.4000   1
  14  13  -2 309.720 22.4200   1
  14  13   2 349.210 26.9500   1
 -17  -8   0 2109.69 97.8300   1
  17  -8   0 2290.26 93.3700   1
  17  -8   0 1601.66 67.9300   1
  17   8   0 1951.39 65.8600   1
   0  -1  -9 290.510 30.3800   1
   0  -1   9 285.420 28.8400   1
   0   1   9 341.400 30.6300   1
 -10 -18   0 81.1200 28.6200   1
  10 -18   0 98.0000 22.3600   1
  10 -18   0 138.690 24.4600   1
  10  18   0 172.320 20.9500   1
  18   4   0 160.020 26.3100   1
  18  -4   0 115.310 29.4300   1
  -8 -13  -6 52.8600 21.2600   1
  -8 -13  -6 67.5700 24.6400   1
   8 -13  -6 65.8900 25.9600   1
  -8 -13  -6 51.9000 25.9400   1
   8  13   6 35.2000 28.1700   1
  -8  13   6 62.1200 21.7900   1
   8 -13   6 17.4700 22.6600   1
  -8 -13   6 0.13000 32.0700   1
   8  13  -6 6.19000 18.5300   1
   6 -19  -3 39.8700 18.5800   1
   6 -19  -3 83.5700 22.6900   1
  -6 -19  -3 128.810 25.1100   1
  -6 -19   3 119.960 28.1800   1
   6 -19   3 103.720 29.0400   1
  -6 -19   3 111.070 33.0100   1
   6  19  -3 86.5200 21.6000   1
   6 -19  -3 79.8100 26.8700   1
   6  19   3 81.1400 22.2700   1
  -1   0   9 31.8200 27.7600   1
   1   0   9 21.9100 30.5000   1
   1 -16   6 135.010 24.8200   1
   1 -16  -6 140.800 29.3600   1
   1 -16  -6 114.240 30.4900   1
  -1 -16  -6 123.550 26.2000   1
  -1 -16  -6 79.5200 24.9200   1
   1 -16  -6 86.2100 22.7300   1
  -1 -16  -6 97.3500 25.1000   1
   1 -16  -6 62.3000 30.3400   1
  -1 -16  -6 125.030 28.7700   1
  -1 -16   6 108.440 27.3100   1
  -1  16   6 71.8400 22.9200   1
   1  16   6 77.4600 27.5200   1
  -1 -16   6 122.220 26.5900   1
  13  -5   6 680.870 44.2600   1
  13  -5  -6 768.680 49.9000   1
 -13  -5  -6 722.940 40.0200   1
 -13   5   6 770.910 38.3800   1
 -13  -5   6 1028.89 46.8400   1
  13   5   6 620.630 42.6400   1
   5  -8   8 840.140 62.5600   1
  -5  -8  -8 755.670 61.3000   1
  -5  -8  -8 928.330 67.7200   1
   5  -8  -8 967.770 58.7100   1
   5  -8   8 972.130 57.9700   1
  -5  -8   8 1001.38 58.4100   1
  -5  -8   8 1194.89 53.1700   1
  -5   8   8 1066.24 49.9000   1
   5   8   8 1415.94 94.3200   1
   6  -7   8 114.640 29.2400   1
  -6  -7  -8 72.6800 21.8200   1
  -6  -7  -8 64.2900 24.1000   1
   6  -7  -8 129.170 28.6600   1
  -6  -7   8 164.790 23.6200   1
  -6  -7   8 207.460 34.5300   1
  -6   7   8 157.880 23.9100   1
   6   7   8 63.6800 35.9600   1
   1  -1  -9 287.150 33.5900   1
   1   1   9 492.720 43.5100   1
   1  -1   9 562.050 44.2500   1
  -1  -1   9 529.270 43.7700   1
  -1   1   9 503.650 42.7800   1
   4 -21   0 1527.71 69.5300   1
  -4 -21   0 1796.73 79.9300   1
   4 -21   0 1551.24 72.7000   1
   4 -21   0 1287.20 83.1100   1
  -4 -21   0 1470.71 77.4000   1
  -4 -21   0 1634.75 64.6900   1
  13 -15  -1 462.040 38.9200   1
  13 -15  -1 798.050 48.9000   1
  13 -15   1 736.210 43.8100   1
  13  15  -1 827.960 39.3300   1
  13  15   1 748.030 35.8800   1
 -13 -15  -1 802.860 49.7200   1
 -13 -15   1 720.060 40.7500   1
 -10 -11  -6 1425.16 79.2900   1
  10 -11  -6 1298.65 70.4600   1
 -10  11   6 1746.89 70.3400   1
  10 -11   6 1494.19 80.9400   1
  10  11  -6 1592.53 56.7900   1
  -8 -18  -3 731.770 62.4000   1
  -8 -18   3 1011.04 53.5400   1
   8 -18   3 699.480 43.3500   1
  -8 -18   3 1033.75 67.1500   1
   8  18  -3 924.400 47.4800   1
   8  18   3 808.540 37.8300   1
   8 -18  -3 894.050 48.0700   1
   8 -18  -3 810.880 64.1000   1
   3 -20   3 41.1100 27.8100   1
   3 -20  -3 35.4400 22.2700   1
   3 -20  -3 69.2500 29.2300   1
  -3 -20  -3 39.2400 28.8000   1
   3 -20  -3 61.0100 18.9100   1
  -3 -20  -3 95.4400 26.8600   1
  -3 -20   3 58.2900 23.8800   1
   3 -20   3 111.400 28.6400   1
  -3 -20   3 55.8200 30.4200   1
   0 -21  -2 -3.5100 29.6200   1
   0 -21   2 0.88000 20.4200   1
   0 -21  -2 -15.510 21.1100   1
   0 -21   2 22.6200 27.1700   1
   0 -21   2 25.2900 22.2900   1
   0 -10  -8 158.030 27.0200   1
   0 -10   8 200.840 27.6600   1
   0  10   8 147.900 28.0900   1
   0 -10  -8 103.560 25.5600   1
   0 -10  -8 128.490 22.0800   1
   0 -10  -8 112.140 22.9200   1
   5 -15   6 1122.01 56.0100   1
  -5 -15  -6 1281.28 71.3700   1
   5 -15  -6 1085.42 63.4700   1
   5 -15  -6 1564.11 69.4300   1
  -5 -15  -6 1130.16 63.5500   1
  -5 -15  -6 1087.20 60.7400   1
   5 -15  -6 1181.63 65.5700   1
   5  15   6 1263.70 77.6800   1
  -5  15   6 1554.51 68.2200   1
   3 -19  -4 111.950 33.3700   1
  -3 -19  -4 54.4200 28.7400   1
   3 -19   4 69.7500 25.7400   1
   3 -19  -4 102.360 28.2200   1
  -3 -19   4 85.9300 22.7800   1
   3 -19   4 157.370 26.6200   1
  -3 -19   4 173.900 37.2100   1
   3 -19  -4 96.8200 26.8400   1
  -3 -19  -4 136.230 26.4900   1
  -3 -19  -4 81.8300 26.3600   1
  -3 -19  -4 62.4100 19.6500   1
  15  -8  -4 345.750 29.4600   1
  15   8   4 408.730 27.9600   1
 -15   8   4 454.960 34.2000   1
  15   8  -4 407.460 22.9800   1
  15  -8   4 497.780 43.4400   1
   0  -2   9 33.0900 26.7100   1
   0   2   9 16.1100 27.3600   1
   0  -2  -9 8.28000 19.2900   1
   6 -18  -4 4395.36 147.920   1
  -6 -18  -4 4443.47 148.550   1
   6 -18   4 5029.97 158.490   1
   6  18   4 5297.06 144.910   1
   6 -18  -4 4123.67 157.020   1
   6 -18  -4 4772.78 137.730   1
  -6 -18   4 5492.07 151.510   1
  17  -4   3 268.850 29.1300   1
  17   4  -3 302.710 28.6100   1
  17   4   3 289.270 28.3100   1
  17  -4   3 220.450 28.2500   1
  17  -4  -3 204.030 19.4800   1
  14 -12  -3 17.0700 26.3600   1
  14  12  -3 3.82000 17.3800   1
 -14 -12  -3 -15.180 21.0100   1
  14 -12  -3 11.0100 19.2000   1
  14 -12   3 28.2700 29.6300   1
  14  12   3 11.4800 22.7400   1
 -10  -7   7 459.140 28.4000   1
  10  -7  -7 297.200 29.5800   1
  10  -7   7 352.810 35.1600   1
 -10   7   7 399.020 28.3500   1
 -10  -7  -7 258.300 25.5400   1
 -10  -7  -7 275.830 27.8500   1
 -10  -7  -7 335.780 30.7700   1
   1 -21  -2 949.750 48.0800   1
   1 -21   2 896.540 46.7000   1
   1 -21  -2 601.980 41.2500   1
   1 -21   2 652.400 34.1000   1
   1 -21  -2 667.730 45.7100   1
  -1 -21   2 838.510 41.8000   1
  -1 -21  -2 638.410 48.3300   1
  -1 -21   2 635.890 36.1600   1
  -1 -21  -2 831.140 43.7800   1
  -1 -21   2 641.860 49.2100   1
   1 -21   2 707.830 41.3400   1
  -1 -21   2 664.660 35.4200   1
  -1 -10  -8 177.990 26.4400   1
   1 -10  -8 109.650 22.9600   1
  -1 -10  -8 155.880 38.0200   1
   1 -10  -8 120.130 28.0300   1
  -1 -10  -8 107.780 24.4200   1
   1 -10  -8 74.5200 23.5000   1
   1 -10   8 146.290 25.1200   1
  -1 -10   8 95.2600 25.9900   1
  -1  10   8 140.800 27.5100   1
   1  10   8 113.230 25.4000   1
  -1 -10  -8 65.1700 28.7300   1
  -5 -17   5 2137.11 71.6700   1
  -5 -17  -5 1602.42 77.2600   1
   5 -17  -5 1532.18 71.5100   1
   5 -17  -5 1719.38 81.1900   1
  -5 -17  -5 1806.23 83.1000   1
   5 -17   5 1862.32 62.1700   1
  -5  17   5 1486.95 63.4800   1
  -7  16   5 60.7800 19.6000   1
  -7 -16  -5 77.8500 26.3200   1
   7 -16  -5 80.8500 38.5300   1
   7 -16  -5 113.670 25.0600   1
  -7 -16  -5 24.3400 15.7000   1
   7 -16  -5 58.9400 25.6500   1
   7  16  -5 114.900 19.0200   1
   7 -16   5 85.9600 24.8600   1
  -7 -16   5 130.720 37.3900   1
  14 -14   0 2771.44 87.4600   1
  14  14   0 3159.56 70.5900   1
 -14 -14   0 2651.73 74.7800   1
   1  -2   9 1388.69 149.330   1
  -1   2   9 1306.08 53.4100   1
   1   2   9 1465.99 80.0600   1
   1  -2  -9 815.660 49.1300   1
  -1  -2   9 1133.62 52.3900   1
  -1  -2  -9 776.830 49.4800   1
   2   0   9 1990.17 75.4200   1
  -2   0   9 2059.56 86.6900   1
   0 -18   5 -3.3100 26.0900   1
   0 -18  -5 19.8900 19.8700   1
   0 -18  -5 -13.320 27.3000   1
   0 -18   5 -17.870 17.1100   1
   0 -18  -5 -5.5900 26.0200   1
   0 -18  -5 8.35000 18.9800   1
   2 -16   6 1167.68 61.1600   1
  -2 -16   6 1118.28 51.1200   1
  -2  16   6 786.070 57.9800   1
   2  16   6 812.330 74.4500   1
   2 -16  -6 770.830 60.4100   1
  -2 -16  -6 649.460 46.1800   1
  -2 -16  -6 728.930 54.4000   1
  -2 -16  -6 887.950 41.2500   1
   2 -16  -6 623.760 44.0400   1
  -2 -16  -6 791.800 57.0200   1
  -2 -16   6 752.680 95.3800   1
   2 -16  -6 716.890 54.1200   1
   2 -16  -6 929.090 46.9300   1
  -8 -10  -7 394.480 36.4800   1
  -8 -10  -7 468.890 39.9200   1
   8 -10  -7 408.770 34.3800   1
   8  10   7 410.390 42.2700   1
   8 -10   7 610.530 46.0800   1
  -8 -10   7 624.420 47.1500   1
  -8  10   7 530.510 30.3400   1
 -12  -8  -6 44.3500 25.9200   1
  12  -8   6 28.9600 19.4900   1
 -12  -8  -6 -4.9700 21.6300   1
  12  -8  -6 63.8300 22.1900   1
 -12   8   6 52.3100 19.1500   1
  12   8   6 21.6700 16.1000   1
 -12  -8   6 9.98000 21.7300   1
  -4  -9   8 2541.96 71.8700   1
   4  -9   8 2269.97 87.4100   1
  -4   9   8 2477.98 79.7000   1
   4   9   8 2874.33 119.090   1
  -4  -9  -8 1654.45 80.0500   1
  -4  -9  -8 2294.27 75.6500   1
   4  -9  -8 1892.96 76.8300   1
   7 -11  -7 19.1700 29.2700   1
  -7 -11  -7 51.4700 22.1100   1
   7 -11   7 22.0000 22.6200   1
  -7 -11  -7 43.8500 27.3700   1
   7  11   7 27.2500 32.7900   1
  -7  11   7 27.2600 27.9600   1
  -2   1   9 77.8100 25.6000   1
   2  -1  -9 115.300 23.0700   1
  -2  -1   9 153.080 30.3500   1
   2  -1   9 165.990 28.4800   1
   2   1   9 80.3700 23.5600   1
  17  -8  -1 58.4200 23.6100   1
  17   8  -1 58.6000 23.2500   1
  17  -8  -1 73.6900 28.4000   1
  17   8   1 51.9200 19.0100   1
  17  -8   1 83.1800 24.8500   1
  -7  -6  -8 -13.970 24.6200   1
   7  -6  -8 -17.620 23.7000   1
  -7   6  -8 14.0700 17.9500   1
  -7   6   8 15.8200 22.0800   1
  -7  -6   8 2.43000 26.1500   1
  -7  -6   8 4.82000 19.9100   1
   7   6   8 60.3600 27.5100   1
  -7  -6  -8 6.73000 19.2700   1
  10  18  -1 1510.10 43.5300   1
  10 -18  -1 1563.75 77.0800   1
  10 -18   1 1902.94 80.2000   1
  10 -18  -1 1886.96 80.5700   1
 -10 -18  -1 1849.48 64.5800   1
 -10 -18   1 1856.89 63.9300   1
  10  18   1 2102.54 57.5500   1
  16  -8  -3 13.7200 18.7300   1
  16  -8  -3 52.3600 23.1000   1
  16  -8   3 63.2000 33.7100   1
  16   8   3 31.2200 21.0700   1
  16   8  -3 17.4400 20.7400   1
  18   4   1 1692.59 51.8900   1
  18  -4   1 1653.99 64.6900   1
  18   4  -1 1789.29 53.8100   1
  18  -4  -1 1781.51 71.1200   1
  18  -4   1 1723.33 62.9300   1
  13  12  -4 1103.13 42.9000   1
 -13 -12  -4 679.620 33.5700   1
  13 -12  -4 661.870 44.0600   1
  13 -12   4 995.150 55.8300   1
  13 -12  -4 830.990 46.6700   1
  13  12   4 1065.02 42.9100   1
 -13  12   4 889.990 37.3400   1
  -7 -20   0 174.330 32.0700   1
  -7 -20   0 151.310 26.6500   1
   7  20   0 153.320 26.1300   1
  -7 -20   0 196.410 38.4200   1
   7 -20   0 186.320 25.9500   1
   7 -20   0 112.570 25.7700   1
  -1 -18   5 265.170 28.5700   1
  -1 -18  -5 160.730 24.6500   1
   1 -18   5 272.880 30.8600   1
   1 -18  -5 181.180 28.5000   1
  -1 -18  -5 219.540 27.8800   1
   1 -18  -5 196.780 25.0200   1
   1 -18  -5 291.920 31.7100   1
  -1 -18  -5 305.450 32.3400   1
   1 -18  -5 234.870 28.0800   1
  -1 -18  -5 261.800 31.6100   1
  15  -4   5 940.850 55.5700   1
  15  -4   5 986.720 56.0900   1
  15  -4  -5 1002.70 49.4500   1
 -15   4   5 1174.95 51.5600   1
 -15  -4   5 1088.24 46.2900   1
  15   4   5 1233.28 61.7600   1
  15   4  -5 1025.92 50.4400   1
  -8  -4  -8 347.810 33.9300   1
   8  -4  -8 456.350 35.7200   1
  -8  -4  -8 485.460 48.4400   1
  -8   4  -8 338.660 34.5300   1
  -8   4  -8 311.580 34.2200   1
  -8  -4   8 515.250 30.9000   1
  -8   4   8 507.040 32.1200   1
   8 -17  -4 39.2400 30.9800   1
  -8 -17   4 31.8200 32.3000   1
   8  17  -4 91.3100 23.2700   1
   8  17   4 22.7600 14.6200   1
  -8  17   4 32.7300 20.5800   1
   8 -17  -4 47.1900 20.5600   1
   8 -17   4 35.3600 24.3700   1
  -8 -17  -4 43.4700 25.9100   1
  -8 -17   4 54.4200 29.6700   1
   8 -17  -4 23.2400 25.8900   1
  16  -5  -4 1038.42 51.8000   1
  16  -5   4 1106.50 52.5400   1
  16   5  -4 1303.37 52.9300   1
  16   5   4 1176.97 46.6800   1
  16  -5   4 1517.43 72.8800   1
  16  -5  -4 1143.31 61.5400   1
  -7  14   6 60.6600 22.2800   1
   7 -14   6 49.6600 25.6900   1
   7 -14  -6 59.2700 23.5500   1
  -7 -14  -6 87.0900 27.9800   1
  -7 -14   6 76.8900 35.4500   1
   7 -14  -6 63.9500 28.6500   1
   7  14   6 95.3400 31.8500   1
  -7 -14  -6 89.8500 19.8800   1
   7 -14  -6 94.0000 28.2500   1
  -7 -14  -6 57.9500 20.5500   1
  18   0  -2 1128.77 55.4500   1
  18   0   2 885.330 43.7600   1
  -4 -21   1 112.650 24.0100   1
   4 -21   1 135.000 21.3400   1
  -4 -21  -1 130.890 34.6700   1
  -4 -21  -1 163.190 27.6500   1
  -4 -21   1 217.590 35.7300   1
  -4 -21  -1 93.8300 31.8900   1
   4 -21   1 81.2500 23.3800   1
   4 -21   1 104.040 27.2400   1
   4 -21  -1 66.7000 24.4200   1
  -4 -21   1 83.7300 24.0000   1
   4 -21  -1 124.310 24.9200   1
   4 -21  -1 161.790 28.0600   1
  -4 -21   1 89.1600 21.6400   1
  17   7   2 97.5000 23.0500   1
  17   7  -2 103.510 20.2000   1
  17  -7  -2 114.670 26.0500   1
  17  -7   2 102.830 32.5400   1
  17  -7   2 74.0400 22.5300   1
  -2 -21   2 2362.72 88.2300   1
   2 -21   2 2239.63 86.0300   1
  -2 -21  -2 2110.71 84.8600   1
   2 -21  -2 2395.17 106.400   1
  -2 -21  -2 2603.43 76.1800   1
  -2 -21   2 2020.07 66.6400   1
   2 -21  -2 2032.87 56.9800   1
   2 -21   2 2024.39 65.2600   1
   2 -21  -2 1878.74 77.3800   1
   2 -21   2 2326.13 76.4100   1
  -2 -21   2 2413.11 74.5000   1
  18   1   2 34.3500 17.5900   1
  18  -1  -2 27.4200 22.7400   1
  18  -1   2 38.0700 20.8100   1
  18   1  -2 10.6000 21.8300   1
  -2 -10  -8 567.110 48.3400   1
   2 -10  -8 401.520 32.6800   1
   2 -10  -8 552.960 37.3100   1
  -2 -10  -8 548.260 35.8500   1
   2 -10   8 616.110 42.7600   1
  -2 -10  -8 381.310 37.1900   1
   2  10   8 584.720 46.3000   1
  -2 -10   8 676.920 42.2200   1
  -2 -10  -8 500.260 37.1000   1
   2 -10   8 507.300 40.2400   1
  -2  10   8 501.560 35.7500   1
   2 -10  -8 486.970 38.6900   1
   0  -3   9 2529.05 84.7800   1
   0  -3  -9 1695.40 70.9200   1
   0   3   9 2432.68 80.0400   1
  -4 -13   7 101.660 34.8900   1
  -4  13   7 89.0500 24.2600   1
  -4 -13  -7 54.3000 28.5000   1
   4  13   7 94.8600 26.7200   1
   4 -13  -7 13.4600 25.5400   1
  -4 -13  -7 16.1700 21.5300   1
   4 -13  -7 109.620 27.3800   1
   4 -13  -7 64.5500 30.1900   1
  -4 -13  -7 96.2100 29.3500   1
   4 -13   7 96.2600 22.9800   1
 -11  -5  -7 1258.63 40.9400   1
  11  -5  -7 1242.16 56.2100   1
  11  -5   7 1520.35 67.4300   1
 -11  -5  -7 970.270 62.4200   1
 -11  -5  -7 1015.31 54.0400   1
  -2   2   9 2127.83 89.4700   1
   2  -2  -9 1543.71 76.8900   1
  -2  -2   9 2004.86 80.8600   1
   2  -2   9 1909.70 63.6600   1
   2   2   9 1954.32 74.4700   1
  18   5   0 2067.81 64.4000   1
  18  -5   0 1995.94 71.9800   1
  -1  -3   9 332.950 28.2000   1
  -1   3   9 365.610 31.9200   1
  -1  -3  -9 319.540 30.6200   1
   1  -3  -9 297.180 31.6400   1
   1  -3   9 461.970 38.3000   1
   1   3   9 288.820 33.0500   1
  -9  -9  -7 92.3700 24.6800   1
  -9  -9  -7 83.3800 23.1600   1
   9  -9   7 122.860 26.4200   1
  -9   9   7 162.090 23.0000   1
  -9  -9   7 157.890 20.7200   1
   9  -9  -7 156.110 34.8000   1
 -11 -10  -6 1961.78 90.8900   1
  11 -10   6 2081.43 64.9200   1
  11 -10  -6 2069.46 83.4000   1
 -11 -10  -6 2430.69 68.9400   1
  11  10  -6 2403.12 66.8700   1
 -14 -14   1 18.2900 33.0900   1
  14  14   1 41.1800 29.1900   1
  14  14  -1 20.3000 19.6800   1
  14 -14   1 56.6900 28.7300   1
 -14 -14  -1 16.5200 23.4700   1
  14 -14  -1 30.3500 28.8000   1
  -2 -18  -5 1585.55 74.8000   1
   2 -18  -5 2094.01 66.1800   1
  -2 -18  -5 2034.89 70.3800   1
   2 -18  -5 1913.51 72.5500   1
  -2 -18  -5 1802.95 81.8700   1
  -2 -18   5 1783.12 59.7900   1
  -2 -18  -5 1668.57 84.6500   1
   8  19   2 603.900 33.3600   1
   8 -19  -2 478.720 41.4900   1
   8 -19   2 587.610 37.8200   1
  -8 -19   2 585.530 43.0500   1
   8 -19  -2 449.220 28.5000   1
   8  19  -2 621.180 44.4400   1
  -8 -19   2 587.980 31.7700   1
   8 -19  -2 519.930 40.7600   1
  -8 -19  -2 494.080 36.7800   1
  -6 -12  -7 625.110 47.8100   1
   6  12   7 948.590 66.8500   1
  -6  12   7 824.240 50.1800   1
  -6 -12   7 1101.36 66.6000   1
   6 -12   7 908.770 52.8300   1
   6 -12  -7 646.740 41.6100   1
  -6 -12  -7 678.350 51.4500   1
   6 -12  -7 726.160 42.5800   1
   6 -12  -7 912.470 46.7500   1
  -6 -12  -7 634.590 47.4500   1
  -6 -20   2 732.330 43.5200   1
   6 -20  -2 554.000 42.4700   1
   6 -20  -2 744.840 39.9400   1
   6  20   2 779.640 36.5700   1
   6  20  -2 702.530 36.2500   1
  -6 -20  -2 645.830 48.3400   1
   6 -20   2 593.020 46.3800   1
  18   2  -2 770.250 40.2600   1
  18   2   2 807.360 49.0300   1
  18  -2   2 686.210 46.2300   1
  18  -2  -2 853.750 45.1700   1
   9  19   0 728.720 35.1200   1
  -9 -19   0 560.840 35.7000   1
  -3   0   9 -15.760 24.6900   1
   3   0   9 0.20000 24.0200   1
   3  16   6 73.4900 22.2000   1
  -3  16   6 57.2500 21.3100   1
  13  -6   6 719.780 45.0000   1
 -13  -6   6 867.580 35.6200   1
 -13   6   6 639.140 32.1300   1
  16 -11   0 1528.25 81.1700   1
  17  -5   3 1153.05 52.2900   1
;
_shelx_hkl_checksum              32180
_olex2_date_sample_data_collection 14/06/2014
_olex2_submission_original_sample_id '2014lhb055, lhb4_050_02'
_olex2_submission_special_instructions 'No special instructions were received'
loop_
_space_group_symop_operation_xyz
'x, y, z'
'-x, -y, z+1/2'
'-x+1/2, y+1/2, z+1/2'
'x+1/2, -y+1/2, z'
loop_
_atom_site_label
_atom_site_type_symbol
_atom_site_fract_x
_atom_site_fract_y
_atom_site_fract_z
_atom_site_U_iso_or_equiv
_atom_site_adp_type
_atom_site_occupancy
_atom_site_site_symmetry_order
_atom_site_calc_flag
_atom_site_refinement_flags_posn
_atom_site_refinement_flags_adp
_atom_site_refinement_flags_occupancy
_atom_site_disorder_assembly
_atom_site_disorder_group
Sr1 Sr 0.42725(2) 0.53210(2) -0.03314(10) 0.01617(14) Uani 1 1 d . . . . .
F1 F 0.48053(18) 0.74490(15) 0.6169(4) 0.0261(5) Uani 1 1 d . . . . .
F2 F 0.37575(19) 0.87751(14) 0.6121(4) 0.0279(5) Uani 1 1 d . . . . .
F4 F 0.12703(18) 0.73259(16) 0.3323(4) 0.0302(6) Uani 1 1 d . . . . .
F5 F 0.23331(19) 0.60104(15) 0.3284(4) 0.0287(6) Uani 1 1 d . . . . .
O1 O 0.4400(2) 0.5653(2) 0.3119(5) 0.0226(7) Uani 1 1 d . . . . .
O1W O 0.56871(18) 0.6271(2) -0.0289(8) 0.0271(6) Uani 1 1 d . . . . .
H1WA H 0.6040 0.6284 -0.1263 0.041 Uiso 1 1 d G . . . .
H1WB H 0.6018 0.6209 0.0706 0.041 Uiso 1 1 d G . . . .
O2 O 0.4483(3) 0.5682(2) 0.6257(5) 0.0238(7) Uani 1 1 d . . . . .
O3 O 0.1719(3) 0.9165(2) 0.6315(5) 0.0286(8) Uani 1 1 d . . . . .
O4 O 0.1605(2) 0.90913(19) 0.3164(5) 0.0261(7) Uani 1 1 d . . . . .
O11 O 0.2118(2) 0.7140(2) -0.0914(6) 0.0398(9) Uani 1 1 d . . . . .
O12 O 0.2499(2) 0.58832(19) -0.1235(5) 0.0319(7) Uani 1 1 d . . . . .
O13 O 0.3521(2) 0.67343(16) -0.0252(6) 0.0265(6) Uani 1 1 d . . . . .
N11 N 0.2686(3) 0.6591(2) -0.0816(5) 0.0265(8) Uani 1 1 d . . . . .
C1 C 0.4200(2) 0.5943(2) 0.4690(12) 0.0190(7) Uani 1 1 d . . . . .
C2 C 0.3598(3) 0.6691(2) 0.4722(7) 0.0205(7) Uani 1 1 d . . . . .
C3 C 0.3925(3) 0.7404(2) 0.5460(6) 0.0213(7) Uani 1 1 d . . . . .
C4 C 0.3383(3) 0.8089(2) 0.5458(6) 0.0209(7) Uani 1 1 d . . . . .
C5 C 0.2474(3) 0.8089(2) 0.4757(8) 0.0213(7) Uani 1 1 d . . . . .
C6 C 0.1877(3) 0.8842(2) 0.4756(8) 0.0215(7) Uani 1 1 d . . . . .
C7 C 0.2144(3) 0.7370(2) 0.4013(6) 0.0223(8) Uani 1 1 d . . . . .
C8 C 0.2696(3) 0.6687(2) 0.4006(6) 0.0220(8) Uani 1 1 d . . . . .
N101 N 0.0912(4) 0.3251(3) 0.5237(7) 0.0354(9) Uani 1 1 d . . . . .
H101 H 0.1084 0.2754 0.5026 0.042 Uiso 1 1 calc R . . . .
C101 C 0.1566(4) 0.3786(3) 0.5602(7) 0.0352(10) Uani 1 1 d . . . . .
H10A H 0.2204 0.3627 0.5642 0.042 Uiso 1 1 calc R . . . .
C102 C 0.1334(5) 0.4562(3) 0.5922(10) 0.0392(13) Uani 1 1 d . . . . .
H102 H 0.1806 0.4944 0.6207 0.047 Uiso 1 1 calc R . . . .
C103 C 0.0401(5) 0.4789(4) 0.5829(10) 0.0423(13) Uani 1 1 d . . . . .
H103 H 0.0226 0.5330 0.6035 0.051 Uiso 1 1 calc R . . . .
C104 C -0.0271(4) 0.4217(5) 0.5432(9) 0.0497(15) Uani 1 1 d . . . . .
H104 H -0.0914 0.4361 0.5337 0.060 Uiso 1 1 calc R . . . .
C105 C 0.0007(4) 0.3428(4) 0.5173(8) 0.0432(14) Uani 1 1 d . . . . .
H105 H -0.0445 0.3022 0.4954 0.052 Uiso 1 1 calc R . . . .
loop_
_atom_site_aniso_label
_atom_site_aniso_U_11
_atom_site_aniso_U_22
_atom_site_aniso_U_33
_atom_site_aniso_U_23
_atom_site_aniso_U_13
_atom_site_aniso_U_12
Sr1 0.0175(2) 0.0145(2) 0.0165(2) -0.00011(15) -0.00011(17) -0.00002(9)
F1 0.0191(12) 0.0263(12) 0.0330(12) -0.0035(10) -0.0063(10) 0.0019(9)
F2 0.0296(14) 0.0167(10) 0.0373(13) -0.0061(10) -0.0054(11) -0.0005(9)
F4 0.0207(13) 0.0313(13) 0.0387(14) -0.0072(11) -0.0079(11) 0.0039(10)
F5 0.0291(13) 0.0206(11) 0.0363(14) -0.0056(10) -0.0058(12) -0.0011(11)
O1 0.0252(17) 0.0219(19) 0.0206(16) -0.0004(13) 0.0000(12) 0.0062(12)
O1W 0.0265(15) 0.0328(16) 0.0220(14) 0.000(2) -0.0016(15) -0.0080(11)
O2 0.0288(17) 0.0237(18) 0.0190(15) 0.0030(13) -0.0003(14) 0.0062(14)
O3 0.0349(19) 0.0277(16) 0.0233(16) -0.0026(13) 0.0012(14) 0.0103(14)
O4 0.0261(18) 0.0244(16) 0.0277(16) -0.0014(13) -0.0031(14) 0.0066(13)
O11 0.0282(17) 0.0328(16) 0.058(2) 0.0035(16) -0.0011(15) 0.0108(13)
O12 0.0276(17) 0.0291(16) 0.0390(18) -0.0022(13) -0.0015(15) -0.0015(14)
O13 0.0258(14) 0.0222(12) 0.0316(13) -0.0019(15) -0.0032(17) 0.0023(10)
N11 0.0230(18) 0.0269(17) 0.030(2) 0.0037(13) 0.0012(13) 0.0053(14)
C1 0.0216(16) 0.0163(15) 0.0191(16) 0.000(2) 0.000(2) 0.0022(12)
C2 0.0240(17) 0.0179(14) 0.0195(14) 0.0017(18) 0.002(2) 0.0051(13)
C3 0.0183(19) 0.0229(18) 0.0228(16) -0.0004(15) -0.0009(16) 0.0022(15)
C4 0.023(2) 0.0158(16) 0.0235(16) -0.0008(15) -0.0006(15) -0.0005(14)
C5 0.0211(17) 0.0209(15) 0.0219(15) -0.0003(18) 0.004(2) 0.0041(13)
C6 0.0198(16) 0.0205(14) 0.0243(17) 0.003(2) 0.001(2) 0.0055(13)
C7 0.0165(19) 0.0235(18) 0.0268(18) -0.0011(15) -0.0021(14) 0.0034(15)
C8 0.025(2) 0.0176(16) 0.0230(16) -0.0029(14) 0.0013(15) 0.0009(15)
N101 0.045(2) 0.031(2) 0.030(2) 0.0009(16) 0.0004(18) 0.0018(18)
C101 0.030(2) 0.044(3) 0.032(2) 0.000(2) -0.0057(19) 0.006(2)
C102 0.043(3) 0.036(3) 0.038(3) -0.001(2) -0.010(3) -0.006(2)
C103 0.052(4) 0.034(3) 0.041(3) -0.002(2) -0.002(3) 0.012(3)
C104 0.027(3) 0.082(4) 0.040(3) 0.000(3) 0.002(2) 0.014(3)
C105 0.042(3) 0.053(3) 0.035(3) -0.002(2) 0.003(2) -0.022(3)
loop_
_atom_type_symbol
_atom_type_description
_atom_type_scat_dispersion_real
_atom_type_scat_dispersion_imag
_atom_type_scat_source
C C 0.0033 0.0016 'International Tables Vol C Tables 4.2.6.8 and 6.1.1.4'
H H 0.0000 0.0000 'International Tables Vol C Tables 4.2.6.8 and 6.1.1.4'
F F 0.0171 0.0103 'International Tables Vol C Tables 4.2.6.8 and 6.1.1.4'
N N 0.0061 0.0033 'International Tables Vol C Tables 4.2.6.8 and 6.1.1.4'
O O 0.0106 0.0060 'International Tables Vol C Tables 4.2.6.8 and 6.1.1.4'
Sr Sr -1.5307 3.2498 'International Tables Vol C Tables 4.2.6.8 and 6.1.1.4'
loop_
_geom_angle_atom_site_label_1
_geom_angle_atom_site_label_2
_geom_angle_atom_site_label_3
_geom_angle
_geom_angle_site_symmetry_1
_geom_angle_site_symmetry_3
O1 Sr1 O1 118.08(9) . 2_664
O1 Sr1 O1W 78.08(14) . .
O1 Sr1 O2 71.82(10) . 2_664
O1 Sr1 O3 77.22(11) . 3_544
O1 Sr1 O4 126.85(11) . 3_544
O1 Sr1 O12 102.30(11) . .
O1 Sr1 O12 138.24(11) 2_664 .
O1 Sr1 O13 78.81(12) . .
O1 Sr1 N11 90.39(10) . .
O1 Sr1 N11 150.13(11) 2_664 .
O1 Sr1 C1 24.02(18) 2_664 2_664
O1 Sr1 C1 95.65(17) . 2_664
O1 Sr1 C6 83.90(11) 2_664 3_544
O1 Sr1 C6 101.89(13) . 3_544
O1W Sr1 O1 80.13(11) . 2_664
O1W Sr1 O2 82.10(11) . 2_664
O1W Sr1 O3 149.60(14) . 3_544
O1W Sr1 O4 149.61(13) . 3_544
O1W Sr1 O12 120.64(10) . .
O1W Sr1 O13 76.15(10) . .
O1W Sr1 N11 98.62(10) . .
O1W Sr1 C1 82.35(9) . 2_664
O1W Sr1 C6 161.66(11) . 3_544
O2 Sr1 O1 48.10(8) 2_664 2_664
O2 Sr1 O1 150.75(10) 1_554 .
O2 Sr1 O1 71.19(11) 1_554 2_664
O2 Sr1 O1W 76.47(15) 1_554 .
O2 Sr1 O2 118.14(9) 1_554 2_664
O2 Sr1 O3 131.21(12) 1_554 3_544
O2 Sr1 O4 82.02(12) 1_554 3_544
O2 Sr1 O12 155.54(11) 2_664 .
O2 Sr1 O12 78.90(12) 1_554 .
O2 Sr1 O13 81.31(12) 1_554 .
O2 Sr1 N11 161.74(10) 2_664 .
O2 Sr1 N11 79.46(11) 1_554 .
O2 Sr1 C1 95.02(17) 1_554 2_664
O2 Sr1 C1 24.25(18) 2_664 2_664
O2 Sr1 C6 106.81(14) 1_554 3_544
O2 Sr1 C6 80.54(11) 2_664 3_544
O3 Sr1 O1 96.22(11) 3_544 2_664
O3 Sr1 O2 73.57(12) 3_544 2_664
O3 Sr1 O12 81.98(11) 3_544 .
O3 Sr1 N11 98.99(11) 3_544 .
O3 Sr1 C1 82.74(12) 3_544 2_664
O3 Sr1 C6 24.69(13) 3_544 3_544
O4 Sr1 O1 72.70(10) 3_544 2_664
O4 Sr1 O2 89.56(12) 3_544 2_664
O4 Sr1 O3 49.64(9) 3_544 3_544
O4 Sr1 O12 74.89(10) 3_544 .
O4 Sr1 N11 98.25(11) 3_544 .
O4 Sr1 C1 78.39(12) 3_544 2_664
O4 Sr1 C6 24.96(12) 3_544 3_544
O12 Sr1 N11 23.49(10) . .
O12 Sr1 C1 153.16(12) . 2_664
O12 Sr1 C6 77.50(10) . 3_544
O13 Sr1 O1 147.14(11) . 2_664
O13 Sr1 O2 146.42(11) . 2_664
O13 Sr1 O3 115.67(11) . 3_544
O13 Sr1 O4 121.65(11) . 3_544
O13 Sr1 O12 47.11(9) . .
O13 Sr1 N11 23.62(10) . .
O13 Sr1 C1 158.46(10) . 2_664
O13 Sr1 C6 122.05(10) . 3_544
C1 Sr1 N11 173.95(17) 2_664 .
C6 Sr1 N11 99.72(10) 3_544 .
C6 Sr1 C1 79.40(9) 3_544 2_664
Sr1 O1 Sr1 107.75(12) . 2_665
C1 O1 Sr1 92.2(3) . 2_665
C1 O1 Sr1 159.5(3) . .
Sr1 O1W H1WA 118.2 . .
Sr1 O1W H1WB 111.8 . .
H1WA O1W H1WB 109.6 . .
Sr1 O2 Sr1 109.10(12) 1_556 2_665
C1 O2 Sr1 93.8(3) . 2_665
C1 O2 Sr1 153.2(3) . 1_556
C6 O3 Sr1 91.7(2) . 3
C6 O4 Sr1 92.9(2) . 3
N11 O12 Sr1 94.2(3) . .
N11 O13 Sr1 101.9(2) . .
O11 N11 Sr1 173.8(3) . .
O11 N11 O12 123.8(4) . .
O11 N11 O13 119.5(4) . .
O12 N11 Sr1 62.3(2) . .
O12 N11 O13 116.8(4) . .
O13 N11 Sr1 54.45(18) . .
O1 C1 Sr1 63.8(2) . 2_665
O1 C1 O2 125.0(3) . .
O1 C1 C2 117.8(6) . .
O2 C1 Sr1 62.0(2) . 2_665
O2 C1 C2 117.2(6) . .
C2 C1 Sr1 168.6(2) . 2_665
C3 C2 C1 121.8(4) . .
C3 C2 C8 117.0(3) . .
C8 C2 C1 121.2(4) . .
F1 C3 C2 120.0(3) . .
F1 C3 C4 118.2(3) . .
C2 C3 C4 121.8(4) . .
F2 C4 C3 118.9(4) . .
F2 C4 C5 119.5(3) . .
C3 C4 C5 121.6(3) . .
C4 C5 C6 121.6(3) . .
C4 C5 C7 116.6(3) . .
C7 C5 C6 121.8(3) . .
O3 C6 Sr1 63.6(2) . 3
O3 C6 O4 125.8(3) . .
O3 C6 C5 117.5(4) . .
O4 C6 Sr1 62.2(2) . 3
O4 C6 C5 116.7(4) . .
C5 C6 Sr1 178.7(3) . 3
F4 C7 C5 119.8(3) . .
F4 C7 C8 118.8(4) . .
C8 C7 C5 121.4(4) . .
F5 C8 C2 120.0(3) . .
F5 C8 C7 118.5(4) . .
C2 C8 C7 121.6(4) . .
C101 N101 H101 118.5 . .
C101 N101 C105 123.0(5) . .
C105 N101 H101 118.5 . .
N101 C101 H10A 119.7 . .
N101 C101 C102 120.6(5) . .
C102 C101 H10A 119.7 . .
C101 C102 H102 120.4 . .
C101 C102 C103 119.2(5) . .
C103 C102 H102 120.4 . .
C102 C103 H103 120.4 . .
C104 C103 C102 119.1(5) . .
C104 C103 H103 120.4 . .
C103 C104 H104 120.5 . .
C103 C104 C105 119.0(6) . .
C105 C104 H104 120.5 . .
N101 C105 C104 119.1(5) . .
N101 C105 H105 120.4 . .
C104 C105 H105 120.4 . .
loop_
_geom_bond_atom_site_label_1
_geom_bond_atom_site_label_2
_geom_bond_distance
_geom_bond_site_symmetry_2
Sr1 O1 2.491(4) .
Sr1 O1 2.726(3) 2_664
Sr1 O1W 2.569(3) .
Sr1 O2 2.686(4) 2_664
Sr1 O2 2.488(4) 1_554
Sr1 O3 2.661(3) 3_544
Sr1 O4 2.630(3) 3_544
Sr1 O12 2.773(4) .
Sr1 O13 2.597(3) .
Sr1 N11 3.123(4) .
Sr1 C1 3.037(3) 2_664
Sr1 C6 2.969(3) 3_544
F1 C3 1.353(5) .
F2 C4 1.349(4) .
F4 C7 1.340(5) .
F5 C8 1.344(5) .
O1 Sr1 2.726(3) 2_665
O1 C1 1.237(9) .
O1W H1WA 0.8498 .
O1W H1WB 0.8497 .
O2 Sr1 2.488(4) 1_556
O2 Sr1 2.686(4) 2_665
O2 C1 1.250(9) .
O3 Sr1 2.661(3) 3
O3 C6 1.241(6) .
O4 Sr1 2.630(3) 3
O4 C6 1.255(6) .
O11 N11 1.227(5) .
O12 N11 1.248(5) .
O13 N11 1.279(5) .
C1 Sr1 3.037(3) 2_665
C1 C2 1.518(5) .
C2 C3 1.381(5) .
C2 C8 1.382(6) .
C3 C4 1.383(5) .
C4 C5 1.387(6) .
C5 C6 1.520(5) .
C5 C7 1.394(5) .
C6 Sr1 2.969(3) 3
C7 C8 1.387(6) .
N101 H101 0.8800 .
N101 C101 1.318(7) .
N101 C105 1.326(8) .
C101 H10A 0.9500 .
C101 C102 1.359(7) .
C102 H102 0.9500 .
C102 C103 1.386(10) .
C103 H103 0.9500 .
C103 C104 1.384(10) .
C104 H104 0.9500 .
C104 C105 1.390(9) .
C105 H105 0.9500 .
loop_
_geom_hbond_atom_site_label_D
_geom_hbond_atom_site_label_H
_geom_hbond_atom_site_label_A
_geom_hbond_distance_DH
_geom_hbond_distance_HA
_geom_hbond_distance_DA
_geom_hbond_angle_DHA
_geom_hbond_site_symmetry_A
O1W H1WA O3 0.85 2.10 2.896(6) 156.5 4_564
O1W H1WB O4 0.85 1.98 2.820(6) 168.9 4_565
N101 H101 O13 0.88 1.81 2.686(5) 176.1 3_545
loop_
_geom_torsion_atom_site_label_1
_geom_torsion_atom_site_label_2
_geom_torsion_atom_site_label_3
_geom_torsion_atom_site_label_4
_geom_torsion
_geom_torsion_site_symmetry_1
_geom_torsion_site_symmetry_2
_geom_torsion_site_symmetry_3
_geom_torsion_site_symmetry_4
Sr1 O1 C1 Sr1 167.1(9) . . . 2_665
Sr1 O1 C1 O2 -10.1(4) 2_665 . . .
Sr1 O1 C1 O2 157.0(8) . . . .
Sr1 O1 C1 C2 167.3(3) 2_665 . . .
Sr1 O1 C1 C2 -25.6(11) . . . .
Sr1 O2 C1 Sr1 -149.2(7) 1_556 . . 2_665
Sr1 O2 C1 O1 10.3(4) 2_665 . . .
Sr1 O2 C1 O1 -138.9(6) 1_556 . . .
Sr1 O2 C1 C2 -167.1(3) 2_665 . . .
Sr1 O2 C1 C2 43.7(8) 1_556 . . .
Sr1 O3 C6 O4 1.0(4) 3 . . .
Sr1 O3 C6 C5 179.2(3) 3 . . .
Sr1 O4 C6 O3 -1.0(5) 3 . . .
Sr1 O4 C6 C5 -179.3(3) 3 . . .
Sr1 O12 N11 O11 -178.7(4) . . . .
Sr1 O12 N11 O13 1.1(4) . . . .
Sr1 O13 N11 O11 178.6(3) . . . .
Sr1 O13 N11 O12 -1.2(4) . . . .
Sr1 C1 C2 C3 -23(3) 2_665 . . .
Sr1 C1 C2 C8 157(2) 2_665 . . .
F1 C3 C4 F2 1.4(6) . . . .
F1 C3 C4 C5 -179.9(4) . . . .
F2 C4 C5 C6 -1.4(7) . . . .
F2 C4 C5 C7 177.1(4) . . . .
F4 C7 C8 F5 0.8(6) . . . .
F4 C7 C8 C2 -179.1(4) . . . .
O1 C1 C2 C3 -117.6(5) . . . .
O1 C1 C2 C8 62.2(6) . . . .
O2 C1 C2 C3 59.9(6) . . . .
O2 C1 C2 C8 -120.2(5) . . . .
C1 C2 C3 F1 0.4(8) . . . .
C1 C2 C3 C4 178.8(5) . . . .
C1 C2 C8 F5 0.8(7) . . . .
C1 C2 C8 C7 -179.4(5) . . . .
C2 C3 C4 F2 -177.0(4) . . . .
C2 C3 C4 C5 1.6(7) . . . .
C3 C2 C8 F5 -179.4(4) . . . .
C3 C2 C8 C7 0.5(7) . . . .
C3 C4 C5 C6 179.9(4) . . . .
C3 C4 C5 C7 -1.5(7) . . . .
C4 C5 C6 O3 -59.3(6) . . . .
C4 C5 C6 O4 119.1(5) . . . .
C4 C5 C7 F4 179.5(4) . . . .
C4 C5 C7 C8 1.0(7) . . . .
C5 C7 C8 F5 179.4(4) . . . .
C5 C7 C8 C2 -0.5(7) . . . .
C6 C5 C7 F4 -1.9(7) . . . .
C6 C5 C7 C8 179.5(4) . . . .
C7 C5 C6 O3 122.2(5) . . . .
C7 C5 C6 O4 -59.4(6) . . . .
C8 C2 C3 F1 -179.5(4) . . . .
C8 C2 C3 C4 -1.1(7) . . . .
N101 C101 C102 C103 -1.1(9) . . . .
C101 N101 C105 C104 2.4(9) . . . .
C101 C102 C103 C104 0.7(9) . . . .
C102 C103 C104 C105 1.2(9) . . . .
C103 C104 C105 N101 -2.7(9) . . . .
C105 N101 C101 C102 -0.5(8) . . . .
loop_
_twin_individual_id
_twin_individual_mass_fraction_refined
1 0.54532
2 0.45468
