#------------------------------------------------------------------------------
#$Date: 2015-07-16 18:05:34 +0300 (Thu, 16 Jul 2015) $
#$Revision: 152130 $
#$URL: svn://www.crystallography.net/cod/cif/7/11/75/7117547.cif $
#------------------------------------------------------------------------------
#
# This file is available in the Crystallography Open Database (COD),
# http://www.crystallography.net/
#
# All data on this site have been placed in the public domain by the
# contributors.
#
data_7117547
loop_
_publ_author_name
'L. H. Blair'
'A. Colakel'
'R. M. Vrcelj'
'I. Sinclair'
'S. J. Coles'
_publ_section_title
;
 Metal-organic fireworks: MOFs as integrated structural scaffolds for
 pyrotechnic materials
;
_journal_name_full               Chem.Commun.
_journal_page_first              12185
_journal_paper_doi               10.1039/C5cc04174K
_journal_volume                  51
_journal_year                    2015
_chemical_formula_moiety         'C11 H13 F4 N O8 Sr, H2 O'
_chemical_formula_sum            'C11 H15 F4 N O9 Sr'
_chemical_formula_weight         468.86
_chemical_name_systematic
;
 ?
;
_space_group_crystal_system      triclinic
_space_group_IT_number           2
_space_group_name_Hall           '-P 1'
_space_group_name_H-M_alt        'P -1'
_symmetry_space_group_name_Hall  '-P 1'
_symmetry_space_group_name_H-M   'P -1'
_atom_sites_solution_hydrogens   mixed
_atom_sites_solution_primary     iterative
_audit_creation_date             2015-01-29
_audit_creation_method
;
Olex2 1.2
(compiled 2015.01.19 svn.r3143 for OlexSys, GUI svn.r4992)
;
_audit_update_record
;
2015-01-30 deposited with the CCDC.
2015-06-23 downloaded from the CCDC.
;
_cell_angle_alpha                92.612(16)
_cell_angle_beta                 93.939(17)
_cell_angle_gamma                100.991(18)
_cell_formula_units_Z            2
_cell_length_a                   8.8263(7)
_cell_length_b                   8.9293(7)
_cell_length_c                   10.8630(9)
_cell_measurement_reflns_used    0
_cell_measurement_temperature    100(2)
_cell_measurement_theta_max      27.5
_cell_measurement_theta_min      2.9
_cell_volume                     836.95(13)
_computing_cell_refinement
'CrystalClear-SM Expert 3.1 b27 (Rigaku, 2013)'
_computing_data_collection
'CrystalClear-SM Expert 3.1 b27 (Rigaku, 2013)'
_computing_data_reduction
'CrystalClear-SM Expert 3.1 b27 (Rigaku, 2013)'
_computing_molecular_graphics    'Olex2 (Dolomanov et al., 2009)'
_computing_publication_material  'Olex2 (Dolomanov et al., 2009)'
_computing_structure_refinement  'ShelXL (Sheldrick, 2008)'
_computing_structure_solution
;
Superflip (Palatinus & Chapuis, 2007;Palatinus & van der Lee, 2008;
Palatinus et al., 2012)
;
_diffrn_ambient_temperature      100(2)
_diffrn_detector                 'CCD area detector'
_diffrn_detector_area_resol_mean 28.5714
_diffrn_detector_type            'Rigaku HG Saturn724+ (2x2 bin mode)'
_diffrn_measured_fraction_theta_full 0.998
_diffrn_measured_fraction_theta_max 0.994
_diffrn_measurement_details
;
scan:
    Number of images: 104
               Slice: -31.0000 - 73.0000
         Image width: 1.0000
            Exp time: 10.0000
       Rotation axis: Omega
               Omega: 0.0000
               Kappa: 72.0000
                 Phi: 60.0000
                 XTD: 44.8458
              2theta: -17.3878
scan:
    Number of images: 91
               Slice: -69.0000 - 22.0000
         Image width: 1.0000
            Exp time: 10.0000
       Rotation axis: Omega
               Omega: 0.0000
               Kappa: -72.0000
                 Phi: -60.0000
                 XTD: 44.8458
              2theta: -17.3878
scan:
    Number of images: 88
               Slice: -66.0000 - 22.0000
         Image width: 1.0000
            Exp time: 10.0000
       Rotation axis: Omega
               Omega: 0.0000
               Kappa: -72.0000
                 Phi: 120.0000
                 XTD: 44.8458
              2theta: -17.3878
scan:
    Number of images: 72
               Slice: -54.0000 - 18.0000
         Image width: 1.0000
            Exp time: 10.0000
       Rotation axis: Omega
               Omega: 0.0000
               Kappa: 0.0000
                 Phi: 90.0000
                 XTD: 44.8458
              2theta: -17.3878
scan:
    Number of images: 16
               Slice: -8.0000 - 8.0000
         Image width: 1.0000
            Exp time: 10.0000
       Rotation axis: Omega
               Omega: 0.0000
               Kappa: -54.0000
                 Phi: 150.0000
                 XTD: 44.8458
              2theta: -17.3878
scan:
    Number of images: 180
               Slice: -107.0000 - 73.0000
         Image width: 1.0000
            Exp time: 10.0000
       Rotation axis: Omega
               Omega: 0.0000
               Kappa: 0.0000
                 Phi: -90.0000
                 XTD: 44.8458
              2theta: -17.3878
scan:
    Number of images: 16
               Slice: -60.0000 - -44.0000
         Image width: 1.0000
            Exp time: 10.0000
       Rotation axis: Omega
               Omega: 0.0000
               Kappa: -72.0000
                 Phi: -150.0000
                 XTD: 44.8458
              2theta: -17.3878
;
_diffrn_measurement_device       'four-circle \k diffractometer'
_diffrn_measurement_device_type  'Rigaku AFC12 (Right)'
_diffrn_measurement_method       'profile data from \w-scans'
_diffrn_measurement_specimen_support 'MiTeGen MicroMesh'
_diffrn_orient_matrix_type       d*Trek
_diffrn_orient_matrix_UB_11      0.113468
_diffrn_orient_matrix_UB_12      -0.017984
_diffrn_orient_matrix_UB_13      -0.014343
_diffrn_orient_matrix_UB_21      0.039959
_diffrn_orient_matrix_UB_22      0.107046
_diffrn_orient_matrix_UB_23      0.002518
_diffrn_orient_matrix_UB_31      0.018397
_diffrn_orient_matrix_UB_32      -0.003085
_diffrn_orient_matrix_UB_33      0.090538
_diffrn_radiation_collimation    0.3
_diffrn_radiation_monochromator  'Confocal mirrors, VHF Varimax'
_diffrn_radiation_probe          x-ray
_diffrn_radiation_type           MoK\a
_diffrn_radiation_wavelength     0.71075
_diffrn_reflns_av_R_equivalents  0.1280
_diffrn_reflns_av_unetI/netI     0.1182
_diffrn_reflns_laue_measured_fraction_full 0.998
_diffrn_reflns_laue_measured_fraction_max 0.994
_diffrn_reflns_limit_h_max       11
_diffrn_reflns_limit_h_min       -11
_diffrn_reflns_limit_k_max       11
_diffrn_reflns_limit_k_min       -11
_diffrn_reflns_limit_l_max       14
_diffrn_reflns_limit_l_min       -14
_diffrn_reflns_number            11298
_diffrn_reflns_point_group_measured_fraction_full 0.998
_diffrn_reflns_point_group_measured_fraction_max 0.994
_diffrn_reflns_theta_full        25.242
_diffrn_reflns_theta_max         27.554
_diffrn_reflns_theta_min         2.899
_diffrn_source                   'Rotating Anode'
_diffrn_source_current           55.0
_diffrn_source_power             2.475
_diffrn_source_target            Mo
_diffrn_source_type              'Rotating Anode'
_diffrn_source_voltage           45.0
_exptl_absorpt_coefficient_mu    3.311
_exptl_absorpt_correction_T_max  1.000
_exptl_absorpt_correction_T_min  0.289
_exptl_absorpt_correction_type   multi-scan
_exptl_absorpt_process_details
;
CrystalClear-SM Expert 3.1 b27 (Rigaku, 2013)
;
_exptl_crystal_colour            Colorless
_exptl_crystal_density_diffrn    1.860
_exptl_crystal_description       Plate
_exptl_crystal_F_000             468
_exptl_crystal_size_max          0.06
_exptl_crystal_size_mid          0.04
_exptl_crystal_size_min          0.01
_refine_diff_density_max         2.981
_refine_diff_density_min         -1.807
_refine_diff_density_rms         0.238
_refine_ls_extinction_coef       .
_refine_ls_extinction_method     none
_refine_ls_goodness_of_fit_ref   1.009
_refine_ls_hydrogen_treatment    constr
_refine_ls_matrix_type           full
_refine_ls_number_parameters     243
_refine_ls_number_reflns         3861
_refine_ls_number_restraints     0
_refine_ls_restrained_S_all      1.009
_refine_ls_R_factor_all          0.1114
_refine_ls_R_factor_gt           0.0858
_refine_ls_shift/su_max          0.000
_refine_ls_shift/su_mean         0.000
_refine_ls_structure_factor_coef Fsqd
_refine_ls_weighting_details
'w=1/[\s^2^(Fo^2^)+(0.1313P)^2^] where P=(Fo^2^+2Fc^2^)/3'
_refine_ls_weighting_scheme      calc
_refine_ls_wR_factor_gt          0.2044
_refine_ls_wR_factor_ref         0.2221
_reflns_Friedel_coverage         0.000
_reflns_friedel_fraction_full    .
_reflns_friedel_fraction_max     .
_reflns_number_gt                2799
_reflns_number_total             3861
_reflns_threshold_expression     'I > 2\s(I)'
_cod_data_source_file            c5cc04174k2.cif
_cod_data_source_block           sr_isofbdc_1
_cod_database_code               7117547
_shelxl_version_number           2013-3
_shelx_space_group_comment
;
The symmetry employed for this shelxl refinement is uniquely defined
by the following loop, which should always be used as a source of
symmetry information in preference to the above space-group names.
They are only intended as comments.
;
_olex2_refinement_description
;
1. Fixed Uiso
 At 1.2 times of:
  All C(H) groups
 At 1.5 times of:
  All C(H,H,H) groups, All O(H,H) groups
2.a Free rotating group:
 O101(H10A,H10B)
2.b Rotating group:
 O1W(H1WA,H1WB), O2W(H2WA,H2WB), O3W(H3WA,H3WB)
2.c Aromatic/amide H refined with riding coordinates:
 C1S(H1S)
2.d Idealised Me refined as rotating group:
 C2S(H2SA,H2SB,H2SC), C3S(H3SA,H3SB,H3SC)
;
_shelx_res_file
;
TITL 2014lhb127
CELL 0.71075 8.8263 8.9293 10.863 92.612 93.939 100.991
ZERR 2 0.0007 0.0007 0.0009 0.016 0.017 0.018
LATT 1
SFAC C H F N O Sr
UNIT 22 30 8 2 18 2
EQIV $1 1-X,1-Y,1-Z
EQIV $2 -X,1-Y,1-Z
EQIV $3 -X,-Y,1-Z
EQIV $4 +X,-1+Y,+Z
EQIV $5 1+X,+Y,+Z

L.S. 4 0 0
PLAN  20
TEMP -173(2)
HTAB O1W O3_$2
HTAB O1W O101_$3
HTAB O2W O2_$4
HTAB O2W O101_$3
HTAB O3W O2_$4
HTAB O3W O4_$5
HTAB O101 O2W
HTAB O101 O4
FREE Sr1 Sr1_$1
FREE Sr1 C1_$1
MORE -1
BOND $H
CONF
fmap 2 53
acta
REM <olex2.extras>
REM <HklSrc "%.\\Sr_isofBDC.hkl">
REM </olex2.extras>

WGHT    0.131300
FVAR       2.00918
SR1   6    0.429792    0.283707    0.580362    11.00000    0.01896    0.02797 =
         0.03892    0.00436    0.00041    0.01267
F1    3    0.301403    0.871509    0.814945    11.00000    0.03138    0.02907 =
         0.04868   -0.00315    0.00368    0.00655
F2    3    0.072492    0.823909    0.967382    11.00000    0.03111    0.04896 =
         0.04718   -0.01070    0.00868    0.01197
F3    3   -0.154096    0.573533    0.929066    11.00000    0.02798    0.04353 =
         0.04808    0.00083    0.00867    0.00839
F4    3    0.082031    0.411706    0.585826    11.00000    0.02627    0.03185 =
         0.04591   -0.00262   -0.00184    0.01280
O1    5    0.393011    0.552870    0.585079    11.00000    0.02468    0.02852 =
         0.03932    0.00545    0.00550    0.01631
O1S   5    0.302614    0.297334    0.777978    11.00000    0.03478    0.05055 =
         0.03660    0.00824    0.00422    0.02574
O1W   5    0.270528    0.285774    0.374223    11.00000    0.02706    0.03134 =
         0.04760    0.00614   -0.00229    0.01084
AFIX   7
H1WA  2    0.248536    0.377834    0.364444    11.00000   -1.50000
H1WB  2    0.182179    0.218203    0.372702    11.00000   -1.50000
AFIX   0
O2    5    0.377833    0.796793    0.578071    11.00000    0.02176    0.02642 =
         0.04495    0.00325    0.00165    0.01326
O2W   5    0.225993    0.029360    0.543054    11.00000    0.01951    0.03531 =
         0.04877    0.00260   -0.00232    0.01183
AFIX   7
H2WA  2    0.271654   -0.054070    0.550087    11.00000   -1.50000
H2WB  2    0.175627    0.021304    0.465747    11.00000   -1.50000
AFIX   0
O3    5   -0.302423    0.406193    0.689061    11.00000    0.02179    0.03371 =
         0.04169    0.00541   -0.00115    0.01469
O3W   5    0.535018    0.078304    0.694820    11.00000    0.02658    0.03293 =
         0.04236    0.00216   -0.00368    0.01555
AFIX   7
H3WA  2    0.636667    0.107145    0.713702    11.00000   -1.50000
H3WB  2    0.518160   -0.008815    0.647959    11.00000   -1.50000
AFIX   0
O4    5   -0.167168    0.227146    0.741211    11.00000    0.02078    0.03347 =
         0.06958    0.00718    0.00145    0.01296
N1S   4    0.381662    0.228602    0.966255    11.00000    0.02789    0.04404 =
         0.03678    0.00347    0.00057    0.01232
C1    1    0.332944    0.665100    0.613792    11.00000    0.01635    0.02931 =
         0.03454    0.00062   -0.00088    0.01179
C1S   1    0.277674    0.230197    0.872423    11.00000    0.03647    0.04249 =
         0.03683    0.00427    0.00346    0.02349
AFIX  43
H1S   2    0.175698    0.174794    0.879076    11.00000   -1.20000
AFIX   0
C2    1    0.201551    0.639521    0.697600    11.00000    0.02424    0.03558 =
         0.03427    0.00587   -0.00171    0.01751
C2S   1    0.343905    0.144290    1.075234    11.00000    0.03511    0.04909 =
         0.04669    0.00990   -0.00364    0.01171
AFIX 137
H2SA  2    0.234303    0.094852    1.066720    11.00000   -1.50000
H2SB  2    0.364062    0.214903    1.148847    11.00000   -1.50000
H2SC  2    0.407931    0.066353    1.083501    11.00000   -1.50000
AFIX   0
C3    1    0.193091    0.743979    0.793361    11.00000    0.02290    0.03453 =
         0.03685   -0.00128   -0.00449    0.00999
C3S   1    0.539238    0.310202    0.963190    11.00000    0.02973    0.04836 =
         0.04967    0.00790    0.00185    0.01567
AFIX 137
H3SA  2    0.569902    0.374579    1.039683    11.00000   -1.50000
H3SB  2    0.546484    0.374525    0.892282    11.00000   -1.50000
H3SC  2    0.608183    0.236836    0.955528    11.00000   -1.50000
AFIX   0
C4    1    0.075033    0.719900    0.872301    11.00000    0.03057    0.03413 =
         0.04011    0.00241   -0.00161    0.01311
C5    1   -0.038497    0.592609    0.851070    11.00000    0.02286    0.03757 =
         0.03813    0.00647    0.00163    0.01295
C6    1   -0.041611    0.487791    0.756203    11.00000    0.01943    0.03123 =
         0.04008    0.00657   -0.00156    0.01304
C7    1   -0.180437    0.360641    0.725878    11.00000    0.02278    0.03314 =
         0.04480    0.00526    0.00385    0.01391
C8    1    0.083796    0.512726    0.681471    11.00000    0.02359    0.02980 =
         0.03873    0.00327   -0.00035    0.01628

AFIX   6
O101  5   -0.036690   -0.017799    0.680642    11.00000    0.02791    0.03587 =
         0.05559    0.00238    0.00271    0.01546
H10A  2   -0.064129    0.065563    0.707617    11.00000   -1.50000
H10B  2    0.052848    0.005058    0.650107    11.00000   -1.50000
AFIX   0
HKLF 4

REM  2014lhb127
REM R1 =  0.0858 for    2799 Fo > 4sig(Fo)  and  0.1114 for all    3861 data
REM    243 parameters refined using      0 restraints

END

WGHT      0.1312      0.0000

REM Highest difference peak  2.981,  deepest hole -1.807,  1-sigma level  0.238
Q1    1   0.3815  0.1815  0.5516  11.00000  0.05    2.98
Q2    1   0.4805  0.3798  0.6055  11.00000  0.05    2.78
Q3    1   0.4490  0.3016  0.5006  11.00000  0.05    2.46
Q4    1   0.4094  0.2533  0.6578  11.00000  0.05    2.35
Q5    1   0.1175  0.8217  0.8919  11.00000  0.05    0.94
Q6    1   0.1136  0.5086  0.6172  11.00000  0.05    0.83
Q7    1   0.0032  0.6480  0.8187  11.00000  0.05    0.80
Q8    1   0.3547  0.7816  0.6558  11.00000  0.05    0.79
Q9    1   0.3079  0.8612  0.7325  11.00000  0.05    0.79
Q10   1   0.2766  0.2278  0.7791  11.00000  0.05    0.77
Q11   1   0.2440  0.7740  0.7854  11.00000  0.05    0.75
Q12   1   0.0607  0.7367  0.8974  11.00000  0.05    0.75
Q13   1   0.3543  0.2054  1.0205  11.00000  0.05    0.74
Q14   1   0.0417  0.4111  0.6798  11.00000  0.05    0.72
Q15   1   0.0197  0.6248  0.8760  11.00000  0.05    0.71
Q16   1   0.2710  0.1230  0.5796  11.00000  0.05    0.70
Q17   1   0.2733  0.2459  0.7253  11.00000  0.05    0.67
Q18   1   0.2343  0.7380  0.7275  11.00000  0.05    0.67
Q19   1   0.2732  0.8464  0.8338  11.00000  0.05    0.64
Q20   1   0.5509  0.3247  0.5377  11.00000  0.05    0.63
;
_shelx_res_checksum              42667
_shelx_hkl_file
;
  -1   0   1 5063.54 417.170   1
   1   0  -1 5198.17 235.460   1
   0   1  -1 47.2600 219.510   1
   0   1  -1 119.790 99.3900   1
   0  -1   1 177.920 165.610   1
   0  -1   1 68.8500 76.7800   1
  -1   1   0 1041.04 186.520   1
   1  -1   0 1219.05 124.490   1
   1  -1   0 1171.40 190.590   1
   0  -1  -1 12361.6 472.950   1
   0   1   1 10071.3 535.760   1
   1   0   1 54663.0 1227.01   1
  -1   0  -1 58053.3 1439.34   1
  -1   0  -1 52391.7 1278.14   1
  -1   1   1 26509.7 902.730   1
   1  -1  -1 27542.3 814.990   1
  -1   1   1 26327.2 906.350   1
   1  -1  -1 32292.6 624.240   1
   1  -1   1 3335.37 293.620   1
  -1   1  -1 3122.12 238.940   1
  -1   1  -1 2612.50 285.570   1
   1  -1   1 2652.91 277.840   1
  -1   1  -1 2114.15 214.950   1
  -1  -1   0 2816.10 258.210   1
  -1  -1   0 2317.68 451.210   1
   0   0  -2 324.970 129.330   1
   0   0  -2 479.420 174.130   1
   0   0   2 336.020 136.850   1
   0   0   2 312.380 208.560   1
   0   0   2 503.080 173.930   1
   0   0  -2 414.440 182.400   1
   0   0  -2 296.600 193.550   1
   0   0  -2 419.890 205.670   1
   0   0   2 401.080 109.730   1
   0   0   2 463.620 205.290   1
   1   1  -1 1698.15 197.830   1
   1   1  -1 1353.59 235.090   1
  -1  -1   1 1999.07 241.700   1
  -1  -1   1 1691.69 157.780   1
  -1  -1   1 1621.82 157.000   1
   1   1  -1 1622.99 177.530   1
   1   1   1 12159.2 587.120   1
   1   1   1 10633.0 738.250   1
  -1  -1  -1 9886.57 854.630   1
  -1  -1  -1 10219.0 1128.41   1
   1   0  -2 8821.82 332.790   1
   1   0  -2 6777.86 357.980   1
   1   0  -2 8047.94 552.710   1
   1   0  -2 7009.24 576.630   1
  -1   0   2 7186.26 495.440   1
  -1   0   2 8741.42 266.800   1
  -1   0   2 8866.10 516.390   1
   0  -1   2 16520.7 594.200   1
   0  -1   2 17982.6 787.600   1
   0   1  -2 19138.3 672.080   1
   0   1  -2 19118.3 745.750   1
   0  -1   2 17552.2 496.160   1
   0  -1   2 16788.6 550.940   1
   0   1  -2 18018.4 584.040   1
   0   1  -2 20291.6 734.670   1
   0   1   2 8530.82 826.170   1
   0  -1  -2 9383.91 640.330   1
   0   1   2 9626.80 481.560   1
   0   1   2 8951.69 369.510   1
  -1   0  -2 30482.9 1276.22   1
  -1   0  -2 29923.0 888.240   1
   1   0   2 28029.3 832.760   1
   1   0   2 30808.0 918.220   1
  -1   0  -2 31622.2 1299.07   1
   0   2   0 34147.8 882.770   1
   0  -2   0 31919.5 830.910   1
   0   2   0 34286.7 902.640   1
   0  -2   0 32075.4 909.740   1
   2   0   0 722.820 106.540   1
   2   0   0 842.960 209.350   1
  -2   0   0 636.860 110.880   1
  -2   0   0 639.320 263.620   1
   2   0   0 751.430 182.610   1
   1  -1  -2 13711.1 436.250   1
   1  -1  -2 13396.8 471.030   1
  -1   1   2 13167.3 916.040   1
   1  -1  -2 15403.4 723.790   1
  -1   1   2 14537.5 895.580   1
  -1   2   0 37445.6 944.340   1
  -1   2   0 39498.7 930.530   1
  -1   1  -2 57789.5 1206.54   1
   1  -1   2 54812.5 1074.66   1
  -1   1  -2 49002.8 1413.19   1
  -1   1  -2 56627.3 1249.14   1
   1  -1   2 50792.0 1130.56   1
  -1   1  -2 45966.5 1296.66   1
   1  -1   2 51910.2 1229.41   1
   1  -1   2 50912.2 1144.98   1
   2  -1   0 38195.3 970.880   1
   2  -1   0 38000.1 950.430   1
   2  -1   0 36674.3 831.990   1
  -2   1   0 32539.0 831.910   1
   2  -1   0 36935.3 745.470   1
  -2   1   0 38387.5 729.570   1
   0  -2   1 943.660 121.460   1
   0   2  -1 682.740 89.1800   1
   0  -2   1 834.450 209.330   1
   0   2  -1 849.320 224.470   1
   0   2  -1 714.100 125.460   1
   2   0  -1 3956.50 312.990   1
  -2   0   1 3930.30 196.270   1
   2   0  -1 3796.97 201.860   1
   2   0  -1 3040.89 422.040   1
  -2   0   1 4736.13 331.110   1
  -2   0   1 4299.14 358.270   1
  -1  -1   2 12068.7 533.780   1
   1   1  -2 12837.7 671.500   1
   1   1  -2 9880.70 499.060   1
  -1  -1   2 12169.0 618.710   1
   1   1  -2 10182.5 590.250   1
   1   1  -2 12776.1 568.260   1
  -1  -1   2 11652.0 491.870   1
  -2   1   1 1398.64 136.730   1
  -2   1   1 1600.62 237.040   1
   2  -1  -1 1358.91 241.130   1
  -2   1   1 1319.55 197.100   1
   2  -1  -1 1504.64 163.620   1
   2  -1  -1 1732.31 154.040   1
   1  -2   1 49757.6 1110.09   1
   1  -2   1 55024.3 1146.55   1
  -1   2  -1 52849.6 1108.88   1
  -1   2  -1 50907.6 1131.49   1
   0   2   1 3617.26 250.180   1
   0  -2  -1 3148.98 222.200   1
   0  -2  -1 1953.32 345.290   1
  -1   2   1 795.500 136.160   1
   1  -2  -1 730.840 119.670   1
   1  -2  -1 359.380 220.080   1
  -1   2   1 511.920 257.570   1
   2   0   1 20875.5 487.780   1
   2   0   1 19600.6 724.030   1
  -2   0  -1 22289.0 900.690   1
   2   0   1 19800.6 742.880   1
  -2   0  -1 22192.2 989.690   1
   2   0   1 22507.4 792.540   1
  -2   0  -1 21157.2 630.640   1
  -2   0  -1 21542.7 776.480   1
  -2   0  -1 21224.1 513.870   1
  -2   1  -1 2083.52 150.840   1
   2  -1   1 2267.03 268.250   1
  -2   1  -1 1931.87 216.630   1
  -2   1  -1 1790.25 261.550   1
   2  -1   1 1767.50 239.290   1
   2  -1   1 2073.22 142.790   1
  -1  -1  -2 168.200 188.620   1
   1   1   2 516.010 232.590   1
   1   1   2 297.080 155.750   1
  -1  -1  -2 341.060 129.520   1
   1   1   2 423.980 125.380   1
   1   2   0 40693.8 1090.78   1
  -1  -2   0 39263.1 1025.38   1
  -1  -2   0 38118.0 1379.18   1
   1   2   0 35214.2 1344.93   1
   0   0   3 10241.7 720.770   1
   0   0   3 8457.79 509.660   1
   0   0  -3 10325.6 725.530   1
   0   0  -3 8704.09 440.220   1
   0   0   3 8884.03 647.680   1
   0   0  -3 8049.80 472.920   1
   0   0  -3 12040.1 665.410   1
   0   0  -3 12068.1 815.660   1
   2   1   0 13848.2 570.880   1
  -2  -1   0 14889.3 563.280   1
   2   1   0 16032.8 999.220   1
  -2  -1   0 12442.7 553.070   1
  -1  -2   1 3775.81 407.140   1
   1   2  -1 3528.40 251.100   1
  -1  -2   1 4071.22 313.510   1
   1   2  -1 3567.36 470.130   1
   2   1  -1 941.260 202.470   1
   2   1  -1 1247.36 199.810   1
   2   1  -1 1119.17 170.220   1
  -2  -1   1 1090.71 170.690   1
  -2  -1   1 999.770 150.370   1
  -2  -1   1 733.860 126.360   1
  -2   0   2 226.720 100.850   1
  -2   0   2 46.7000 171.090   1
   2   0  -2 79.0600 101.960   1
  -2   0   2 99.7800 160.160   1
   2   0  -2 199.050 192.520   1
   2   0  -2 233.640 157.930   1
   0   2  -2 6737.34 542.570   1
   0  -2   2 6426.54 457.950   1
   0   2  -2 5937.07 363.380   1
   0   2  -2 7932.70 411.510   1
   0   2  -2 8357.35 397.730   1
   0  -2   2 7713.57 355.340   1
   0  -2   2 8967.94 442.230   1
  -1   0   3 10544.8 690.040   1
  -1   0   3 9224.10 345.860   1
   1   0  -3 8532.00 447.380   1
   1   0  -3 8652.39 416.780   1
  -1   0   3 11836.2 900.080   1
  -1   0   3 13742.1 701.610   1
   1   0  -3 13041.5 684.580   1
   1   0  -3 9981.70 713.030   1
  -2   2   0 199.240 171.580   1
   2  -2   0 259.390 181.450   1
   2  -2   0 372.500 154.690   1
   2  -2   0 190.290 90.8300   1
  -2   2   0 246.900 110.120   1
  -2   2   0 401.510 168.510   1
   0  -1   3 1303.19 231.210   1
   0   1  -3 1428.54 249.450   1
   0  -1   3 1428.66 212.050   1
   0  -1   3 1056.78 160.150   1
   0   1  -3 1327.91 176.690   1
   0  -1   3 1496.21 171.690   1
   0   1  -3 981.390 186.810   1
   0   1  -3 1063.64 183.280   1
  -2   1   2 64767.4 1895.15   1
   2  -1  -2 49062.6 1747.42   1
  -2   1   2 62452.5 1068.68   1
  -1   2  -2 3068.79 190.340   1
   1  -2   2 2990.57 254.510   1
  -1   2  -2 2391.86 240.000   1
  -1   2  -2 2478.87 277.800   1
  -1   2  -2 2890.33 241.570   1
   1  -2   2 3057.47 247.410   1
   1  -2   2 2510.92 225.360   1
  -1   2  -2 2451.28 184.860   1
  -1  -2  -1 12116.9 699.090   1
  -1  -2  -1 11043.0 837.180   1
   1   2   1 14117.4 554.200   1
  -1  -2  -1 15722.1 638.440   1
  -2  -1  -1 4869.53 310.820   1
   2   1   1 5391.01 347.620   1
  -2  -1  -1 4718.25 822.130   1
   2   1   1 6119.27 392.920   1
  -1   2   2 18063.9 1168.82   1
  -1   2   2 21207.0 723.700   1
   1  -2  -2 18887.4 556.180   1
   1  -2  -2 16562.2 941.910   1
   0   2   2 2400.86 390.150   1
   0  -2  -2 2534.50 379.740   1
   0  -2  -2 2326.57 208.010   1
   0   2   2 3205.74 257.850   1
  -2   2   1 10137.2 337.690   1
  -2   2   1 9729.43 679.980   1
   2  -2  -1 9747.43 306.190   1
  -2   2   1 9735.38 486.200   1
   2  -2  -1 9613.37 488.180   1
   0  -1  -3 449.890 167.610   1
   0  -1  -3 518.110 158.660   1
   0  -1  -3 568.010 127.950   1
   0   1   3 435.390 165.430   1
   0   1   3 508.170 182.780   1
   0   1   3 564.300 152.900   1
   0   1   3 416.270 137.420   1
  -2   0  -2 35442.0 1044.57   1
   2   0   2 33085.7 931.570   1
  -2   0  -2 32028.8 1076.97   1
   2   0   2 34614.8 978.250   1
  -2   0  -2 26810.3 759.710   1
  -2   0  -2 32587.9 1248.78   1
   2   0   2 31220.2 892.030   1
   2   0   2 34691.1 984.740   1
   2  -2   1 181.070 217.560   1
  -2   2  -1 198.480 113.690   1
   2  -2   1 261.790 110.870   1
   2  -2   1 111.840 179.260   1
  -2   2  -1 356.490 218.820   1
  -2   2  -1 48.4000 143.620   1
   2  -1   2 6164.51 388.570   1
  -2   1  -2 6545.58 363.650   1
  -2   1  -2 7005.97 469.220   1
   2  -1   2 6234.33 341.750   1
   2  -1   2 7093.82 292.770   1
  -2   1  -2 6674.17 252.610   1
  -2   1  -2 7399.20 393.320   1
   1   0   3 8174.60 563.720   1
   1   0   3 10189.9 546.850   1
  -1   0  -3 7141.14 401.790   1
   1   0   3 9987.13 422.940   1
   1   0   3 8368.69 517.380   1
  -1   0  -3 7704.46 778.700   1
   1  -1  -3 7004.93 405.030   1
  -1   1   3 5776.84 382.110   1
  -1   1   3 5887.44 454.590   1
  -1   1   3 5968.52 467.830   1
   1  -1  -3 7567.80 570.880   1
   1  -1  -3 7123.61 545.130   1
   1  -1   3 13603.5 556.740   1
  -1   1  -3 13826.1 758.070   1
  -1   1  -3 14216.8 604.910   1
   1  -1   3 14042.8 600.070   1
  -1   1  -3 14527.9 608.240   1
   1  -1   3 12457.6 566.800   1
  -1   1  -3 12919.2 489.850   1
   1  -1   3 10203.3 487.240   1
  -1   1  -3 14844.4 782.680   1
  -1  -1   3 22284.2 893.800   1
   1   1  -3 17165.9 653.450   1
  -1  -1   3 18147.9 667.850   1
  -1  -1   3 21637.8 673.930   1
   1   1  -3 22356.0 802.420   1
   1   1  -3 20641.3 763.370   1
  -1  -1   3 21022.9 1024.54   1
   1   2  -2 3940.47 420.750   1
  -1  -2   2 7347.90 520.700   1
  -1  -2   2 5127.71 306.430   1
   1   2  -2 4846.63 266.300   1
   1   2  -2 5705.87 294.220   1
   1   2  -2 7181.06 395.610   1
   2   1  -2 1003.18 200.900   1
   2   1  -2 709.390 193.080   1
  -2  -1   2 747.560 184.620   1
  -2  -1   2 809.530 133.510   1
   2   1  -2 756.640 127.770   1
   2   1  -2 680.370 149.890   1
  -2  -1   2 691.150 140.460   1
   1  -3   0 18046.6 520.070   1
   1  -3   0 24151.5 815.050   1
  -1   3   0 20698.6 625.970   1
  -1   3   0 21874.6 667.240   1
  -1   3   0 20921.5 627.120   1
   1   1   3 4528.56 496.870   1
  -1  -1  -3 3593.42 391.390   1
  -1  -1  -3 3259.02 329.730   1
   1   1   3 3891.48 495.590   1
  -1  -1  -3 4018.48 325.510   1
   1   1   3 6086.43 632.750   1
   0  -3   0 8263.58 575.750   1
   0  -3   0 5481.71 322.600   1
   0   3   0 6125.70 336.460   1
   0   3   0 6904.86 438.030   1
   2  -2  -2 1796.87 133.320   1
  -2   2   2 2425.77 163.430   1
   2  -2  -2 1482.38 239.570   1
  -2   2   2 1903.31 304.070   1
   3  -1   0 5431.06 326.230   1
   3  -1   0 5392.40 286.010   1
  -3   1   0 4860.98 332.800   1
   3  -1   0 5114.37 315.310   1
   3  -1   0 6016.16 256.970   1
  -3   1   0 4901.05 216.140   1
   1   2   2 4205.36 594.360   1
  -1  -2  -2 5289.24 582.140   1
  -1  -2  -2 5769.32 374.630   1
   1   2   2 5270.51 363.430   1
  -2   0   3 15186.5 629.380   1
  -2   0   3 21768.3 858.920   1
   2   0  -3 15606.7 793.080   1
   2   0  -3 18784.3 924.780   1
   2   0  -3 18216.6 627.850   1
   2   1   2 14302.8 1158.88   1
  -2  -1  -2 15675.2 780.480   1
   2   1   2 18003.8 806.280   1
   2   1   2 14144.2 875.940   1
   2   1   2 17224.1 626.210   1
   3   0   0 1741.29 250.080   1
   3   0   0 1802.20 169.110   1
   3   0   0 1660.04 219.750   1
   3   0   0 1558.80 142.970   1
  -3   0   0 1514.37 118.680   1
   3   0   0 1733.37 272.950   1
  -2   2  -2 240446. 6726.38   1
   2  -2   2 235693. 6693.79   1
  -2   2  -2 260856. 7421.50   1
   2  -2   2 237088. 6628.69   1
  -2   2  -2 223268. 6221.93   1
  -2   2  -2 213333. 6073.62   1
   2  -2   2 264743. 7458.54   1
   0  -2   3 3015.04 253.850   1
   0  -2   3 2856.73 215.320   1
   0   2  -3 3594.85 289.660   1
   0  -2   3 4026.67 273.330   1
   0   2  -3 3585.72 341.030   1
   0   2  -3 3658.65 342.450   1
   0  -2   3 4400.53 322.150   1
   0   2  -3 2720.30 200.400   1
   1  -3   1 2889.40 297.890   1
  -1   3  -1 2088.67 233.630   1
  -1   3  -1 2222.82 227.680   1
  -1   3  -1 2109.66 179.070   1
   1  -3   1 1699.59 194.320   1
   0   3  -1 4969.24 414.730   1
   0  -3   1 4723.55 584.980   1
   0   3  -1 6511.61 305.500   1
   0  -3   1 6539.74 395.820   1
  -3   1   1 560.850 183.360   1
  -3   1   1 541.040 114.310   1
   3  -1  -1 516.330 106.730   1
   3  -1  -1 503.370 152.580   1
  -3   1   1 490.520 164.040   1
   3  -1  -1 353.150 200.390   1
  -3   0   1 1385.71 205.030   1
   3   0  -1 1001.65 203.880   1
   3   0  -1 1024.07 109.290   1
  -3   0   1 1353.82 239.620   1
   3   0  -1 1056.85 254.580   1
  -3   0   1 1208.45 123.250   1
   1  -3  -1 5264.43 527.210   1
  -1   3   1 7954.98 385.530   1
   1  -3  -1 6698.83 278.580   1
   1  -3  -1 4620.59 376.540   1
  -2  -2   0 1159.24 259.220   1
   2   2   0 1416.53 274.050   1
  -2  -2   0 1990.60 206.350   1
   2   2   0 1866.61 196.620   1
   2  -1  -3 22570.2 991.500   1
  -2   1   3 25848.9 632.040   1
  -2   1   3 28500.1 958.320   1
  -2   1   3 18262.4 1023.30   1
   2   2  -1 272.780 108.620   1
  -2  -2   1 312.540 153.650   1
   2   2  -1 339.490 184.790   1
   2   2  -1 98.9500 91.2300   1
  -2  -2   1 103.940 110.670   1
  -1   2  -3 192.420 165.300   1
   1  -2   3 99.7100 95.7700   1
  -1   2  -3 -13.230 160.450   1
  -1   2  -3 97.3000 86.6800   1
   1  -2   3 125.010 163.040   1
   1  -2   3 123.080 161.600   1
  -1   2  -3 143.500 111.580   1
   1  -2   3 111.990 85.7000   1
   0  -3  -1 23036.8 1117.00   1
   0  -3  -1 30392.0 859.490   1
   0   3   1 29737.9 858.370   1
   3  -1   1 8670.88 307.190   1
   3  -1   1 7417.17 383.180   1
  -3   1  -1 7425.92 401.900   1
  -3   1  -1 8539.12 379.460   1
   3  -1   1 9090.40 451.240   1
  -3   1  -1 7879.87 251.340   1
  -3   0  -1 3629.18 193.990   1
   3   0   1 3425.57 168.430   1
   3   0   1 3486.08 333.790   1
  -3   0  -1 2633.18 441.590   1
   3   0   1 3104.82 342.870   1
  -1   2   3 20513.8 1079.48   1
   1  -2  -3 20904.0 1019.27   1
  -1   2   3 16331.3 882.870   1
  -1   2   3 17781.1 649.250   1
  -1   2   3 18796.1 607.250   1
   0   0  -4 2714.21 277.430   1
   0   0  -4 2954.55 285.820   1
   0   0   4 3074.36 388.010   1
   0   0  -4 2582.75 337.440   1
   0   0  -4 1947.01 318.470   1
   0   0   4 2760.98 348.340   1
   0   0   4 2813.04 267.880   1
   0   2   3 -53.590 104.720   1
   0  -2  -3 63.3500 90.0000   1
   0   2   3 8.69000 150.850   1
   0   2   3 -149.88 206.190   1
   0  -2  -3 -139.96 222.520   1
  -2   1  -3 2959.98 347.180   1
  -2   1  -3 3832.40 276.000   1
   2  -1   3 2778.94 238.700   1
   2  -1   3 2872.37 238.620   1
  -2   1  -3 2816.56 237.740   1
   2  -1   3 5109.16 336.250   1
   2  -1   3 3235.67 245.530   1
   2  -1   3 4236.77 324.310   1
  -2   1  -3 4079.01 375.560   1
   2  -1   3 3100.90 223.270   1
  -2  -1   3 2217.57 228.380   1
   2   1  -3 2074.90 242.000   1
   2   1  -3 1699.94 270.870   1
   2   1  -3 1864.31 280.430   1
  -2  -1   3 1601.18 248.270   1
   2   1  -3 1400.54 182.090   1
  -2  -1   3 1690.46 168.040   1
   2   1  -3 1127.61 159.030   1
   1   2  -3 911.710 193.950   1
  -1  -2   3 874.400 133.450   1
   1   2  -3 883.740 147.060   1
   1   2  -3 828.320 138.580   1
  -1  -2   3 633.040 120.510   1
   1   2  -3 853.400 215.790   1
  -1  -2   3 746.720 170.650   1
  -2   3   0 68721.8 1432.22   1
   2  -3   0 58351.1 1764.56   1
   2   0   3 844.630 210.400   1
  -2   0  -3 659.860 193.560   1
   2   0   3 843.730 150.490   1
   2   0   3 589.780 173.410   1
  -2   0  -3 568.820 156.510   1
   2   0   3 691.680 173.840   1
  -2   0  -3 512.130 140.770   1
  -2  -2  -1 17685.6 1074.25   1
  -2  -2  -1 20025.2 1040.54   1
   2   2   1 24948.2 737.280   1
  -2  -2  -1 24470.3 928.090   1
   3  -2   0 8581.77 301.140   1
  -3   2   0 7655.02 405.520   1
  -3   2   0 8563.55 316.760   1
   3  -2   0 7549.13 543.840   1
   3  -2   0 7776.63 372.430   1
   3  -2   0 8024.28 387.470   1
  -1   0   4 35448.5 1062.64   1
  -1   0   4 38580.7 1333.76   1
   1   0  -4 39437.3 1626.73   1
   0   3  -2 1193.42 247.510   1
   0  -3   2 1175.87 256.820   1
   0  -3   2 1529.50 155.470   1
   0   3  -2 1813.04 168.940   1
   0   3  -2 1569.73 186.830   1
   3   0  -2 29924.1 1142.47   1
  -3   0   2 26466.2 1160.94   1
  -3   0   2 31681.9 1097.94   1
   3   0  -2 32039.8 1343.04   1
   3   0  -2 34685.4 825.610   1
  -3   0   2 30451.8 661.570   1
   0   1  -4 9385.83 552.910   1
   0  -1   4 12337.0 521.700   1
   0   1  -4 9851.17 606.730   1
   0  -1   4 9635.63 450.330   1
   0  -1   4 9377.03 643.460   1
   0   1  -4 8617.82 650.940   1
   0  -1   4 8454.60 429.330   1
   0   1  -4 6744.35 429.580   1
  -3   1   2 169.720 131.610   1
   3  -1  -2 320.340 97.0600   1
   3  -1  -2 332.120 114.090   1
  -3   1   2 285.700 91.9400   1
   3  -1  -2 194.170 164.530   1
  -3   1   2 247.780 196.430   1
   1  -3   2 2663.92 286.950   1
  -1   3  -2 1884.44 187.920   1
   1  -3   2 1972.65 195.910   1
  -1   3  -2 1480.73 150.730   1
  -1   3  -2 1769.31 167.800   1
   1  -3   2 1479.86 152.750   1
  -1   3  -2 1465.99 264.820   1
   1   3   0 46.2900 86.2300   1
  -1  -3   0 -59.690 181.580   1
   1   3   0 19.3700 126.640   1
  -1  -3   0 -48.260 66.9700   1
   3  -2  -1 1517.98 140.800   1
  -3   2   1 1362.35 125.900   1
   3  -2  -1 1003.47 227.870   1
  -3   2   1 1212.06 193.190   1
   3  -2  -1 1354.23 161.390   1
  -2   3  -1 2132.77 218.050   1
  -2   3  -1 1478.17 189.120   1
   2  -3   1 2016.23 251.630   1
  -2   3  -1 2825.22 203.590   1
   2  -3   1 2158.52 175.400   1
   2  -3   1 2223.20 230.580   1
   2   2  -2 336.830 192.820   1
   2   2  -2 311.960 134.320   1
  -2  -2   2 440.240 116.170   1
  -2  -2   2 365.570 142.860   1
   2   2  -2 410.130 99.8700   1
  -2  -2   2 325.370 142.950   1
   3   1   0 1633.27 178.000   1
  -3  -1   0 2314.34 286.620   1
   3   1   0 1377.48 213.640   1
   3   1   0 1756.39 210.540   1
   3   1   0 2416.58 338.810   1
  -2   3   1 671.420 112.890   1
   2  -3  -1 543.530 142.390   1
   2  -3  -1 632.950 102.870   1
  -2   3   1 576.160 149.200   1
   2  -3  -1 816.930 246.330   1
  -1  -3   1 4072.52 329.820   1
   1   3  -1 3983.76 319.480   1
   1   3  -1 5225.34 525.930   1
  -1  -3   1 4636.57 489.210   1
  -3  -1   1 68780.6 1645.43   1
  -3  -1   1 91110.6 2988.55   1
   3   1  -1 73791.2 1851.02   1
   3   1  -1 77098.4 2333.53   1
   3   1  -1 71585.2 1623.83   1
  -3   2  -1 725.680 117.350   1
  -3   2  -1 859.030 216.050   1
   3  -2   1 901.110 210.710   1
   3  -2   1 568.750 112.730   1
   3  -2   1 737.650 101.050   1
   3  -2   1 581.090 167.750   1
  -3   2  -1 630.930 149.260   1
  -1   3   2 2800.03 252.040   1
  -1   3   2 2099.68 394.140   1
   1  -3  -2 1926.47 169.640   1
   1  -3  -2 1994.11 378.290   1
   0   1   4 64.5100 69.8900   1
   0  -1  -4 81.4600 78.3800   1
   0   1   4 180.270 169.650   1
   0  -1  -4 128.820 145.240   1
   0  -1  -4 7.68000 157.670   1
   0   1   4 99.3800 180.100   1
   0   1   4 115.350 136.360   1
   1  -1  -4 2322.92 302.690   1
  -1   1   4 2634.05 417.580   1
   1  -1  -4 3730.65 308.810   1
   1  -1  -4 1522.75 262.000   1
  -1   1   4 1714.27 270.740   1
   1  -1  -4 2128.45 241.890   1
  -1   1   4 2364.83 341.100   1
   1   1  -4 1698.57 308.350   1
  -1  -1   4 1366.80 201.950   1
   1   1  -4 1951.85 334.750   1
   1   1  -4 1271.56 211.520   1
  -1  -1   4 2323.21 309.330   1
   1   1  -4 1285.95 177.930   1
  -1  -1   4 1232.94 214.620   1
   1   1  -4 1789.99 207.110   1
  -1  -1   4 1473.78 150.790   1
  -1   0  -4 17305.7 860.850   1
   1   0   4 19949.8 934.130   1
   1   0   4 17864.5 769.260   1
   1   0   4 17271.6 788.020   1
  -1   0  -4 18790.0 654.940   1
  -1   0  -4 17688.6 1137.65   1
   1   0   4 21199.8 966.980   1
   0  -3  -2 1580.00 168.390   1
   0  -3  -2 977.830 240.330   1
   0   3   2 940.920 284.040   1
   0   3   2 1340.88 189.570   1
  -2   2   3 22753.5 1313.96   1
  -2   2   3 27189.2 1004.44   1
   2  -2  -3 20262.2 724.100   1
   2  -2  -3 24818.2 1374.70   1
  -2   2   3 16639.1 1001.77   1
   1  -1   4 4939.49 341.900   1
   1  -1   4 5144.99 349.910   1
  -1   1  -4 6244.85 533.390   1
   1  -1   4 4931.84 381.240   1
  -1   1  -4 6834.27 572.150   1
  -1   1  -4 5932.10 439.290   1
  -1   1  -4 5522.76 368.000   1
   1  -1   4 6400.74 493.000   1
  -1   1  -4 4755.70 392.780   1
   3  -1   2 15501.4 666.080   1
   3  -1   2 16584.4 576.890   1
  -3   1  -2 15040.2 534.170   1
   3  -1   2 14217.5 668.330   1
  -3   1  -2 15264.5 684.490   1
  -3   1  -2 17061.1 717.030   1
  -3   1  -2 14728.8 715.950   1
  -1  -3  -1 87.3400 91.6500   1
  -1  -3  -1 94.1500 167.810   1
  -1  -3  -1 101.840 197.750   1
   1   3   1 105.970 77.7300   1
  -3  -1  -1 614.410 211.440   1
   3   1   1 1421.02 196.800   1
   3   1   1 939.480 169.910   1
   3   1   1 907.810 141.410   1
  -2   2  -3 19707.9 853.040   1
  -2   2  -3 25798.7 1127.45   1
   2  -2   3 23453.5 932.530   1
   2  -2   3 20016.1 921.700   1
  -2   2  -3 22344.2 899.890   1
  -2   2  -3 26915.5 964.050   1
   2  -2   3 21906.6 1005.06   1
  -2   2  -3 21428.7 912.750   1
   3   0   2 40601.1 1278.87   1
   3   0   2 40907.2 1388.68   1
  -3   0  -2 46090.6 721.700   1
   3   0   2 44547.5 979.950   1
  -3   0  -2 33604.1 1765.02   1
  -3   0  -2 42098.3 1429.30   1
  -3   0  -2 43600.3 1038.29   1
   3   0   2 41675.5 1618.61   1
   1   2   3 440.150 133.840   1
  -1  -2  -3 569.870 182.360   1
   1   2   3 405.770 192.960   1
   1   2   3 417.260 120.580   1
  -1  -2  -3 507.290 115.470   1
   2   1   3 50518.9 1895.37   1
  -2  -1  -3 59763.7 1812.18   1
   2   1   3 63385.2 1929.87   1
   2   1   3 45640.1 1801.30   1
   1   3  -2 -12.340 166.360   1
  -1  -3   2 90.3200 90.7000   1
   1   3  -2 192.030 85.3500   1
   1   3  -2 62.9900 78.1000   1
  -1  -3   2 194.070 150.410   1
  -3  -1   2 22357.7 1076.90   1
   3   1  -2 25907.5 1225.85   1
  -3  -1   2 26725.0 1212.35   1
   3   1  -2 23375.2 922.030   1
   3   1  -2 18889.5 808.520   1
   3   1  -2 21392.3 1120.38   1
  -3   2   2 47937.8 753.300   1
   3  -2  -2 52560.2 649.670   1
   3  -2  -2 45777.1 1055.36   1
  -3   2   2 44347.8 1367.79   1
   3  -2  -2 44396.1 1464.65   1
  -3   2   2 55264.5 1193.82   1
  -2  -2  -2 17220.3 786.970   1
   2   2   2 16202.7 790.090   1
   2   2   2 12357.0 963.510   1
  -2  -2  -2 15643.9 1132.30   1
   2  -3   2 131.460 215.240   1
  -2   3  -2 28.1300 180.330   1
  -2   3  -2 120.970 181.100   1
   2  -3   2 -14.200 158.550   1
   2  -3   2 69.9400 92.8900   1
  -2   3  -2 -15.300 120.510   1
  -2   3   2 10485.9 506.950   1
   2  -3  -2 12042.8 509.210   1
  -2   3   2 10142.9 817.090   1
   2  -3  -2 8406.85 759.090   1
  -2   3   2 9519.48 545.440   1
   2   0  -4 20511.5 938.300   1
  -2   0   4 20920.8 1140.57   1
   2   0  -4 13058.5 695.230   1
   2   0  -4 21533.6 871.230   1
  -2   0   4 21725.6 1593.25   1
  -2   0   4 18165.8 1039.56   1
   0  -2   4 1287.36 165.220   1
   0  -2   4 1033.60 166.030   1
   0   2  -4 1323.28 231.730   1
   0   2  -4 927.590 199.640   1
   0   2  -4 1082.66 225.350   1
   0  -2   4 763.130 129.540   1
   0  -2   4 947.530 186.560   1
   0   2  -4 846.650 126.580   1
   1   1   4 4993.89 543.030   1
  -1  -1  -4 4792.11 407.940   1
  -1  -1  -4 5513.64 438.700   1
   1   1   4 4883.86 575.050   1
   1   1   4 4908.13 511.860   1
  -3   2  -2 1015.83 138.170   1
   3  -2   2 737.060 186.590   1
  -3   2  -2 885.130 182.210   1
   3  -2   2 1053.97 146.630   1
   3  -2   2 761.160 196.290   1
  -3   2  -2 1065.51 204.250   1
  -3   2  -2 972.010 119.550   1
   3   0  -3 50839.7 858.700   1
  -3   0   3 40689.3 1856.33   1
   3   0  -3 42738.4 847.390   1
   3   0  -3 38534.6 1503.31   1
   0   3  -3 8278.36 481.160   1
   0   3  -3 9559.22 456.250   1
   0  -3   3 9725.38 628.800   1
   0   3  -3 9399.22 710.190   1
   0  -3   3 10014.5 515.780   1
   0   3  -3 9571.21 520.320   1
  -3   1   3 197.080 195.730   1
   3  -1  -3 -94.270 188.610   1
  -3   1   3 130.750 84.8300   1
   3  -1  -3 70.6100 92.1500   1
  -3   1   3 265.050 183.710   1
   3  -1  -3 41.5700 96.4300   1
  -3   1   3 162.650 177.810   1
   2  -1  -4 6415.00 372.730   1
  -2   1   4 4292.26 471.940   1
  -2   1   4 5921.36 334.790   1
   2  -1  -4 4134.12 499.130   1
   2  -1  -4 4441.01 449.930   1
  -2   1   4 4920.87 492.560   1
   2  -1  -4 5936.80 363.370   1
   2   2  -3 7109.92 453.940   1
  -2  -2   3 8274.35 440.040   1
   2   2  -3 6598.92 325.220   1
  -2  -2   3 11081.2 584.160   1
   2   2  -3 8330.78 634.470   1
   2   2  -3 10259.9 674.870   1
  -2  -2   3 9762.24 703.030   1
   1  -3   3 27334.4 1008.99   1
  -1   3  -3 21769.9 881.960   1
  -1   3  -3 25229.5 947.780   1
   1  -3   3 21143.4 795.440   1
  -1   3  -3 29783.2 1133.08   1
  -1   3  -3 27072.4 1127.01   1
   1  -3   3 26506.6 1136.34   1
   1  -2   4 594.430 166.690   1
  -1   2  -4 636.820 173.160   1
  -1   2  -4 439.810 139.380   1
  -1   2  -4 617.110 216.600   1
   1  -2   4 927.260 169.450   1
   1  -2   4 751.540 134.680   1
  -1   2  -4 545.580 137.110   1
   1  -2   4 615.520 119.980   1
  -1  -3  -2 16627.8 1113.55   1
  -1  -3  -2 16164.0 774.390   1
   1   3   2 15922.5 733.590   1
  -3   3   0 6521.96 402.260   1
   3  -3   0 6211.09 363.760   1
   3  -3   0 7506.78 365.600   1
  -3   3   0 7247.46 346.710   1
   3  -3   0 8227.36 438.080   1
  -2  -1   4 7822.13 389.460   1
   2   1  -4 8138.67 472.150   1
   2   1  -4 7656.10 462.170   1
   2   1  -4 9839.04 572.970   1
  -2  -1   4 10977.1 617.610   1
   2   1  -4 11271.9 805.620   1
   2   1  -4 8993.22 612.840   1
  -2  -1   4 10094.4 769.930   1
   1  -2  -4 5969.19 371.870   1
  -1   2   4 7197.66 601.150   1
   1  -2  -4 6396.22 577.180   1
  -1   2   4 5400.87 502.440   1
  -1   2   4 6657.76 403.990   1
   1   2  -4 718.360 201.400   1
  -1  -2   4 637.310 125.560   1
  -1  -2   4 1064.82 192.250   1
   1   2  -4 525.850 102.800   1
  -1  -2   4 748.920 154.620   1
   1   2  -4 588.900 185.580   1
   1   2  -4 603.680 174.740   1
  -1  -2   4 568.840 127.450   1
   3   1   2 15999.7 1243.17   1
   3   1   2 19793.1 789.170   1
   3   1   2 23165.7 951.710   1
   3   1   2 25105.0 1237.90   1
   3   1   2 28579.3 1277.45   1
   3   1   2 26974.4 1078.71   1
  -3  -1  -2 22056.0 1019.28   1
   1  -3  -3 1664.86 299.470   1
  -1   3   3 2212.78 419.690   1
  -1   3   3 3190.07 275.260   1
   1  -3  -3 3210.56 230.030   1
   0   2   4 7134.71 616.150   1
   0  -2  -4 7957.48 503.490   1
   0   2   4 4362.88 485.530   1
   0   2   4 7706.25 773.470   1
   0  -2  -4 6685.26 538.590   1
   3  -3  -1 4324.32 262.370   1
  -3   3   1 4356.75 330.380   1
   3  -3  -1 2804.29 201.050   1
   3  -3  -1 3390.58 360.120   1
  -3   3   1 4367.14 244.610   1
  -2   1  -4 1332.08 228.380   1
   2  -1   4 1283.96 247.140   1
  -2   1  -4 928.380 172.320   1
   2  -1   4 645.820 154.010   1
  -2   1  -4 1189.84 222.580   1
   2  -1   4 985.070 153.630   1
  -2   1  -4 1370.99 295.350   1
   2  -1   4 969.900 189.070   1
   2  -1   4 1024.26 163.520   1
  -3   3  -1 10560.3 578.440   1
  -3   3  -1 11125.9 460.020   1
   3  -3   1 10942.6 503.830   1
   3  -3   1 10207.2 544.560   1
   3  -3   1 12909.8 623.500   1
  -3   3  -1 9352.33 447.560   1
   1  -4   0 924.920 198.150   1
  -1   4   0 1129.60 180.550   1
   1  -4   0 1131.09 161.200   1
  -1   4   0 1343.31 165.810   1
   2   3   0 30621.9 1121.01   1
  -2  -3   0 30861.2 1231.92   1
   2   3   0 28429.6 1336.93   1
  -2  -3   0 33361.2 1747.37   1
   2   3  -1 3615.79 283.860   1
  -2  -3   1 3949.11 333.970   1
   2   3  -1 4261.64 514.090   1
  -2  -3   1 4151.01 449.290   1
  -3  -2   0 7015.30 516.730   1
   3   2   0 6372.07 417.750   1
   3   2   0 7863.08 533.620   1
  -3  -2   0 7365.81 442.990   1
   3   2   0 5421.69 489.010   1
   2   0   4 7895.70 552.200   1
   2   0   4 7354.57 504.110   1
   2   0   4 8106.14 481.060   1
  -2   0  -4 7528.43 716.730   1
  -2   0  -4 8064.63 510.110   1
   2   0   4 8209.10 594.610   1
   3   2  -1 504.950 184.800   1
   3   2  -1 634.770 155.200   1
  -3  -2   1 455.920 112.720   1
   3   2  -1 442.910 129.510   1
  -3  -2   1 615.760 161.770   1
   0  -3  -3 4843.57 341.890   1
   0   3   3 3542.91 474.940   1
   0  -3  -3 3863.74 419.460   1
   0   3   3 5545.49 479.430   1
   3  -1   3 341.820 171.140   1
   3  -1   3 102.410 142.370   1
  -3   1  -3 352.330 148.940   1
   3  -1   3 195.070 101.010   1
  -3   1  -3 102.250 239.240   1
  -3   1  -3 169.670 172.700   1
   3  -1   3 168.120 85.2100   1
  -3   1  -3 220.500 88.6200   1
  -1  -3   3 16867.5 898.570   1
   1   3  -3 11481.4 839.240   1
   1   3  -3 14755.6 684.500   1
   1   3  -3 11065.8 465.350   1
   1   3  -3 11331.5 551.380   1
  -1  -3   3 11514.5 528.970   1
  -4   1   0 110.700 172.480   1
   4  -1   0 234.240 93.8400   1
   4  -1   0 226.030 181.200   1
   4  -1   0 305.220 146.830   1
  -4   1   0 304.180 91.8900   1
   4  -1   0 228.670 157.220   1
  -1   4  -1 2202.47 374.590   1
  -1   4  -1 2851.23 258.370   1
  -1   4  -1 3583.07 307.420   1
   1  -4   1 3222.90 417.550   1
   1  -4   1 2330.66 231.650   1
   3   1  -3 17571.4 1027.61   1
  -3  -1   3 15461.1 875.080   1
   3   1  -3 14231.5 864.880   1
   3   1  -3 15205.1 698.530   1
   3   1  -3 13927.5 697.170   1
   0   4   0 9261.52 533.640   1
   0   4   0 6521.21 572.980   1
   0  -4   0 7052.58 381.810   1
   0  -4   0 7938.02 794.230   1
   4  -1  -1 313.310 174.560   1
  -4   1   1 352.740 163.740   1
   4  -1  -1 319.460 139.510   1
   4  -1  -1 382.500 111.750   1
  -4   1   1 259.030 91.9700   1
  -4   1   1 165.790 176.230   1
  -3   2   3 12209.2 481.840   1
   3  -2  -3 14005.7 963.310   1
  -3   2   3 17231.1 853.330   1
   3  -2  -3 17279.6 762.560   1
  -3   2   3 14470.6 1010.62   1
   3  -2  -3 16107.7 638.590   1
   0  -4   1 12394.0 608.640   1
   0  -4   1 17244.8 994.850   1
   0   4  -1 14068.5 905.500   1
   0   4  -1 15994.3 729.470   1
   3   0   3 31421.3 1170.85   1
   3   0   3 30948.8 1152.48   1
   3   0   3 33742.9 1289.56   1
  -3   0  -3 27943.7 1448.31   1
  -3   0  -3 36752.6 1276.12   1
   3   0   3 30564.4 1432.01   1
  -3   0  -3 32992.9 1245.26   1
   0   0  -5 5006.31 597.710   1
   0   0  -5 7596.03 482.060   1
   0   0   5 7068.92 660.090   1
   0   0  -5 6138.82 421.400   1
   0   0  -5 6207.74 517.960   1
   0   0   5 5720.02 389.050   1
   0   0   5 6495.06 521.710   1
   1  -4  -1 16864.4 691.130   1
   1  -4  -1 15684.0 996.040   1
   1  -4  -1 11618.3 868.810   1
  -4   0   0 1332.21 134.250   1
   4   0   0 1417.99 134.400   1
   4   0   0 1443.33 221.440   1
   4   0   0 1750.48 195.340   1
   4   0   0 1650.19 256.460   1
   4   0   0 1689.27 347.570   1
  -2   3  -3 145.650 200.090   1
   2  -3   3 277.550 154.170   1
  -2   3  -3 453.280 208.820   1
   2  -3   3 428.540 170.560   1
   2  -3   3 294.990 104.820   1
  -2   3  -3 376.770 109.540   1
  -2   3  -3 228.160 100.480   1
  -4   0   1 156.910 124.450   1
  -4   0   1 116.360 146.620   1
   4   0  -1 104.740 150.970   1
   4   0  -1 -0.6100 163.700   1
  -4   0   1 209.000 90.6100   1
   4   0  -1 137.270 84.7700   1
   2   3   1 792.770 143.910   1
  -2  -3  -1 693.540 139.700   1
  -2  -3  -1 996.710 307.260   1
  -2  -3  -1 825.080 228.060   1
   2  -3  -3 2478.70 396.320   1
  -2   3   3 1975.10 218.500   1
   2  -3  -3 2285.46 201.700   1
  -2   3   3 1993.08 223.390   1
  -2   3   3 2053.22 319.380   1
  -1   0   5 13571.7 820.930   1
   1   0  -5 15081.0 897.200   1
   1   0  -5 19653.9 833.790   1
  -1   0   5 13767.6 898.140   1
   1   0  -5 19554.6 1142.25   1
  -1   0   5 18479.4 1051.16   1
   1   0  -5 16597.3 756.780   1
   2  -2  -4 8705.04 689.200   1
   2  -2  -4 5783.26 423.390   1
  -2   2   4 5916.33 444.670   1
  -2   2   4 8518.74 732.000   1
  -3  -2  -1 28126.6 1653.57   1
  -3  -2  -1 29712.5 1248.97   1
   3   2   1 30480.6 1209.94   1
  -3  -2  -1 23563.5 1468.15   1
   0   1  -5 15350.3 763.210   1
   0  -1   5 17286.0 753.850   1
   0   1  -5 17362.5 963.030   1
   0  -1   5 20436.7 918.470   1
   0   1  -5 16836.8 1111.67   1
   0  -1   5 20206.5 813.670   1
   0   1  -5 19183.8 847.440   1
   0  -1   5 17646.4 1070.27   1
  -4   1  -1 3529.96 194.020   1
   4  -1   1 4183.12 256.290   1
   4  -1   1 3509.59 319.590   1
  -4   1  -1 3878.35 338.930   1
  -4   1  -1 3831.44 263.770   1
   4  -1   1 4225.12 338.550   1
  -2  -2  -3 803.860 166.620   1
   2   2   3 548.950 212.490   1
   2   2   3 693.690 135.880   1
  -2  -2  -3 672.450 186.720   1
   2   2   3 769.520 184.350   1
   2  -4   0 1565.32 203.070   1
  -2   4   0 2104.72 232.300   1
  -2   4   0 2898.92 248.390   1
   2  -4   0 1856.72 282.830   1
   2  -4   0 1748.13 217.190   1
  -2   4   0 2242.41 230.890   1
   2   3  -2 10516.1 613.010   1
  -2  -3   2 13473.6 809.520   1
   2   3  -2 12612.7 867.390   1
   2   3  -2 10683.3 546.020   1
  -2  -3   2 10442.4 509.470   1
   0  -4  -1 1062.18 155.750   1
   0   4   1 1028.81 132.160   1
   0   4   1 1055.70 168.350   1
   0  -4  -1 1372.03 225.740   1
   0  -4  -1 1103.82 266.060   1
   3   2  -2 3445.92 515.150   1
   3   2  -2 6236.70 572.130   1
   3   2  -2 4333.95 314.430   1
  -3  -2   2 3823.34 280.540   1
  -3  -2   2 5069.52 496.500   1
  -3   3   2 11147.4 705.250   1
   3  -3  -2 10612.4 649.560   1
  -3   3   2 13132.5 628.890   1
   3  -3  -2 15937.9 605.850   1
  -3   3   2 13189.4 502.800   1
  -2   2  -4 7693.72 512.660   1
  -2   2  -4 6064.98 465.610   1
   2  -2   4 6616.69 399.340   1
   2  -2   4 5342.37 333.880   1
   2  -2   4 4951.88 382.970   1
  -2   2  -4 7017.78 509.450   1
   2  -2   4 6043.45 445.120   1
  -2   2  -4 5906.04 386.000   1
  -2   2  -4 5191.75 419.360   1
   4  -2   0 2167.03 230.630   1
  -4   2   0 2386.15 248.690   1
  -4   2   0 2146.52 157.680   1
   4  -2   0 2485.55 172.170   1
   4  -2   0 2374.71 254.260   1
   4  -2   0 2254.58 206.640   1
   3  -2   3 26972.1 1153.02   1
  -3   2  -3 33463.2 1106.89   1
   3  -2   3 36089.3 1293.55   1
   3  -2   3 35691.0 1248.97   1
  -3   2  -3 28480.6 1109.48   1
  -3   2  -3 25208.8 989.880   1
  -3   2  -3 35563.8 1279.11   1
  -2   4  -1 778.590 144.060   1
   2  -4   1 774.150 213.570   1
  -2   4  -1 569.750 155.380   1
  -2   4  -1 873.530 147.340   1
   2  -4   1 693.670 142.720   1
   3  -3   2 5064.18 321.480   1
   3  -3   2 4532.42 441.130   1
  -3   3  -2 4109.06 309.560   1
  -3   3  -2 4807.91 355.750   1
   3  -3   2 4647.97 313.150   1
  -3   3  -2 6084.31 374.570   1
  -1   4  -2 40749.4 1402.24   1
   1  -4   2 32802.0 1209.82   1
  -1   4  -2 33350.3 1147.91   1
  -1   4  -2 36020.5 1262.29   1
   1  -4   2 30338.5 1644.21   1
   1   2   4 3645.82 411.150   1
   1   2   4 2627.40 313.750   1
   1   2   4 3491.30 518.080   1
  -1  -2  -4 3165.92 283.590   1
  -1  -2  -4 3644.02 430.800   1
   1   2   4 2075.00 410.150   1
  -4   0  -1 138.670 100.410   1
   4   0   1 118.030 82.2800   1
   4   0   1 122.100 169.330   1
   4  -2  -1 3949.16 312.340   1
   4  -2  -1 4400.69 261.230   1
  -4   2   1 3597.03 288.800   1
   4  -2  -1 5210.09 329.980   1
   4  -2  -1 5213.98 275.660   1
  -4   2   1 4578.47 235.840   1
  -4   1   2 4919.09 246.900   1
   4  -1  -2 4297.97 245.640   1
   4  -1  -2 3956.88 299.900   1
  -4   1   2 2633.76 283.040   1
  -4   1   2 3979.80 485.210   1
   4  -1  -2 3309.35 392.370   1
  -1  -1   5 1187.60 229.940   1
   1   1  -5 1367.76 253.100   1
   1   1  -5 1224.22 185.990   1
   1   1  -5 679.890 175.880   1
  -1  -1   5 1244.66 225.320   1
   1   1  -5 1267.61 235.870   1
   1   1  -5 1011.85 203.440   1
  -1  -1   5 1366.28 255.790   1
  -1  -1   5 1320.91 175.590   1
  -2   4   1 24266.8 955.770   1
   2  -4  -1 24285.7 888.220   1
   2  -4  -1 20998.5 1210.71   1
   2   1   4 1261.39 225.270   1
  -2  -1  -4 639.710 233.360   1
  -2  -1  -4 990.340 232.010   1
   2   1   4 1151.59 272.110   1
   2   1   4 754.050 221.220   1
   1  -1  -5 -6.9100 142.720   1
   1  -1  -5 122.220 175.530   1
  -1   1   5 13.9100 78.1000   1
  -1   1   5 -60.030 147.430   1
   1  -1  -5 32.8600 146.710   1
  -1   1   5 -1.5600 157.770   1
   0   1   5 3750.05 473.280   1
   0   1   5 3336.62 265.330   1
   0  -1  -5 2001.61 254.480   1
   0  -1  -5 3297.66 266.350   1
   0   1   5 4594.63 382.490   1
   0  -1  -5 3849.67 362.130   1
   0  -1  -5 2841.48 353.020   1
   0   1   5 4237.68 477.210   1
   0  -4   2 3525.93 456.660   1
   0   4  -2 4059.48 277.450   1
   0  -4   2 2906.24 233.010   1
   0   4  -2 3364.47 251.390   1
   0   4  -2 5117.90 395.950   1
   4   0  -2 41488.6 1197.16   1
   4   0  -2 40007.7 1572.87   1
  -4   0   2 47539.4 1547.56   1
   4   0  -2 39829.9 1837.40   1
  -4   0   2 40791.6 1652.42   1
  -4   0   2 45780.1 739.410   1
   4   0  -2 39676.0 1279.00   1
  -1   0  -5 3783.68 299.260   1
   1   0   5 3168.04 390.400   1
  -1   0  -5 2675.04 450.100   1
   1   0   5 3585.20 410.010   1
   1   0   5 2535.36 292.450   1
   1   0   5 3627.87 285.300   1
  -1   0  -5 3226.53 315.270   1
   1  -1   5 12189.1 557.260   1
   1  -1   5 16321.4 649.290   1
  -1   1  -5 16863.7 952.640   1
   1  -1   5 12852.3 622.020   1
  -1   1  -5 11814.9 898.580   1
  -1   1  -5 12515.6 564.910   1
  -1   1  -5 15061.5 708.630   1
   1  -1   5 13786.7 873.750   1
  -1   1  -5 12298.9 634.110   1
  -3   0   4 1183.80 307.830   1
   3   0  -4 1046.74 243.800   1
  -3   0   4 956.240 99.4600   1
   3   0  -4 935.880 144.260   1
  -3   0   4 1420.22 255.420   1
   3   0  -4 904.170 125.990   1
  -4   2  -1 8866.08 320.580   1
   4  -2   1 10369.9 504.200   1
   4  -2   1 9004.17 384.450   1
   4  -2   1 8603.52 427.810   1
  -4   2  -1 8861.59 362.080   1
  -4   2  -1 7894.49 431.710   1
   0   3  -4 4993.75 465.260   1
   0   3  -4 5363.62 373.830   1
   0  -3   4 7630.56 581.010   1
   0  -3   4 7963.60 401.260   1
   0   3  -4 7839.07 445.350   1
   0  -3   4 6424.92 357.970   1
   0   3  -4 4926.52 322.470   1
   0  -3   4 5237.92 343.570   1
   2   2  -4 2175.20 216.000   1
  -2  -2   4 2406.11 202.050   1
  -2  -2   4 2760.82 288.820   1
   2   2  -4 2566.19 290.100   1
   2   2  -4 2334.86 367.840   1
  -2  -2   4 2071.87 271.980   1
   2   2  -4 2317.35 280.100   1
  -1  -3  -3 15059.8 937.570   1
   1   3   3 11585.5 917.940   1
   1   3   3 11736.3 721.520   1
  -1  -3  -3 13156.9 618.790   1
  -3   1   4 538.190 204.320   1
   3  -1  -4 393.780 193.390   1
  -3   1   4 788.270 112.940   1
   3  -1  -4 671.380 115.850   1
  -3   1   4 834.680 235.500   1
  -3   1   4 518.680 163.170   1
   3  -1  -4 369.220 177.830   1
   1  -4  -2 355.070 127.220   1
   1  -4  -2 446.030 241.780   1
   1  -4  -2 248.240 72.5600   1
   1  -4  -2 285.870 80.4900   1
  -1   4   2 452.220 172.440   1
  -1  -4   0 5723.72 559.320   1
   1   4   0 5171.59 502.880   1
   1   4   0 7292.07 446.230   1
  -1  -4   0 6484.26 346.670   1
   1  -3   4 9757.00 508.230   1
  -1   3  -4 7966.48 568.990   1
  -1   3  -4 8460.70 406.800   1
   1  -3   4 8054.90 473.620   1
  -1   3  -4 7911.36 459.360   1
   1  -3   4 10153.7 446.120   1
  -1   3  -4 11693.0 604.230   1
   1   4  -1 23576.0 856.620   1
  -1  -4   1 21191.9 665.330   1
  -1  -4   1 16362.0 1222.86   1
  -3  -1  -3 4565.89 397.550   1
   3   1   3 3481.99 504.840   1
   3   1   3 5611.15 502.050   1
   3   1   3 4559.07 328.410   1
   3   1   3 3226.24 271.050   1
   3   1   3 5309.51 455.020   1
   4   1   0 11011.4 467.260   1
   4   1   0 10558.8 518.740   1
   4   1   0 12296.0 846.560   1
   4   1  -1 13315.7 817.050   1
  -4  -1   1 10205.7 541.640   1
  -4  -1   1 14616.0 932.020   1
   4   1  -1 12228.1 542.680   1
   4   1  -1 11595.3 699.730   1
   4   1  -1 13735.8 551.460   1
   2   0  -5 6205.78 455.340   1
   2   0  -5 8864.52 648.430   1
  -2   0   5 10101.8 595.290   1
  -2   0   5 5577.47 417.080   1
   2   0  -5 9341.08 461.030   1
  -2  -3  -2 6021.86 378.050   1
   2   3   2 7687.71 454.320   1
  -2  -3  -2 7488.47 700.460   1
  -2  -3  -2 3373.17 434.760   1
  -4   2   2 8348.41 642.490   1
   4  -2  -2 9130.70 660.560   1
  -4   2   2 7684.99 473.290   1
   4  -2  -2 8095.61 370.560   1
   4  -2  -2 11549.0 400.820   1
  -4   2   2 9671.20 299.360   1
   4  -1   2 19167.0 522.410   1
  -4   1  -2 16341.2 456.610   1
   4  -1   2 15748.8 701.120   1
   4  -1   2 15909.7 674.820   1
  -4   1  -2 15712.9 623.090   1
  -4   1  -2 16571.8 584.990   1
  -4   1  -2 18692.9 745.860   1
  -4   1  -2 16138.4 849.210   1
   2  -4   2 5542.56 313.360   1
   2  -4   2 5990.13 354.370   1
  -2   4  -2 6388.90 382.600   1
  -2   4  -2 5182.29 332.840   1
   2  -4   2 5811.99 440.410   1
  -2   4  -2 6865.58 400.290   1
   3   2   2 1487.94 176.880   1
  -3  -2  -2 1733.50 190.760   1
  -3  -2  -2 1059.49 182.180   1
  -3  -2  -2 1400.39 288.050   1
   0  -2   5 6338.10 442.230   1
   0   2  -5 5274.35 509.480   1
   0  -2   5 5524.94 396.930   1
   0   2  -5 6964.13 458.240   1
   0  -2   5 6583.80 352.990   1
   0  -2   5 5006.35 307.300   1
   0   2  -5 4188.82 346.690   1
   0   2  -5 4682.73 440.990   1
   0  -4  -2 130.460 107.160   1
   0  -4  -2 76.9400 213.050   1
   0   4   2 0.29000 111.530   1
   0  -4  -2 -47.250 65.0900   1
   2   3  -3 3800.50 361.300   1
  -2  -3   3 3659.19 285.210   1
  -2  -3   3 5360.75 503.650   1
   2   3  -3 5106.09 497.750   1
   2   3  -3 3841.01 275.030   1
   2   3  -3 3919.98 227.800   1
  -3  -2   3 7914.89 546.710   1
  -3  -2   3 11110.1 450.390   1
   3   2  -3 10903.2 786.340   1
   3   2  -3 12719.3 761.300   1
  -3  -2   3 10450.0 661.650   1
   3   2  -3 7478.03 456.740   1
   3   2  -3 10589.7 518.160   1
  -1  -4  -1 3067.61 449.290   1
  -1  -4  -1 4000.99 329.630   1
  -1  -4  -1 5299.88 584.970   1
   1   4   1 4578.86 303.460   1
   2  -4  -2 28233.4 841.190   1
   2  -4  -2 34444.4 1452.78   1
   2  -1  -5 11425.9 632.750   1
  -2   1   5 12454.6 760.290   1
  -2   1   5 11391.6 752.190   1
   2  -1  -5 7618.21 486.250   1
  -2   1   5 6892.47 429.160   1
   2  -1  -5 7258.25 659.170   1
  -1  -1  -5 1123.28 208.140   1
   1   1   5 1100.40 244.460   1
   1   1   5 1087.18 182.190   1
   1   1   5 1465.83 226.090   1
   1   1   5 1406.62 218.640   1
   1   1   5 893.740 235.650   1
  -1  -1  -5 933.270 207.280   1
   3   1  -4 1566.34 182.590   1
   3   1  -4 2511.70 411.370   1
  -3  -1   4 2268.80 289.860   1
   3   1  -4 2108.63 222.400   1
   3   1  -4 2111.58 295.870   1
  -3  -1   4 1848.51 338.270   1
   3   1  -4 2033.02 250.320   1
  -1   3   4 5389.21 379.800   1
   1  -3  -4 3569.77 311.530   1
  -1   3   4 4646.69 375.630   1
  -1   3   4 4294.43 481.850   1
   1  -3  -4 6323.88 585.510   1
  -1   3   4 3156.87 391.240   1
   1   3  -4 5535.85 352.070   1
   1   3  -4 5798.75 345.450   1
  -1  -3   4 6478.29 365.480   1
  -1  -3   4 6475.73 404.510   1
   1   3  -4 6005.68 475.240   1
   1   3  -4 6234.44 495.910   1
  -1  -3   4 6943.02 540.380   1
   4   0   2 2885.85 260.850   1
   4   0   2 2190.31 307.410   1
  -4   0  -2 2396.20 364.010   1
  -4   0  -2 1811.34 369.760   1
  -4   0  -2 2857.07 175.310   1
   4   0   2 2930.35 175.610   1
  -1  -4   2 25199.5 814.490   1
   1   4  -2 26387.1 905.170   1
   4   1   1 7455.58 399.020   1
   4   1   1 6041.36 617.430   1
   4   1   1 5418.29 364.320   1
   4   1   1 5877.51 380.890   1
   1  -2   5 824.720 204.240   1
   1  -2   5 902.270 176.580   1
  -1   2  -5 649.390 112.180   1
   1  -2   5 820.000 140.280   1
  -1   2  -5 1110.65 247.000   1
   1  -2   5 592.320 130.120   1
  -1   2  -5 1022.50 201.620   1
  -1   2  -5 733.500 174.930   1
   3  -3  -3 152.410 185.310   1
  -3   3   3 33.7500 172.540   1
  -3   3   3 221.440 101.580   1
   3  -3  -3 298.130 114.380   1
  -3   3   3 111.050 116.680   1
   4   1  -2 7087.56 448.340   1
   4   1  -2 7505.87 377.630   1
   4   1  -2 6409.39 582.320   1
  -4  -1   2 6606.87 482.920   1
   4   1  -2 7643.04 720.310   1
   4   1  -2 7237.41 550.500   1
  -4  -1   2 7279.99 588.310   1
  -2  -1   5 7977.42 601.950   1
   2   1  -5 5272.65 431.010   1
   2   1  -5 5603.78 572.350   1
  -2  -1   5 5468.94 464.960   1
   2   1  -5 6739.52 506.230   1
  -2  -1   5 7650.31 437.940   1
  -2  -1   5 5876.16 333.850   1
   2   1  -5 5667.90 395.300   1
   2   1  -5 6108.79 381.330   1
   4  -1  -3 2270.12 167.490   1
  -4   1   3 3316.55 166.100   1
  -4   1   3 2268.67 331.770   1
   4  -1  -3 2210.44 306.330   1
  -4   1   3 2057.25 298.390   1
  -4   1   3 1475.91 238.340   1
   3  -4   0 699.430 110.320   1
  -3   4   0 734.610 161.870   1
  -3   4   0 945.540 121.920   1
   3  -4   0 673.150 165.090   1
   4  -2   2 2125.39 155.550   1
  -4   2  -2 2264.32 156.270   1
  -4   2  -2 2030.39 191.120   1
   4  -2   2 2288.12 261.350   1
  -4   2  -2 2127.43 162.950   1
  -4   2  -2 1714.56 232.620   1
   4  -2   2 1916.43 224.200   1
  -1  -2   5 20940.2 944.200   1
   1   2  -5 20547.4 887.600   1
   1   2  -5 17871.8 966.230   1
   1   2  -5 19402.6 820.710   1
  -1  -2   5 19033.3 645.120   1
  -1  -2   5 23348.6 716.680   1
  -1  -2   5 19645.7 824.730   1
  -3   2   4 5873.62 246.100   1
   3  -2  -4 5657.48 260.010   1
   3  -2  -4 4067.13 431.100   1
  -3   2   4 3603.39 413.750   1
   3  -2  -4 5245.56 338.800   1
   1  -4   3 17174.7 693.290   1
  -1   4  -3 13097.6 505.300   1
   1  -4   3 16057.9 585.690   1
  -1   4  -3 13206.4 472.740   1
   1  -4   3 11245.6 457.640   1
  -1   4  -3 13664.4 545.680   1
  -1   4  -3 12852.5 744.030   1
   0  -3  -4 36.7900 80.3400   1
   0   3   4 84.6000 135.440   1
   0   3   4 -5.5600 158.640   1
   0  -3  -4 87.3700 192.530   1
   0   3   4 166.840 187.060   1
  -3   1  -4 698.890 262.270   1
   3  -1   4 645.380 115.730   1
  -3   1  -4 710.760 173.980   1
  -3   1  -4 577.510 142.550   1
   3  -1   4 424.410 161.010   1
   3  -1   4 485.160 134.710   1
  -3   1  -4 484.780 121.920   1
   3  -1   4 845.470 151.500   1
   3  -1   4 634.160 176.520   1
   4  -3   0 18882.3 642.090   1
   4  -3   0 18240.8 710.110   1
  -4   3   0 20676.3 572.760   1
   4  -3   0 21076.1 738.460   1
  -4   3   0 19156.9 786.190   1
   4  -3   0 20129.0 589.770   1
   0  -4   3 8603.77 510.090   1
   0   4  -3 8189.84 407.630   1
   0  -4   3 11358.1 620.050   1
   0   4  -3 7036.18 733.380   1
   0   4  -3 6811.70 319.370   1
   0   4  -3 9474.65 495.470   1
   4   0  -3 4618.76 489.670   1
   4   0  -3 3013.45 254.440   1
   4   0  -3 3627.15 241.820   1
  -4   0   3 3905.48 186.140   1
  -4   0   3 2554.41 333.190   1
   4   0  -3 3637.41 376.040   1
  -4   0   3 3318.22 470.720   1
   3  -3   3 217.540 152.770   1
  -3   3  -3 125.420 159.260   1
  -3   3  -3 95.0600 101.180   1
  -3   3  -3 200.100 164.560   1
   3  -3   3 109.640 140.110   1
   3  -3   3 4.29000 90.2700   1
   3  -3   3 71.9800 105.050   1
  -3   3  -3 172.360 105.420   1
  -1   2   5 365.340 175.430   1
  -1   2   5 455.840 193.580   1
   1  -2  -5 307.820 102.130   1
  -1   2   5 209.980 106.800   1
  -1   2   5 446.510 204.230   1
   1  -2  -5 189.190 215.430   1
   2  -3   4 19429.9 670.160   1
  -2   3  -4 19072.0 706.570   1
   2  -3   4 14060.0 596.300   1
   2  -3   4 15958.5 792.530   1
  -2   3  -4 16728.4 773.630   1
  -2   3  -4 13185.0 626.440   1
  -2   3  -4 20167.0 809.550   1
   4  -3  -1 1306.40 240.470   1
  -4   3   1 2182.98 159.190   1
   4  -3  -1 1892.56 174.190   1
  -4   3   1 1850.23 248.470   1
   4  -3  -1 1533.85 164.730   1
   4  -3  -1 1934.87 150.800   1
  -3   4   1 10335.4 397.040   1
   3  -4  -1 11194.6 726.120   1
  -3   4   1 8211.33 507.900   1
   3  -4  -1 12550.4 485.520   1
   3  -4  -1 11455.4 461.320   1
  -3   4   1 10399.7 557.130   1
   3  -4   1 -61.900 113.350   1
  -3   4  -1 16.2300 154.280   1
   3  -4   1 20.4500 161.850   1
  -3   4  -1 97.1000 119.080   1
  -3   4  -1 -64.150 135.730   1
   3  -4   1 -32.860 96.7100   1
  -3   0  -4 12173.0 581.870   1
   3   0   4 11119.5 545.260   1
   3   0   4 11417.9 793.350   1
   3   0   4 9135.45 616.050   1
   3   0   4 12741.7 568.120   1
  -3   0  -4 8381.08 656.390   1
  -3   0  -4 15169.8 641.060   1
   0   2   5 32508.8 1430.68   1
   0  -2  -5 25494.4 975.660   1
   0  -2  -5 27761.8 1050.17   1
   0   2   5 28153.7 1263.06   1
  -2   3   4 494.150 144.300   1
  -2   3   4 314.720 144.720   1
  -2   3   4 586.330 195.610   1
   2  -3  -4 718.220 222.840   1
   2  -3  -4 635.450 128.280   1
  -2   1  -5 2999.46 294.230   1
   2  -1   5 3715.93 267.670   1
   2  -1   5 3101.03 254.350   1
  -2   1  -5 4340.83 460.750   1
   2  -1   5 3311.27 286.110   1
   2  -1   5 4301.48 414.470   1
  -2   1  -5 4131.69 305.050   1
  -2   1  -5 4160.32 518.200   1
   4  -3   1 40314.0 1065.47   1
   4  -3   1 39502.5 1076.88   1
  -4   3  -1 42155.7 1043.18   1
  -4   3  -1 34206.7 1045.83   1
   4  -3   1 41796.3 1153.53   1
  -4   3  -1 44635.9 1025.12   1
  -2   0  -5 1039.62 275.460   1
   2   0   5 1588.04 295.410   1
   2   0   5 1711.80 215.870   1
  -2   0  -5 1389.20 209.370   1
   2   0   5 1427.77 206.760   1
   2   0   5 1418.12 224.270   1
   3   3  -1 2371.99 419.700   1
  -3  -3   1 6097.37 444.850   1
   3   3  -1 4204.66 342.520   1
  -3  -3   1 4693.01 307.700   1
   3   3  -1 4710.25 369.870   1
   3   3   0 340.710 132.860   1
  -3  -3   0 540.710 126.770   1
   3   3   0 588.600 101.620   1
  -3  -3   0 484.370 201.940   1
  -2  -2  -4 2086.15 279.660   1
   2   2   4 1565.99 292.190   1
   2   2   4 2125.12 372.080   1
   2   2   4 3813.48 325.190   1
   2   2   4 1541.67 285.340   1
  -2  -2  -4 2156.90 283.980   1
  -1   4   3 7191.96 544.780   1
   1  -4  -3 6510.54 370.940   1
   1  -4  -3 5701.88 306.730   1
   1  -4  -3 8840.25 711.440   1
   3  -2   4 16375.9 730.270   1
  -3   2  -4 16445.2 786.470   1
  -3   2  -4 16828.0 747.640   1
  -3   2  -4 13768.2 570.750   1
   3  -2   4 16289.5 618.030   1
   3  -2   4 17274.6 701.320   1
  -4   2   3 2165.63 296.670   1
  -4   2   3 3426.94 177.710   1
  -4   2   3 3112.36 388.060   1
   4  -2  -3 2688.65 381.730   1
  -1  -4  -2 74.4200 163.110   1
   1   4   2 42.1100 91.6000   1
  -1  -4  -2 37.2700 91.2100   1
  -1  -4  -2 96.3200 138.290   1
  -2   4  -3 1777.84 230.320   1
   2  -4   3 1999.13 182.940   1
   2  -4   3 1416.01 164.810   1
  -2   4  -3 1861.21 205.850   1
   2  -2  -5 10313.2 664.140   1
  -2   2   5 9398.39 857.350   1
  -4  -1  -2 16397.9 751.340   1
   4   1   2 20357.0 826.250   1
   4   1   2 19735.2 1123.56   1
   4   1   2 13504.0 536.470   1
   4   1   2 16934.2 759.540   1
   4   1   2 18064.8 905.390   1
   4  -3  -2 97.4200 111.030   1
  -4   3   2 175.480 136.610   1
  -4   3   2 115.560 96.7200   1
   4  -3  -2 -90.810 209.160   1
  -4   3   2 49.6700 196.230   1
   1   4  -3 642.310 104.120   1
   1   4  -3 527.050 104.680   1
  -1  -4   3 649.970 182.470   1
   1   4  -3 797.360 116.260   1
   1   4  -3 754.640 219.150   1
  -4   1  -3 808.430 108.390   1
   4  -1   3 513.870 85.0900   1
  -4   1  -3 616.500 175.460   1
   4  -1   3 711.640 179.830   1
  -4   1  -3 702.750 181.450   1
   4  -1   3 463.130 166.160   1
   2   3   3 7546.74 452.920   1
  -2  -3  -3 7906.29 716.160   1
  -2  -3  -3 7428.44 445.140   1
   2   3   3 5555.45 600.920   1
   4   1  -3 88.7900 140.390   1
   4   1  -3 -96.370 105.620   1
  -4  -1   3 142.290 138.090   1
   4   1  -3 171.010 153.230   1
  -4  -1   3 71.8900 97.9900   1
   4   1  -3 134.050 119.800   1
  -3  -3   2 5311.30 480.240   1
   3   3  -2 3603.52 234.040   1
   3   3  -2 2992.74 372.740   1
   3   3  -2 1918.30 390.710   1
   0   4   3 5986.66 516.570   1
   0  -4  -3 6141.91 578.950   1
   0   4   3 7683.04 770.230   1
   0  -4  -3 7270.08 406.870   1
  -3  -3  -1 2949.56 325.110   1
  -3  -3  -1 2057.52 331.360   1
   3   3   1 3116.24 241.760   1
  -3  -3  -1 2718.54 496.900   1
  -3   4   2 10084.4 569.960   1
  -3   4   2 12611.3 625.880   1
  -3   4   2 13969.9 496.730   1
   3  -4  -2 14819.7 790.970   1
   3  -4   2 737.620 150.170   1
   3  -4   2 470.300 102.170   1
   3  -4   2 905.520 152.000   1
  -3   4  -2 556.810 163.790   1
   3  -4   2 1186.47 210.710   1
  -3   4  -2 950.450 166.760   1
  -2   2  -5 4370.77 444.900   1
  -2   2  -5 4389.35 334.610   1
  -2   2  -5 5627.54 461.260   1
  -2   2  -5 4111.82 390.880   1
   2  -2   5 3594.74 287.950   1
   2  -2   5 4499.42 309.140   1
  -2   2  -5 4383.24 372.110   1
   2  -2   5 4491.55 304.490   1
   2  -4  -3 24755.6 737.300   1
   2  -4  -3 24060.9 1139.83   1
  -2   4   3 19234.7 861.990   1
   3   2   3 1669.28 382.730   1
   3   2   3 1958.48 235.290   1
  -3  -2  -3 1616.17 255.550   1
   3   2   3 3426.13 298.220   1
   3   2   3 1986.71 340.130   1
  -3  -2  -3 2023.43 224.030   1
  -2  -4   0 13318.4 506.620   1
   2   4   0 14381.0 527.760   1
  -2  -4   0 9494.50 876.550   1
   2   4   0 16186.1 817.840   1
   2   4  -1 9492.05 804.020   1
  -2  -4   1 6669.47 615.650   1
   2   4  -1 10725.2 540.800   1
   1   3   4 16168.8 944.820   1
   1   3   4 14858.0 999.210   1
  -1  -3  -4 17049.4 645.830   1
   1   3   4 19791.7 892.030   1
  -1  -3  -4 24705.2 1190.10   1
   4   2  -1 176.050 117.970   1
  -4  -2   1 126.430 99.2900   1
   4   2  -1 28.4900 102.800   1
   4   2  -1 70.1200 78.7100   1
  -4  -2   1 16.7300 110.780   1
   4   2  -1 144.610 145.270   1
   0   0   6 11078.0 697.460   1
   0   0   6 11730.1 564.480   1
   0   0  -6 10107.1 515.920   1
   0   0  -6 10162.4 603.300   1
  -4  -2   0 2537.12 272.870   1
  -4  -2   0 1572.06 246.380   1
  -4  -2   0 1871.89 281.310   1
   4   2   0 1529.47 187.740   1
   4   2   0 2139.53 237.740   1
   4   2   0 3003.70 395.780   1
   3   0  -5 144.870 91.8300   1
  -3   0   5 487.320 90.7300   1
  -3   0   5 315.780 153.090   1
   3   0  -5 268.330 163.890   1
  -3   0   5 437.060 140.050   1
   3   0  -5 148.930 99.5400   1
  -2  -3   4 1166.53 187.480   1
   2   3  -4 1414.52 183.000   1
   2   3  -4 1601.90 165.450   1
   2   3  -4 1983.71 239.400   1
  -2  -3   4 2039.23 265.800   1
   2   3  -4 1600.02 256.950   1
   3   2  -4 210.750 80.9200   1
  -3  -2   4 73.2100 108.310   1
   3   2  -4 243.300 156.960   1
   3   2  -4 205.450 141.580   1
  -3  -2   4 230.530 148.260   1
   3   2  -4 227.370 126.100   1
   4  -3   2 46494.0 1072.52   1
   4  -3   2 45918.1 1300.60   1
  -4   3  -2 46067.9 1154.59   1
  -4   3  -2 48055.8 812.900   1
   4  -3   2 42346.6 1178.63   1
   2   2  -5 2493.80 441.590   1
   2   2  -5 1135.04 220.810   1
   2   2  -5 2680.23 338.410   1
  -2  -2   5 2701.55 369.770   1
   2   2  -5 2726.43 227.960   1
   2   2  -5 2340.54 370.460   1
  -2  -2   5 2398.39 282.550   1
  -2  -2   5 2385.52 193.650   1
   1   2   5 10767.2 919.750   1
  -1  -2  -5 10527.7 693.100   1
   1   2   5 10865.3 715.980   1
  -1  -2  -5 10489.9 528.520   1
  -1   0   6 4090.36 395.420   1
  -1   0   6 2363.36 223.820   1
   1   0  -6 3978.44 311.690   1
   1   0  -6 2119.85 348.630   1
   1   0  -6 3425.78 373.010   1
   3   1   4 6342.72 439.250   1
   3   1   4 4518.37 324.770   1
  -3  -1  -4 5403.94 468.590   1
   3   1   4 4410.26 500.830   1
   3   1   4 5507.74 513.540   1
   4   0   3 6166.14 590.640   1
  -4   0  -3 6484.97 371.840   1
  -4   0  -3 5178.13 558.480   1
   4   0   3 7348.58 420.430   1
   4   0   3 7568.68 447.000   1
   4   0   3 5441.57 315.310   1
  -4   0  -3 7549.81 547.440   1
   0  -3   5 4892.17 335.630   1
   0  -3   5 5967.03 359.570   1
   0   3  -5 4392.15 275.710   1
   0   3  -5 5234.32 426.800   1
   0   3  -5 8581.80 520.700   1
   0  -3   5 5940.33 314.960   1
   3  -1  -5 1341.33 268.940   1
  -3   1   5 1660.53 265.390   1
   3  -1  -5 834.020 148.110   1
  -3   1   5 787.130 131.780   1
   3  -1  -5 454.380 176.390   1
  -3   1   5 930.060 236.860   1
   0   1  -6 11051.0 735.990   1
   0   1  -6 10535.3 526.240   1
   0  -1   6 9795.18 509.050   1
   0  -1   6 10014.8 532.770   1
   0   1  -6 10594.7 563.830   1
   0  -1   6 10378.9 561.320   1
   2   1   5 1566.28 286.840   1
   2   1   5 1618.61 342.930   1
  -2  -1  -5 1490.45 277.590   1
   2   1   5 1654.36 295.330   1
  -1   5   0 29300.8 1005.05   1
  -1   5   0 30686.0 1033.82   1
  -4   2  -3 15067.5 477.520   1
   4  -2   3 16559.5 710.360   1
  -4   2  -3 17009.4 663.750   1
  -4   2  -3 19594.3 757.700   1
   4  -2   3 16712.5 632.470   1
  -1   5  -1 4167.56 415.840   1
  -1   5  -1 4764.86 344.990   1
  -1   3  -5 10583.1 571.390   1
   1  -3   5 10914.2 465.880   1
  -1   3  -5 8377.40 497.590   1
   1  -3   5 7707.34 430.280   1
  -1   3  -5 7991.48 467.010   1
   1  -3   5 8529.68 378.830   1
  -2  -4  -1 7060.86 606.040   1
   2   4   1 6519.59 417.100   1
  -2  -4  -1 5025.20 639.320   1
  -2  -4  -1 6555.26 377.680   1
   2   4  -2 -60.240 77.9600   1
   2   4  -2 9.33000 62.9900   1
  -2  -4   2 28.1500 148.900   1
   2   4  -2 111.080 155.230   1
  -1  -1   6 1697.43 264.370   1
  -1  -1   6 2399.62 248.300   1
   1   1  -6 2368.40 346.900   1
  -1  -1   6 2160.45 265.820   1
   1   1  -6 884.740 213.300   1
   1   1  -6 2584.13 249.390   1
   1   1  -6 2253.22 256.990   1
  -4   1   4 2391.52 405.500   1
  -4   1   4 4653.78 512.020   1
  -4   1   4 5468.26 280.610   1
   4  -1  -4 5091.61 475.230   1
  -4   1   4 6225.00 560.080   1
   5  -1   0 9598.70 485.270   1
   5  -1   0 11737.2 578.740   1
  -5   1   0 9009.32 322.560   1
   5  -1   0 9880.86 362.070   1
   5  -1   0 8708.89 458.130   1
  -5   1   0 8844.96 524.990   1
   4   2  -2 3747.40 554.850   1
  -4  -2   2 7713.11 557.030   1
   4   2  -2 6911.66 617.340   1
   4   2  -2 7623.34 447.920   1
  -3   3   4 2834.64 263.080   1
   3  -3  -4 3744.53 412.880   1
  -3   3   4 1189.94 314.560   1
   5  -1  -1 19953.7 897.370   1
  -5   1   1 19389.8 545.940   1
   5  -1  -1 21098.2 745.940   1
  -5   1   1 17956.4 709.610   1
   5  -1  -1 18251.3 677.870   1
  -4   0   4 3646.38 416.790   1
   4   0  -4 3543.33 423.050   1
  -4   0   4 2941.82 403.580   1
   4   0  -4 4029.80 299.550   1
  -4   0   4 5602.09 274.660   1
  -1   4  -4 2535.74 297.550   1
   1  -4   4 1819.44 186.370   1
   1  -4   4 2519.71 203.640   1
  -1   4  -4 2076.33 221.310   1
   0  -4   4 3172.71 235.850   1
   0   4  -4 2059.73 184.880   1
   0   4  -4 2692.99 234.280   1
   0   4  -4 2153.92 301.240   1
   4   2   1 771.390 179.220   1
   4   2   1 837.900 177.000   1
  -4  -2  -1 1675.85 323.540   1
  -4  -2  -1 1093.03 454.550   1
   1  -1  -6 1048.13 143.270   1
   1  -1  -6 857.680 184.400   1
  -1   1   6 1727.34 286.920   1
  -1   1   6 753.940 197.540   1
  -1   1   6 1587.16 249.000   1
   1  -1  -6 1483.16 286.660   1
   1  -1  -6 1709.64 296.400   1
   0   5   0 1309.64 193.670   1
   0   5   0 927.130 129.960   1
   0   5   0 681.730 165.880   1
  -1   5   1 2619.36 285.460   1
   1  -5  -1 3103.94 410.770   1
   0  -1  -6 579.070 216.590   1
   0   1   6 146.710 79.9100   1
   0  -1  -6 159.250 83.5300   1
   0  -1  -6 379.420 106.460   1
   0   1   6 224.030 164.770   1
   0   1   6 423.590 198.060   1
  -2   5   0 3822.12 378.250   1
  -2   5   0 4665.25 360.890   1
   0   5  -1 137.980 88.6500   1
   0   5  -1 176.910 156.060   1
  -3  -1   5 1824.97 249.780   1
  -3  -1   5 1942.86 332.660   1
   3   1  -5 1808.73 263.690   1
   3   1  -5 2172.85 383.870   1
   3   1  -5 2256.85 227.560   1
  -1   0  -6 6594.74 454.260   1
   1   0   6 6219.80 485.220   1
   1   0   6 5770.82 393.310   1
  -1   0  -6 6900.82 443.730   1
  -1   0  -6 9421.68 531.350   1
  -1   1  -6 1869.69 333.130   1
  -1   1  -6 1506.12 192.110   1
  -1   1  -6 482.650 173.880   1
   1  -1   6 2167.61 248.460   1
   1  -1   6 1554.50 202.980   1
  -1   1  -6 2226.33 283.780   1
  -1   1  -6 1739.46 221.840   1
   1  -1   6 1487.38 211.040   1
  -1  -3   5 9743.52 538.250   1
   1   3  -5 15021.0 795.410   1
   1   3  -5 9882.16 470.360   1
  -1  -3   5 13753.2 577.080   1
   1   3  -5 12166.7 618.220   1
  -1  -3   5 14939.6 656.500   1
   3  -3   4 13830.7 627.170   1
  -3   3  -4 12522.3 648.640   1
  -3   3  -4 13071.5 686.310   1
  -3   3  -4 16097.3 735.080   1
   3  -3   4 13211.7 766.070   1
   3  -3   4 14392.9 623.290   1
  -2   5  -1 5807.99 392.950   1
  -2   5  -1 4811.85 411.920   1
   3   3  -3 1022.21 144.070   1
   3   3  -3 1581.18 232.880   1
   3   3  -3 972.300 268.950   1
  -3  -3   3 1502.28 244.910   1
  -5   0   0 1218.35 148.430   1
   5   0   0 980.010 197.600   1
   5   0   0 1209.57 136.180   1
   5   0   0 987.500 146.050   1
   5   0  -1 8688.64 533.890   1
  -5   0   1 8750.83 392.610   1
   5   0  -1 7543.13 410.630   1
  -5   0   1 8894.71 655.720   1
   5   0  -1 8937.00 586.570   1
   5   0  -1 8731.41 670.170   1
  -5   0   1 7537.57 718.900   1
   5  -2   0 13222.4 555.000   1
   5  -2   0 11982.9 438.500   1
  -5   2   0 11815.5 413.140   1
  -5   2   0 10301.7 557.460   1
  -5   2   0 11939.6 515.000   1
   5  -2   0 10969.4 555.000   1
   5  -2   0 11456.7 519.140   1
  -3  -3  -2 607.520 226.890   1
  -3  -3  -2 645.140 220.400   1
   3   3   2 811.190 162.420   1
  -3  -3  -2 751.700 178.630   1
   5  -1   1 48727.1 787.530   1
   5  -1   1 48817.0 995.250   1
  -5   1  -1 39845.7 1087.88   1
  -5   1  -1 45481.4 712.680   1
   4  -3  -3 11534.9 582.980   1
  -4   3   3 11356.6 737.000   1
  -4   3   3 12262.3 738.240   1
   4  -3  -3 14098.0 834.940   1
  -4   3   3 13626.0 478.450   1
   5  -2  -1 42220.6 885.960   1
  -5   2   1 43204.1 567.450   1
   5  -2  -1 40561.6 834.130   1
   5  -2  -1 44514.6 1149.79   1
  -1   5  -2 1910.11 207.550   1
  -1   5  -2 1843.70 189.590   1
  -1   5  -2 3292.35 288.610   1
  -1   3   5 1514.68 266.840   1
  -1   3   5 1713.35 211.780   1
   1  -3  -5 1620.54 282.800   1
  -1   3   5 1878.74 298.570   1
   1  -3  -5 2343.51 233.140   1
  -1  -4  -3 103.400 185.470   1
  -1  -4  -3 70.6500 77.7000   1
   1   4   3 179.510 115.600   1
   2  -5  -1 943.050 234.780   1
  -2   5   1 1291.82 190.000   1
   2   0  -6 442.350 108.370   1
  -2   0   6 134.000 117.510   1
   2   0  -6 284.640 164.680   1
   2   0  -6 149.630 91.5700   1
  -2   0   6 274.500 141.840   1
   4  -4   0 1854.34 210.770   1
   4  -4   0 1717.48 189.170   1
  -4   4   0 1911.56 176.620   1
   4  -4   0 2062.07 276.180   1
   0   5   1 7378.80 566.120   1
   0  -5  -1 8086.53 672.980   1
  -5   1   2 2619.36 354.770   1
   5  -1  -2 2726.50 280.060   1
  -5   1   2 2353.98 292.600   1
  -5   1   2 2802.44 170.060   1
   5  -1  -2 2603.56 332.000   1
   3  -2  -5 1632.58 217.900   1
  -3   2   5 801.280 169.660   1
   3  -2  -5 1632.17 154.710   1
  -3   2   5 1173.49 249.960   1
   3  -2  -5 1592.46 253.200   1
   0  -2   6 11400.4 482.170   1
   0  -2   6 10331.3 582.520   1
   0   2  -6 9147.01 482.390   1
   0   2  -6 11544.9 665.670   1
   0  -2   6 10486.5 574.830   1
   0   2  -6 13316.9 717.590   1
  -3   4   3 2048.47 214.380   1
  -3   4   3 2988.93 313.550   1
   3  -4  -3 2734.65 314.140   1
  -3   4   3 2782.59 250.720   1
  -3   4  -3 25031.2 726.930   1
   3  -4   3 16641.2 720.380   1
   3  -4   3 21500.2 567.740   1
  -3   4  -3 20663.1 772.650   1
  -4   2   4 2119.05 349.620   1
   4  -2  -4 2080.17 291.770   1
  -4   2   4 1659.08 308.040   1
  -4   2   4 2013.38 173.410   1
  -4   4   1 13367.3 754.830   1
  -4   4   1 16954.2 619.750   1
   4  -4  -1 12393.8 824.540   1
   0   5  -2 1271.82 238.260   1
   0   5  -2 1365.72 135.110   1
   4   1   3 71.4300 82.0100   1
  -4  -1  -3 -3.5800 98.9200   1
   4   1   3 -24.770 68.8900   1
   4   1   3 -31.870 128.290   1
   4   1   3 -57.180 97.8800   1
   4   1   3 -57.860 188.290   1
   0   3   5 654.410 223.510   1
   0  -3  -5 1631.69 323.910   1
   0   3   5 2480.49 341.170   1
   0  -3  -5 1534.39 217.240   1
  -5   2  -1 -23.860 159.460   1
   5  -2   1 44.5900 161.360   1
   5  -2   1 78.9700 176.840   1
   5  -2   1 -58.270 132.120   1
  -5   2  -1 103.500 82.6700   1
   5  -2   1 98.8800 102.110   1
  -3   1  -5 3828.71 323.920   1
  -3   1  -5 2931.82 487.860   1
   3  -1   5 4057.59 316.020   1
   3  -1   5 4038.08 287.120   1
   3  -1   5 3695.23 309.230   1
  -3   1  -5 5132.75 402.820   1
   3  -1   5 2515.59 301.690   1
   3  -1   5 3116.62 417.370   1
  -2   1   6 10083.0 779.380   1
  -2   1   6 6079.45 595.320   1
   2  -1  -6 9582.29 645.880   1
   2  -1  -6 7131.40 398.740   1
   2  -1  -6 8059.42 562.370   1
   2  -1  -6 7364.66 641.800   1
   4  -4   1 6215.81 372.470   1
  -4   4  -1 5186.87 310.500   1
   4  -4   1 6064.54 388.210   1
  -4   4  -1 6738.70 379.540   1
  -2   4  -4 4744.85 406.810   1
   2  -4   4 4949.64 333.820   1
   2  -4   4 3371.04 286.070   1
  -2   4  -4 4235.59 419.220   1
   2  -3   5 5174.69 330.260   1
  -2   3  -5 3545.33 388.720   1
  -2   3  -5 4201.41 397.020   1
  -2   3  -5 4507.20 360.950   1
   2  -3   5 3789.88 339.270   1
   1  -4  -4 10294.0 566.060   1
  -1   4   4 9360.14 738.690   1
   1  -4  -4 14782.0 824.070   1
   5   0   1 2163.13 266.390   1
   5   0   1 2323.61 179.930   1
  -5   0  -1 2297.02 176.350   1
  -5   0   2 4269.00 525.670   1
   5   0  -2 2863.72 307.970   1
  -5   0   2 4309.64 238.250   1
   5   0  -2 4358.26 297.220   1
   5   0  -2 3854.59 493.180   1
  -5   0   2 3667.99 461.760   1
   1   4  -4 1490.59 319.630   1
   1   4  -4 1687.21 186.260   1
   1   4  -4 2003.98 188.070   1
   4   1  -4 2585.56 437.210   1
   4   1  -4 2148.56 214.770   1
   4   1  -4 1659.56 273.730   1
  -4  -1   4 2060.49 357.310   1
  -4  -1   4 1371.26 256.200   1
   4   1  -4 2134.71 276.110   1
  -2  -4  -2 503.800 195.650   1
  -2  -4  -2 440.910 103.630   1
   2   4   2 550.540 138.110   1
  -2  -4  -2 651.190 186.040   1
   2   4  -3 0.98000 77.1900   1
  -2  -4   3 -214.15 173.660   1
   2   4  -3 -31.050 93.2400   1
   2   4  -3 240.460 200.680   1
   2   4  -3 -40.660 103.420   1
  -2   3   5 2649.65 450.160   1
  -2   3   5 2685.07 308.750   1
   2  -3  -5 3512.06 278.300   1
   2  -3  -5 4447.52 448.870   1
  -4   3  -3 1731.66 187.270   1
   4  -3   3 1255.52 183.730   1
  -4   3  -3 1200.78 163.650   1
   4  -3   3 1392.63 165.680   1
   4  -3   3 1364.66 233.970   1
  -4   3  -3 1489.99 207.730   1
  -2  -1   6 3442.62 309.040   1
  -2  -1   6 3383.86 367.800   1
   2   1  -6 3245.86 312.650   1
   2   1  -6 3223.62 265.910   1
   2   1  -6 1485.31 235.690   1
   4   2  -3 11725.2 626.750   1
   4   2  -3 15800.5 1112.27   1
  -4  -2   3 11713.7 865.270   1
   4   2  -3 12523.6 809.280   1
   1   1   6 1014.45 186.620   1
  -1  -1  -6 1214.61 252.420   1
   1   1   6 1063.11 221.470   1
   1   1   6 935.820 205.970   1
   1   1   6 1283.30 203.300   1
  -2   5  -2 1357.72 200.370   1
  -2   5  -2 947.180 178.180   1
  -1   5   2 5600.34 495.110   1
   1  -5  -2 7113.21 680.010   1
   1  -2   6 2287.47 256.550   1
   1  -2   6 2739.90 280.200   1
  -1   2  -6 2583.70 321.580   1
   1  -2   6 2454.37 240.650   1
  -1   2  -6 2352.00 280.220   1
  -1   2  -6 2167.49 237.660   1
  -1   2  -6 3206.32 361.340   1
  -1  -2   6 2612.36 277.030   1
   1   2  -6 2899.83 270.060   1
   1   2  -6 1494.40 235.000   1
   1   2  -6 2979.98 432.240   1
  -1  -2   6 3814.06 259.630   1
   1   2  -6 2773.46 355.610   1
  -1  -2   6 2686.82 289.560   1
  -5   2   2 1159.40 257.540   1
  -5   2   2 762.250 119.850   1
   5  -2  -2 743.400 205.480   1
  -5   2   2 573.660 157.410   1
   5  -2  -2 1014.75 172.460   1
   3   0   5 5672.80 391.390   1
   3   0   5 7386.52 563.380   1
   3   0   5 7855.96 453.240   1
   3   0   5 5158.79 509.270   1
  -3   0  -5 5922.30 435.840   1
  -3   0  -5 5225.11 609.740   1
   4   2   2 6265.95 430.910   1
  -4  -2  -2 6373.68 734.100   1
   4   2   2 8713.51 490.230   1
   4   2   2 11347.7 547.640   1
   4   2   2 10021.9 748.640   1
  -4  -2  -2 10827.5 776.070   1
  -2   4   4 1174.54 200.410   1
   2  -4  -4 863.090 314.500   1
  -2   4   4 857.950 196.430   1
  -4   1  -4 252.720 144.770   1
   4  -1   4 318.130 189.370   1
   4  -1   4 224.710 120.560   1
  -4   1  -4 222.730 89.2700   1
   4  -1   4 78.8100 147.650   1
  -4   1  -4 214.770 138.470   1
  -1  -5   0 1335.23 353.570   1
   1   5   0 1633.81 266.840   1
   1   5   0 2232.89 240.600   1
   0  -4  -4 3535.04 283.720   1
   0  -4  -4 3904.74 468.810   1
   0   4   4 2239.67 396.350   1
   1   5  -1 923.930 297.970   1
   1   5  -1 1208.58 139.090   1
   2   3   4 565.980 112.430   1
  -2  -3  -4 712.960 131.060   1
   2   3   4 895.540 255.480   1
   2   3   4 395.800 140.600   1
  -2  -3  -4 537.170 195.970   1
   2   3   4 653.750 161.840   1
  -1   2   6 1224.07 266.340   1
   1  -2  -6 1504.54 206.740   1
  -1   2   6 1584.63 301.360   1
   1  -2  -6 1920.11 289.760   1
  -3   2  -5 2300.28 308.030   1
  -3   2  -5 1970.71 212.330   1
   3  -2   5 2208.39 220.210   1
  -3   2  -5 1312.71 211.980   1
   3  -2   5 2382.58 325.420   1
   3  -2   5 2178.85 194.930   1
   3  -2   5 2254.71 217.040   1
   2  -5  -2 320.030 199.990   1
  -2   5   2 559.050 126.840   1
   2   2   5 987.510 221.730   1
  -2  -2  -5 742.730 174.320   1
   2   2   5 464.710 202.150   1
   2   2   5 795.930 306.490   1
  -3   5   0 690.580 131.640   1
   3   2   4 601.230 240.460   1
  -3  -2  -4 579.260 195.590   1
   3   2   4 730.110 198.400   1
   3   2   4 437.920 95.7900   1
   3   2   4 650.070 197.510   1
   5  -1   2 4009.07 358.190   1
   5  -1   2 4871.03 249.440   1
  -5   1  -2 4671.09 246.530   1
   5  -1   2 3966.51 346.790   1
  -5   1  -2 4193.11 348.730   1
  -5   1  -2 4124.90 267.680   1
  -5   1  -2 3941.07 364.170   1
   4  -4  -2 8134.07 724.890   1
  -4   4   2 9733.31 419.450   1
  -4   4   2 8678.66 652.770   1
   5   1  -1 9870.40 510.490   1
   5   1  -1 10469.3 724.080   1
   5   1  -1 11734.5 854.670   1
  -5  -1   1 11467.3 1009.56   1
   0  -5  -2 481.540 189.780   1
   0   5   2 374.830 144.900   1
   0  -5  -2 342.130 93.8000   1
   5   1   0 7476.31 451.220   1
   5   1   0 5963.29 396.910   1
   5   1   0 5756.18 511.840   1
   0   2   6 2087.53 268.710   1
   0  -2  -6 1996.28 264.620   1
   0   2   6 904.510 212.040   1
   0  -2  -6 2123.06 325.480   1
   0   2   6 2427.08 346.320   1
   5  -3   0 1992.66 227.970   1
  -5   3   0 2072.90 162.030   1
   5  -3   0 1975.72 242.520   1
   5  -3   0 1795.58 208.490   1
  -5   3   0 1710.17 270.990   1
  -2   1  -6 3990.42 356.780   1
   2  -1   6 2814.42 251.300   1
   2  -1   6 3976.11 371.050   1
   2  -1   6 4550.18 298.500   1
  -1   5  -3 3296.45 300.430   1
  -1   5  -3 4464.08 288.890   1
  -1   5  -3 4247.75 442.260   1
  -3   5  -1 3315.56 280.350   1
  -3   5  -1 2320.23 276.340   1
  -5   1   3 2083.29 314.110   1
  -5   1   3 3573.37 493.790   1
  -5   1   3 4265.45 225.290   1
  -5   1   3 2854.99 344.200   1
   5  -1  -3 3431.89 389.230   1
   5  -1  -3 3124.28 279.530   1
   4   0   4 4104.21 357.960   1
   4   0   4 7693.91 408.590   1
   4   0   4 5184.70 571.930   1
  -4   0  -4 5619.96 450.750   1
  -4   0  -4 4634.32 524.310   1
   4   0   4 7163.12 482.750   1
   4   0   4 8145.64 462.490   1
  -4   4  -2 351.420 117.670   1
  -4   4  -2 463.590 144.890   1
   4  -4   2 614.900 235.980   1
   4  -4   2 456.640 151.020   1
   4  -4   2 498.290 99.9900   1
   4  -2   4 2306.42 235.760   1
  -4   2  -4 2264.34 206.800   1
   4  -2   4 3685.34 277.500   1
   4  -2   4 4327.67 320.790   1
  -4   2  -4 3229.77 326.980   1
  -4   2  -4 3765.35 395.850   1
   4  -2   4 2755.61 308.590   1
  -5   3   1 65.8400 151.200   1
   5  -3  -1 22.7500 166.680   1
   5  -3  -1 71.2600 211.770   1
   5  -3  -1 43.7900 105.150   1
  -5   3   1 64.8500 88.3600   1
   5  -3  -1 -218.10 142.820   1
   3   2  -5 4763.21 441.640   1
  -3  -2   5 3767.56 393.420   1
   3   2  -5 4560.81 624.320   1
   3   2  -5 4568.90 343.500   1
   2   3  -5 246.720 104.600   1
  -2  -3   5 372.330 110.390   1
   2   3  -5 313.720 187.570   1
   2   3  -5 458.630 152.580   1
   3  -5  -1 208.280 218.010   1
  -3   5   1 79.3700 102.510   1
  -2   0  -6 1925.11 233.960   1
   2   0   6 2665.61 264.540   1
  -2   0  -6 2191.59 331.230   1
   2   0   6 1925.42 288.810   1
   2   0   6 2542.57 270.850   1
   2   0   6 1736.14 278.990   1
  -5   2  -2 124.180 98.5800   1
   5  -2   2 -12.050 96.3800   1
  -5   2  -2 56.6300 78.6200   1
   5  -2   2 188.460 148.530   1
  -5   2  -2 128.290 127.530   1
   5  -2   2 59.8500 153.900   1
  -1  -5  -1 14265.1 948.460   1
   1   5   1 12930.4 575.430   1
   1   5  -2 28.2400 76.5200   1
   1   5  -2 -146.60 162.230   1
   0   5  -3 23.8000 198.670   1
   0   5  -3 188.500 100.630   1
   3   3  -4 1261.62 214.260   1
   3   3  -4 850.090 225.180   1
  -3  -3   4 846.730 135.090   1
   3   3  -4 660.780 115.650   1
  -3  -3   4 985.970 199.340   1
   3   3  -4 663.750 115.510   1
   5   0   2 964.340 128.110   1
   5   0   2 474.820 232.790   1
   5   0   2 451.010 180.030   1
   5   0   2 945.090 139.660   1
   5   0   2 939.410 194.430   1
   5   0  -3 7615.87 657.840   1
  -5   0   3 8087.24 598.830   1
   5   0  -3 7356.73 644.930   1
  -5   0   3 5542.94 554.940   1
   5   0  -3 7650.79 401.940   1
  -5   0   3 9090.77 422.120   1
  -1  -3  -5 4082.21 415.920   1
   1   3   5 3941.56 445.130   1
  -1  -3  -5 3648.91 303.430   1
   1   3   5 2396.58 418.670   1
   2  -2  -6 1755.44 259.800   1
  -2   2   6 1440.04 249.090   1
  -2   2   6 2156.69 342.970   1
   2  -2  -6 777.080 181.710   1
   3   3   3 3795.75 312.920   1
  -3  -3  -3 4360.21 339.170   1
  -3  -3  -3 4607.68 576.740   1
   5   1  -2 113.210 148.140   1
  -5  -1   2 27.8000 93.7100   1
   5   1  -2 10.6800 116.380   1
  -5  -1   2 42.2800 140.820   1
   5   1  -2 91.1800 108.510   1
  -5   3  -1 7570.24 333.850   1
   5  -3   1 8701.82 477.570   1
   5  -3   1 7104.97 435.670   1
   3   4  -1 1270.62 158.650   1
  -3  -4   1 1559.42 233.550   1
   3   4  -1 1632.94 310.470   1
   3   4  -1 965.270 150.390   1
   3   4   0 1197.57 250.590   1
   3   4   0 2518.21 249.030   1
  -3  -4   0 2810.49 433.190   1
  -4  -3   1 7246.16 555.550   1
   4   3  -1 5412.31 330.040   1
   4   3  -1 6686.92 553.300   1
   4   3  -1 3968.99 571.590   1
   5   1   1 6529.63 472.680   1
   5   1   1 7191.90 473.200   1
   5   1   1 7616.05 593.380   1
   5   1   1 9549.74 531.230   1
  -4   1   5 3918.62 210.020   1
  -4   1   5 2031.55 376.950   1
   4  -1  -5 2703.05 355.020   1
  -4  -3   0 124.650 166.960   1
  -4  -3   0 98.2300 130.370   1
   4   3   0 47.3800 87.1000   1
   4   3   0 67.4700 88.5900   1
  -4   0   5 362.360 95.5600   1
   4   0  -5 486.400 184.240   1
  -4   0   5 455.070 164.250   1
   4   0  -5 467.920 114.160   1
   3   1   5 3388.51 414.940   1
  -3  -1  -5 3837.96 397.090   1
   3   1   5 3516.19 365.330   1
   3   1   5 6389.83 614.720   1
   3   1   5 4305.89 439.300   1
   3   1   5 4201.91 381.560   1
  -5   2   3 967.620 182.160   1
   5  -2  -3 1112.66 243.940   1
  -5   2   3 1094.11 239.750   1
  -5   2   3 1654.85 135.830   1
   4  -3  -4 2148.88 248.950   1
   4  -3  -4 2170.37 320.150   1
  -4   3   4 2602.48 312.470   1
  -4   3   4 3100.54 189.820   1
  -2   5  -3 1408.60 212.260   1
   2  -5   3 990.840 153.730   1
  -2   5  -3 992.720 175.720   1
   0  -4   5 1275.24 139.740   1
   0   4  -5 1209.67 235.040   1
   0   4  -5 966.060 183.240   1
   0   4  -5 917.880 122.650   1
  -3   0   6 322.110 137.760   1
   3   0  -6 137.250 102.140   1
  -3   0   6 210.860 179.380   1
   3   0  -6 366.650 166.010   1
  -3   0   6 139.300 70.8700   1
   2  -2   6 1615.54 192.270   1
  -2   2  -6 1364.19 206.320   1
   2  -2   6 1362.29 155.970   1
  -2   2  -6 1608.60 250.630   1
  -2   2  -6 1301.57 244.920   1
   2  -2   6 1508.95 185.950   1
  -1   4  -5 2394.75 224.760   1
   1  -4   5 3298.57 247.000   1
  -1   4  -5 2288.78 305.370   1
   2   2  -6 4163.23 408.340   1
  -2  -2   6 2893.19 329.370   1
   2   2  -6 4254.39 478.010   1
   2   2  -6 3529.18 304.510   1
  -2  -2   6 4761.24 299.010   1
   3  -3  -5 552.370 208.880   1
  -3   3   5 354.650 97.1000   1
   5  -3  -2 12298.7 720.200   1
   5  -3  -2 11589.9 490.750   1
  -5   3   2 10877.4 709.000   1
   5  -3  -2 11639.4 491.860   1
  -5   3   2 14185.4 490.120   1
   5  -3  -2 10478.2 543.410   1
   3  -5   2 4334.93 286.650   1
  -3   5  -2 5437.56 418.890   1
  -3   5  -2 3994.91 386.980   1
   0   3  -6 68.6600 83.1700   1
   0  -3   6 55.0500 118.930   1
   0  -3   6 123.740 93.6100   1
   0   3  -6 15.1500 173.340   1
   0  -3   6 11.2800 106.700   1
   0   3  -6 35.0700 155.220   1
  -3   1   6 8733.00 739.460   1
   3  -1  -6 6494.49 378.940   1
  -3   1   6 3526.07 539.000   1
   3  -1  -6 8575.70 675.420   1
   3  -4  -4 205.950 197.110   1
  -3   4   4 -3.4000 98.0900   1
  -3   4  -4 403.180 194.120   1
  -3   4  -4 387.670 215.550   1
   3  -4   4 291.870 149.890   1
  -3   4  -4 324.800 138.100   1
  -1   5   3 823.830 202.330   1
   1  -5  -3 1034.62 236.080   1
   3   4  -2 599.550 106.530   1
   3   4  -2 578.120 121.990   1
   3   4  -2 567.000 197.610   1
  -3  -4   2 896.360 201.040   1
  -2  -4  -3 -21.250 227.210   1
  -2  -4  -3 208.570 147.020   1
   2   4   3 62.7400 91.6700   1
  -2  -4  -3 46.8600 83.7300   1
  -3   5   2 4890.52 359.110   1
   3  -5  -2 4013.94 483.500   1
  -1  -4  -4 5931.77 395.480   1
   1   4   4 5635.16 624.750   1
  -1  -4  -4 7381.86 722.250   1
   2   4  -4 4088.05 303.590   1
   2   4  -4 6074.59 578.120   1
   2   4  -4 4311.76 306.030   1
   4   3  -2 2839.59 283.930   1
   4   3  -2 2201.05 385.940   1
   4   3  -2 1477.77 370.070   1
  -4  -3   2 3205.02 341.740   1
  -4  -2   4 10668.1 787.500   1
   4   2  -4 16174.4 1144.06   1
   4   2  -4 14448.1 979.360   1
  -4  -2   4 9842.19 633.570   1
   4   2  -4 12453.5 642.580   1
   4   2  -4 8202.33 420.290   1
   1   2   6 7936.88 721.280   1
   1   2   6 9699.65 658.890   1
  -1  -2  -6 8956.13 696.470   1
  -1  -2  -6 10385.9 645.250   1
   3   4   1 3227.83 319.200   1
  -3  -4  -1 2618.56 295.950   1
  -3  -4  -1 2467.72 461.550   1
  -3  -4  -1 2554.02 295.430   1
  -1   3  -6 271.270 157.130   1
   1  -3   6 141.900 99.2300   1
   1  -3   6 160.080 117.200   1
   1  -3   6 188.650 113.570   1
  -1   3  -6 170.160 92.4500   1
  -3   3  -5 7250.10 578.210   1
  -3   3  -5 9012.12 646.930   1
   3  -3   5 6773.64 440.550   1
   3  -3   5 9440.51 506.460   1
   2   1   6 414.330 168.120   1
   2   1   6 851.330 184.750   1
   2   1   6 518.010 152.510   1
  -2  -1  -6 326.760 170.360   1
   2   1   6 610.980 187.360   1
   4   2   3 4160.72 325.230   1
   4   2   3 4373.84 579.600   1
  -4  -2  -3 5174.47 541.010   1
   4   2   3 6186.56 479.640   1
   4   2   3 4045.33 562.050   1
   4   2   3 2747.48 299.710   1
  -4  -3  -1 1712.15 264.290   1
  -4  -3  -1 907.430 307.000   1
  -4  -3  -1 2101.73 404.210   1
   4   3   1 1480.02 178.680   1
  -4   4   3 4161.61 332.790   1
  -4   4   3 3911.46 464.310   1
   4  -4  -3 4853.80 476.920   1
  -2   5   3 0.21000 138.400   1
   2  -5  -3 281.830 218.860   1
   1   5   2 622.160 159.220   1
   1   5   2 662.300 122.000   1
  -1  -5  -2 542.690 183.670   1
  -1  -5  -2 515.490 144.510   1
   4   1   4 3752.13 377.490   1
   4   1   4 4948.34 420.770   1
  -4  -1  -4 3640.37 357.540   1
   4   1   4 4157.70 350.790   1
   4   1   4 1742.83 264.070   1
   4   1   4 3105.11 493.720   1
  -4   2   5 3061.02 415.820   1
  -4   2   5 2023.38 167.630   1
  -4   2   5 2036.06 327.070   1
   4  -2  -5 2191.74 305.870   1
   1   5  -3 272.480 168.820   1
   1   5  -3 174.520 81.3200   1
   0   0   7 7748.88 613.080   1
   0   0  -7 7562.62 591.710   1
   0   0  -7 6776.41 449.110   1
   0   0   7 6785.08 523.700   1
   3   1  -6 166.690 108.800   1
   3   1  -6 115.070 146.780   1
  -3  -1   6 80.1000 122.360   1
   4  -3   4 2291.90 241.050   1
   4  -3   4 2879.59 264.320   1
  -4   3  -4 2624.21 243.840   1
   4  -3   4 2763.48 312.670   1
  -4   3  -4 3248.26 317.370   1
  -4   3  -4 2729.51 285.710   1
   4  -3   4 2949.31 255.390   1
   5  -3   2 20568.7 842.610   1
   5  -3   2 16957.3 743.970   1
  -5   3  -2 18524.3 566.200   1
  -5   3  -2 18397.5 608.330   1
   5  -3   2 15943.1 753.680   1
   1   0  -7 2727.83 275.000   1
   1   0  -7 1857.43 305.510   1
  -1   0   7 3217.15 339.600   1
  -1   0   7 3190.60 360.720   1
   1   0  -7 3264.40 336.370   1
  -5   1  -3 4830.09 323.040   1
  -5   1  -3 5523.35 302.260   1
  -5   1  -3 4919.94 523.080   1
   5  -1   3 4185.85 407.210   1
  -5   1  -3 4993.65 488.730   1
   5  -1   3 4570.92 334.540   1
   5  -1   3 5925.08 309.240   1
   1   3  -6 1178.60 246.850   1
   1   3  -6 780.510 180.960   1
  -1  -3   6 1622.84 182.930   1
  -1  -3   6 895.720 152.350   1
   1   3  -6 1362.85 199.710   1
   4   1  -5 3068.69 263.450   1
   4   1  -5 2814.16 335.300   1
  -4  -1   5 2207.92 333.740   1
   4   1  -5 1928.29 326.680   1
  -4  -1   5 1998.48 297.470   1
   5   1  -3 -52.370 110.860   1
   5   1  -3 103.850 132.060   1
  -5  -1   3 100.540 109.420   1
   5   1  -3 -40.450 116.960   1
  -5  -1   3 77.1900 132.650   1
   0  -5  -3 2081.29 376.410   1
   0  -5  -3 2298.31 239.670   1
   0   5   3 2288.66 341.380   1
   1   4  -5 7390.58 719.300   1
   1   4  -5 9391.02 574.180   1
   1   4  -5 7813.73 497.840   1
   0   1  -7 8.91000 90.2900   1
   0  -1   7 190.290 140.480   1
   0   1  -7 -9.8900 96.7500   1
   0   1  -7 50.7300 198.190   1
   0   1  -7 26.3700 176.480   1
   0  -1   7 177.750 121.340   1
   0  -1   7 68.0900 78.8700   1
  -4   4  -3 824.840 170.030   1
   4  -4   3 635.310 146.770   1
  -4   4  -3 791.100 167.890   1
   4  -4   3 908.120 172.690   1
  -2   4  -5 10238.7 672.580   1
   2  -4   5 11974.8 608.690   1
  -2   4  -5 9373.75 592.350   1
   5   1   2 76.7600 71.4400   1
   5   1   2 194.400 119.560   1
   5   1   2 -32.130 181.940   1
   1   1  -7 12.3500 91.9800   1
   1   1  -7 115.690 148.990   1
  -1  -1   7 45.0400 106.820   1
   1   1  -7 57.9100 89.8500   1
  -5   1   4 1624.88 316.810   1
   5  -1  -4 1940.66 296.640   1
  -5   1   4 1854.79 320.370   1
  -5   1   4 1952.06 175.170   1
   2   5  -1 131.430 81.4700   1
   2   5  -1 -173.09 148.960   1
  -2  -5   1 125.800 177.200   1
  -5   2  -3 1465.21 214.700   1
  -5   2  -3 1139.74 113.070   1
  -5   2  -3 1393.75 210.190   1
   5  -2   3 1222.20 208.260   1
   5  -2   3 1108.41 216.000   1
   5  -2   3 1284.94 137.390   1
  -2  -5   0 297.470 204.270   1
   2   5   0 718.830 162.140   1
   2   5   0 523.310 115.740   1
   1  -4  -5 6822.04 592.160   1
  -1   4   5 9006.14 715.710   1
  -1   4   5 3884.77 540.820   1
   1  -4  -5 4357.92 387.400   1
  -1   5  -4 875.540 138.700   1
  -1   5  -4 1024.90 233.840   1
   1  -5   4 1089.79 151.110   1
   3  -2  -6 133.220 212.520   1
  -3   2   6 606.930 225.050   1
  -3   2   6 423.230 112.550   1
   1  -3  -6 4357.75 443.900   1
  -1   3   6 3872.68 338.640   1
  -1   3   6 2122.85 362.260   1
   1  -3  -6 1668.50 268.870   1
  -1   3   6 2643.91 396.600   1
  -5  -2   1 759.100 219.080   1
   5   2  -1 730.540 130.950   1
   5   2  -1 506.600 185.170   1
   5   2  -1 1083.80 250.520   1
  -1   1   7 1419.57 254.480   1
   1  -1  -7 1737.79 201.200   1
   1  -1  -7 550.550 153.010   1
  -1   1   7 386.880 142.580   1
  -1   1   7 1838.05 322.920   1
   1  -1  -7 1871.88 312.110   1
   5   0   3 3554.82 538.660   1
  -5   0  -3 4856.27 564.770   1
   5   0   3 5865.26 440.040   1
   5   0   3 6163.03 400.080   1
   5   0   3 5805.14 388.400   1
   3   4  -3 -86.650 120.610   1
   3   4  -3 -7.5600 188.330   1
  -3  -4   3 -37.150 179.180   1
   3   4  -3 -40.430 93.1900   1
   0   5  -4 1830.64 325.780   1
   0   5  -4 1893.03 174.980   1
  -5   0   4 2091.01 352.580   1
  -5   0   4 2416.06 192.540   1
   5   0  -4 1635.67 288.290   1
  -5   0   4 1381.24 270.310   1
   5   0  -4 2060.05 200.970   1
   4  -5   0 1641.57 298.410   1
  -4   5   0 1752.56 196.630   1
   5  -3  -3 8962.82 517.300   1
  -5   3   3 13700.8 552.890   1
  -5   3   3 10350.6 786.240   1
   5  -3  -3 10198.1 719.380   1
   5   2   0 118.000 105.200   1
   4   3  -3 993.970 141.980   1
   4   3  -3 1402.54 273.990   1
  -4  -3   3 979.360 225.030   1
   4   3  -3 901.660 284.850   1
   0  -1  -7 2240.33 253.670   1
   0   1   7 920.600 180.610   1
   0  -1  -7 1832.34 255.150   1
   0  -1  -7 2573.89 331.600   1
   0   1   7 2380.50 362.680   1
   0   1   7 1920.21 278.590   1
   5  -4   0 21520.5 878.750   1
  -5   4   0 25204.4 727.490   1
   5  -4   0 16449.0 788.250   1
  -1   1  -7 1389.88 197.710   1
  -1   1  -7 423.610 160.400   1
  -1   1  -7 1487.51 174.980   1
   1  -1   7 1212.82 215.920   1
   1  -1   7 2082.72 242.020   1
   1  -1   7 1456.61 196.520   1
   3  -5   3 1553.25 170.390   1
  -3   5  -3 2105.21 243.190   1
  -3   5  -3 1806.74 288.720   1
   2  -4  -5 39.1800 202.120   1
  -2   4   5 -37.570 108.190   1
  -2   4   5 42.3100 157.070   1
  -2   4   5 -10.210 139.360   1
   1   0   7 1534.26 213.940   1
  -1   0  -7 1648.07 199.900   1
  -1   0  -7 3022.58 326.960   1
   1   0   7 1488.85 235.270   1
  -1   0  -7 1339.81 222.070   1
   2  -3   6 4026.74 335.950   1
  -2   3  -6 4256.68 409.370   1
  -2   3  -6 4351.77 377.150   1
   2  -3   6 4674.61 311.830   1
  -2   3  -6 4221.43 525.330   1
   2  -3   6 6809.71 409.270   1
  -3  -4  -2 2142.24 331.420   1
  -3  -4  -2 2651.37 462.160   1
   3   4   2 2052.82 235.610   1
  -3  -4  -2 2117.25 245.820   1
   4  -5  -1 475.860 176.440   1
  -4   5   1 609.010 116.300   1
  -5   4   1 3849.01 257.550   1
   5  -4  -1 3024.20 324.600   1
   5  -4  -1 3197.37 262.790   1
   2   5  -2 1290.82 129.200   1
   2   5  -2 1240.68 299.470   1
  -4   5  -1 161.180 121.000   1
  -4   5  -1 294.220 128.750   1
   4  -5   1 203.550 118.890   1
   0   4   5 11153.2 956.970   1
   0  -4  -5 13370.7 698.840   1
   0   4   5 11350.2 796.590   1
   0  -4  -5 13167.2 842.290   1
   0  -3  -6 875.380 172.550   1
   0   3   6 443.960 206.600   1
   0   3   6 1729.14 288.530   1
   0  -3  -6 1616.81 256.580   1
   0   3   6 1414.69 282.940   1
   0  -3  -6 1213.55 159.470   1
   4  -1   5 6426.96 477.600   1
  -4   1  -5 3158.64 320.020   1
   4  -1   5 4964.03 394.060   1
  -4   1  -5 3285.92 471.510   1
  -4   1  -5 3789.69 366.890   1
   4  -1   5 5071.25 412.820   1
   4  -1   5 3996.87 537.780   1
   4  -1   5 4823.64 345.200   1
   2   0  -7 425.330 111.020   1
  -2   0   7 277.640 132.040   1
   2   0  -7 219.630 135.210   1
   2   0  -7 346.430 163.720   1
  -2   0   7 279.120 142.250   1
   3  -1   6 1592.39 182.540   1
   3  -1   6 2085.78 218.870   1
   3  -1   6 1904.35 201.910   1
  -3   1  -6 1399.61 217.500   1
   5  -2  -4 185.860 196.100   1
  -5   2   4 -270.60 177.290   1
  -5   2   4 -32.330 115.110   1
  -5   2   4 14.0400 85.8600   1
  -4  -3  -2 247.590 182.890   1
   4   3   2 283.920 97.0100   1
  -4  -3  -2 197.880 131.450   1
  -4  -3  -2 305.330 167.910   1
  -2  -5  -1 900.910 225.300   1
  -2  -5  -1 1116.28 312.350   1
   2   5   1 1016.93 146.470   1
  -2   3   6 3194.09 348.380   1
   2  -3  -6 1835.45 244.300   1
   2  -3  -6 3335.73 403.690   1
  -2   3   6 3363.76 341.350   1
   3  -5  -3 13392.2 935.570   1
  -3   5   3 13740.5 700.460   1
  -3   5   3 9172.06 615.570   1
   5   2  -2 1326.46 385.500   1
  -5  -2   2 2295.18 335.980   1
   5   2  -2 1958.85 225.390   1
   5   2  -2 2768.43 431.780   1
   2   3   5 2973.73 481.720   1
  -2  -3  -5 3746.67 441.290   1
   2   3   5 3086.90 309.000   1
   2   3   5 2281.53 332.100   1
  -2  -3  -5 2619.19 291.990   1
   2   3   5 1683.52 354.500   1
  -1   6   0 220.420 166.630   1
  -1   6   0 111.890 111.190   1
  -5   4  -1 8557.90 470.120   1
   5  -4   1 7397.54 485.550   1
   0  -2   7 1223.86 202.410   1
   0   2  -7 1282.22 246.290   1
   0  -2   7 1399.45 202.170   1
   0   2  -7 1176.80 231.980   1
   0  -2   7 1233.99 180.550   1
   0   2  -7 1214.56 178.090   1
   0   2  -7 331.050 132.030   1
  -2   5  -4 3538.31 337.460   1
  -2   5  -4 2904.60 314.090   1
   2  -5   4 3607.64 273.040   1
   3   3  -5 180.830 153.110   1
  -3  -3   5 125.910 100.240   1
   3   3  -5 165.000 122.030   1
   3   3  -5 87.6800 106.690   1
   3   2   5 1918.41 304.340   1
   3   2   5 1431.94 292.760   1
   3   2   5 954.830 228.030   1
   3   2   5 1140.03 272.090   1
  -3  -2  -5 1318.52 253.630   1
  -1   6  -1 -79.150 134.020   1
  -1   6  -1 16.6300 106.170   1
   3   3   4 2076.90 265.080   1
   3   3   4 1323.31 334.810   1
  -3  -3  -4 1188.96 211.940   1
   3   3   4 1201.52 250.310   1
  -3  -3  -4 1400.82 267.260   1
   3   3   4 1221.71 153.630   1
   5   2   1 148.100 97.1400   1
   5   2   1 -119.18 222.100   1
   3   0   6 2401.75 247.940   1
   3   0   6 1821.62 249.060   1
   3   0   6 1802.66 278.940   1
  -3   0  -6 1545.94 309.150   1
   3   0   6 1598.85 302.280   1
  -3   0  -6 1713.66 227.230   1
  -4   2  -5 11.6000 71.4000   1
   4  -2   5 -17.940 99.0800   1
   4  -2   5 -10.280 144.770   1
  -4   2  -5 116.900 156.790   1
  -4   2  -5 125.420 168.930   1
   4  -2   5 235.120 178.450   1
  -2   1   7 696.640 257.640   1
   2  -1  -7 1113.52 244.940   1
  -2   1   7 601.300 192.740   1
   2  -1  -7 894.290 130.100   1
   2  -1  -7 928.150 189.960   1
  -2   1   7 356.150 138.100   1
   4   0   5 3085.53 298.140   1
   4   0   5 2455.52 326.620   1
   4   0   5 2793.09 247.610   1
   4   0   5 2485.08 254.420   1
  -4   0  -5 2831.39 280.700   1
  -4   0  -5 1666.00 331.070   1
   4   0   5 2129.96 320.660   1
  -2   6   0 2831.88 309.180   1
   2   1  -7 1753.71 220.930   1
  -2  -1   7 1865.11 269.810   1
   2   1  -7 674.870 184.640   1
  -2  -1   7 1372.04 256.970   1
   2   1  -7 1738.65 260.260   1
   6  -1  -1 134.470 171.430   1
   6  -1  -1 90.2800 108.820   1
  -6   1   1 147.100 104.370   1
  -6   1   1 81.8000 181.900   1
   6  -1  -1 79.3400 154.810   1
  -6   1   1 58.0900 91.1700   1
   6  -1   0 1937.15 281.260   1
   6  -1   0 1628.21 273.880   1
   6  -1   0 1567.35 230.410   1
  -6   1   0 1662.30 148.780   1
  -6   1   0 1253.13 226.380   1
  -3   2  -6 573.860 144.880   1
   3  -2   6 786.400 128.130   1
   3  -2   6 964.100 170.830   1
  -3   2  -6 368.510 133.260   1
   3  -2   6 718.240 121.270   1
   1   2  -7 960.240 218.360   1
   1   2  -7 1068.93 180.150   1
   1   2  -7 411.100 157.420   1
  -1  -2   7 1115.48 142.000   1
   1   2  -7 1629.95 280.730   1
  -1  -2   7 961.510 168.600   1
  -1  -2   7 919.020 170.010   1
  -3  -2   6 1263.19 230.960   1
   3   2  -6 2021.42 221.390   1
   3   2  -6 1567.63 368.200   1
   3   2  -6 2280.87 298.170   1
   5  -3   3 7727.66 578.520   1
  -5   3  -3 6959.05 440.890   1
   5  -3   3 8209.47 468.090   1
   5  -3   3 9117.20 579.180   1
  -5   3  -3 7757.50 412.370   1
  -5   3  -3 7981.31 501.950   1
  -2   6  -1 112.550 131.040   1
  -2   6  -1 1.59000 107.120   1
  -2  -3   6 2402.63 248.620   1
   2   3  -6 2670.74 322.620   1
   2   3  -6 1802.02 358.020   1
   2   3  -6 2251.67 251.980   1
   1   5   3 60.8300 124.230   1
  -1  -5  -3 429.680 239.740   1
  -1  -5  -3 -7.7300 108.880   1
  -1   6   1 628.840 178.460   1
   1  -6  -1 975.220 240.070   1
   1  -2   7 4421.34 326.270   1
  -1   2  -7 3732.80 399.480   1
   1  -2   7 3575.85 332.380   1
  -1   2  -7 3133.84 294.440   1
   1  -2   7 2636.08 275.280   1
  -5   4   2 975.660 137.860   1
  -5   4   2 791.290 194.920   1
   5  -4  -2 801.730 208.970   1
  -4   3   5 4013.26 278.230   1
  -4   3   5 4825.83 412.680   1
   4  -3  -5 5474.46 514.610   1
  -1   5   4 1163.10 224.010   1
   1  -5  -4 1691.51 286.540   1
   2   2   6 25.1300 159.680   1
   2   2   6 -28.180 80.1500   1
   2   2   6 -8.4100 194.600   1
  -2  -2  -6 64.4100 176.020   1
   0   6   0 1887.62 267.950   1
   0   6   0 1412.41 177.160   1
   0   6   0 1447.18 212.110   1
   1   5  -4 561.870 239.180   1
   1   5  -4 573.380 100.290   1
  -1  -1  -7 116.180 181.900   1
   1   1   7 413.500 148.090   1
   1   1   7 323.590 174.610   1
   1   1   7 267.460 154.700   1
  -4   4   4 86.2200 106.200   1
  -4   4   4 7.89000 123.180   1
   4  -4  -4 86.1300 185.800   1
  -4   4   4 40.2000 131.320   1
   0   6  -1 184.510 143.910   1
   0   6  -1 349.060 94.2100   1
  -4   5   2 505.540 113.190   1
   4  -5  -2 206.810 185.660   1
  -5  -1   4 5572.77 555.150   1
   5   1  -4 5045.26 497.690   1
  -5  -1   4 3493.69 437.230   1
   5   1  -4 10137.0 778.900   1
   5   1  -4 6380.03 453.070   1
  -6   2   0 13677.3 573.680   1
   6  -2   0 13849.0 675.440   1
   6  -2   0 15395.7 806.910   1
   6  -2   0 14111.5 704.560   1
  -4   5  -2 12060.0 658.260   1
  -4   5  -2 13599.5 603.370   1
   4  -5   2 11340.9 609.090   1
  -6   2   1 1836.26 143.800   1
   6  -2  -1 1819.93 225.280   1
  -6   2   1 1426.55 206.270   1
   6  -2  -1 2041.57 227.390   1
   6  -2  -1 1501.03 218.580   1
  -2  -4  -4 1574.03 185.690   1
  -2  -4  -4 1866.61 324.300   1
   2   4   4 730.460 216.990   1
   2   4   4 2109.96 373.220   1
   2  -6  -1 7145.75 658.080   1
  -2   6   1 8375.96 674.680   1
   4   2  -5 122.620 123.910   1
  -4  -2   5 1.11000 106.980   1
   4   2  -5 185.300 162.290   1
   4   2  -5 -89.970 126.860   1
  -1   6  -2 1225.84 178.620   1
  -1   6  -2 2002.04 267.830   1
  -1   6  -2 1208.38 139.670   1
   2   4  -5 7344.51 566.010   1
   2   4  -5 7525.36 483.400   1
   2   4  -5 7281.34 663.610   1
  -2   5   4 3863.70 363.910   1
   2  -5  -4 4016.48 421.680   1
   2   5  -3 4512.79 297.360   1
   2   5  -3 3648.26 496.870   1
   5   1   3 5251.21 478.620   1
   5   1   3 3525.86 321.530   1
   5   1   3 6274.01 595.510   1
  -5  -1  -3 5557.13 930.240   1
   5   1   3 4637.65 345.570   1
   1  -2  -7 1036.15 185.250   1
  -1   2   7 1364.23 299.620   1
   1  -2  -7 1802.42 286.480   1
  -1   2   7 521.570 173.670   1
   6   0  -1 7797.65 650.980   1
  -6   0   1 9624.58 516.050   1
   6   0  -1 9009.80 526.840   1
   6   0  -1 8334.71 580.990   1
  -6   0   1 8586.11 712.130   1
   6   0  -1 8234.36 627.310   1
  -6   1   2 1554.23 132.500   1
   6  -1  -2 1390.79 200.410   1
   6  -1  -2 1300.63 273.010   1
  -6   1   2 1468.85 298.500   1
  -6   1   2 1496.91 244.460   1
  -3   4   5 46.5000 170.550   1
   3  -4  -5 119.180 197.300   1
  -3   4   5 157.930 112.160   1
   3  -4   5 950.780 193.740   1
  -3   4  -5 954.780 208.030   1
  -3   4  -5 736.540 200.410   1
  -3   4  -5 837.930 235.770   1
   4   0  -6 672.290 124.920   1
   4   0  -6 367.960 183.670   1
  -4   0   6 538.290 198.670   1
  -4   0   6 534.150 88.2700   1
   4  -1  -6 324.240 117.420   1
  -4   1   6 187.130 86.7800   1
   4  -1  -6 446.630 228.560   1
   4  -1  -6 148.850 141.340   1
  -4   1   6 456.110 197.940   1
   4   2   4 827.320 234.560   1
   4   2   4 549.970 173.040   1
   4   2   4 399.680 103.180   1
   4   2   4 249.500 90.6500   1
   4   2   4 895.020 186.690   1
   4   2   4 336.650 154.190   1
  -4  -2  -4 715.950 200.780   1
  -5   4  -2 18241.7 1060.89   1
  -5   4  -2 19224.2 484.680   1
   5  -4   2 16259.8 963.310   1
  -6   1  -1 1476.76 195.650   1
   6  -1   1 1333.08 196.210   1
   6  -1   1 1408.84 219.790   1
   6  -1   1 1045.32 194.530   1
  -6   1  -1 1450.14 183.560   1
   6   0   0 4724.32 475.420   1
  -6   0   0 5240.60 381.550   1
   6   0   0 5148.84 439.100   1
   5   2  -3 352.620 145.590   1
  -5  -2   3 352.030 156.860   1
   5   2  -3 481.650 117.300   1
  -5  -2   3 432.510 122.850   1
   5   2  -3 618.900 181.430   1
  -4   4  -4 18963.5 1169.21   1
   4  -4   4 17937.2 1025.15   1
  -4   4  -4 20718.7 798.320   1
   2   5   2 8278.73 587.940   1
  -2  -5  -2 8018.42 750.540   1
   0   4  -6 1868.04 252.240   1
   0   4  -6 2393.21 435.440   1
   0  -4   6 3255.47 291.720   1
   0  -6  -1 347.290 220.420   1
   0   6   1 166.190 121.670   1
   1   3   6 1153.78 332.310   1
  -1  -3  -6 2787.14 322.050   1
  -1  -3  -6 2398.75 348.370   1
   1   3   6 2173.87 375.000   1
   3   4  -4 4510.99 567.750   1
   3   4  -4 5273.17 400.640   1
   3   4  -4 5484.14 412.320   1
  -2   6  -2 21.4200 102.070   1
  -2   6  -2 48.0500 151.620   1
   5  -1   4 1858.69 335.030   1
  -5   1  -4 2524.50 384.810   1
   5  -1   4 2223.22 275.800   1
  -5   1  -4 3089.37 247.720   1
   5  -1   4 3100.44 257.750   1
  -5   1  -4 2130.23 360.130   1
   4   3  -4 41.1800 103.870   1
  -4  -3   4 157.680 111.360   1
   4   3  -4 208.960 169.560   1
  -4  -3   4 75.1700 159.470   1
   4   3  -4 10.0100 146.800   1
   0   5   4 -0.1100 160.570   1
   0  -5  -4 43.3800 81.4800   1
   0  -5  -4 14.0100 191.120   1
   0  -2  -7 1903.11 232.100   1
   0   2   7 2355.17 381.250   1
   0   2   7 2021.38 371.470   1
   0   2   7 644.660 186.630   1
   0  -2  -7 2682.09 372.960   1
   0   2   7 2444.18 350.950   1
   0  -2  -7 1710.01 296.250   1
  -1   4  -6 132.400 99.0400   1
   1  -4   6 -52.720 136.730   1
  -1   4  -6 355.220 198.150   1
  -6   2  -1 2404.38 260.650   1
   6  -2   1 2873.42 327.390   1
  -6   2  -1 2879.38 280.210   1
   6  -2   1 2799.65 338.260   1
   6  -2   1 3088.63 325.470   1
   0   6  -2 4023.52 324.090   1
   0   6  -2 6936.06 591.120   1
   2  -1   7 3439.60 341.490   1
   2  -1   7 5075.17 403.320   1
   2  -1   7 2999.35 322.710   1
  -2   1  -7 3525.35 375.130   1
  -1  -4  -5 9026.49 786.560   1
   1   4   5 12109.0 875.210   1
   1   4   5 6999.04 867.970   1
  -1  -4  -5 9893.61 702.550   1
  -3   3   6 3871.79 430.700   1
   3  -3  -6 3470.93 408.400   1
  -3   3   6 2379.19 297.860   1
   6  -2  -2 1514.33 315.140   1
  -6   2   2 1706.10 176.250   1
  -6   2   2 1205.54 214.770   1
   6  -2  -2 1538.59 227.780   1
   6  -2  -2 1655.32 217.870   1
  -5   3   4 7381.01 452.380   1
   5  -3  -4 7856.02 571.950   1
   5  -3  -4 8142.54 730.480   1
  -5   3   4 6727.47 713.720   1
   3   1   6 7477.67 633.670   1
   3   1   6 6280.72 595.410   1
  -3  -1  -6 5379.91 512.960   1
   3   1   6 4223.24 545.350   1
   5   2   2 3714.03 416.790   1
   5   2   2 2593.40 396.940   1
   5   2   2 2032.14 288.410   1
   5   2   2 1509.07 279.220   1
   2   0   7 10987.3 822.220   1
  -2   0  -7 11307.3 822.320   1
   2   0   7 13929.8 902.510   1
   5  -2   4 1620.14 272.510   1
   5  -2   4 2571.90 391.930   1
  -5   2  -4 3403.60 268.540   1
  -5   2  -4 3130.27 381.980   1
   5  -2   4 3613.05 309.820   1
  -5   2  -4 3032.99 339.040   1
   5  -2   4 3470.39 297.900   1
   6   0  -2 3755.82 530.460   1
  -6   0   2 3865.87 571.530   1
   6   0  -2 3236.80 462.530   1
  -6   0   2 4577.00 335.750   1
   6   0  -2 4231.50 357.610   1
   6   0  -2 3875.03 417.860   1
  -6   0   2 3388.83 464.640   1
  -2   2   7 341.480 188.510   1
   2  -2  -7 361.820 123.600   1
  -2   2   7 241.020 127.840   1
   2  -2  -7 508.530 196.610   1
  -3   6   0 325.490 114.780   1
   3  -6   0 467.680 250.140   1
   3   4   3 1813.69 256.740   1
  -3  -4  -3 1939.13 292.240   1
  -3  -4  -3 1631.45 282.290   1
  -3  -4  -3 1879.71 359.230   1
  -4   3  -5 -121.38 156.910   1
  -4   3  -5 14.3600 105.990   1
   4  -3   5 0.90000 164.870   1
   4  -3   5 12.8100 97.7300   1
   1  -6  -2 2161.84 372.810   1
  -1   6   2 2398.52 403.430   1
   5  -1  -5 3944.73 470.990   1
   5  -1  -5 1415.62 292.630   1
  -5   1   5 2818.96 475.750   1
  -5   1   5 4051.21 329.460   1
   6   0   1 4745.44 495.480   1
   6   0   1 4709.95 436.310   1
   3  -5   4 457.500 163.720   1
  -3   5  -4 412.340 175.990   1
  -3   5  -4 323.490 158.370   1
   4   1   5 1621.50 231.790   1
   4   1   5 1903.72 309.080   1
   4   1   5 580.180 194.170   1
   4   1   5 1914.41 311.990   1
   4   1   5 1679.54 444.020   1
  -4  -1  -5 1734.63 299.630   1
   4   3   3 174.240 155.390   1
  -4  -3  -3 -19.480 120.520   1
  -4  -3  -3 74.6800 174.390   1
   4   3   3 128.730 76.0700   1
  -4  -3  -3 -34.180 89.2700   1
   4   3   3 127.500 122.150   1
   4   4  -1 512.090 122.980   1
  -4  -4   1 545.550 174.730   1
   4   4  -1 621.760 224.380   1
   4   4  -1 613.270 163.320   1
   2   2  -7 4092.17 509.590   1
   2   2  -7 4136.31 415.810   1
  -2  -2   7 4328.40 344.450   1
  -2  -2   7 5187.46 416.150   1
   2   2  -7 3888.64 364.520   1
  -3   0   7 539.860 162.920   1
   3   0  -7 627.400 122.600   1
   3   0  -7 667.860 189.010   1
  -3   0   7 515.770 152.260   1
  -3   6  -1 1641.18 223.430   1
  -3   6  -1 1622.37 256.180   1
  -1   5  -5 2808.01 319.220   1
   1  -5   5 2997.37 223.390   1
  -1   5  -5 2248.78 412.330   1
   2  -6  -2 1471.53 334.260   1
  -2   6   2 1104.72 241.640   1
   5   0   4 1836.78 289.930   1
   5   0   4 1604.79 228.400   1
  -5   0  -4 856.600 197.200   1
  -5   0  -4 1039.75 263.430   1
   5   0   4 985.250 253.580   1
   5   0   4 1430.67 221.380   1
  -4  -4   0 723.210 199.120   1
   4   4   0 443.380 132.390   1
   4   4   0 412.090 108.760   1
  -4  -4   0 402.310 182.220   1
  -5   0   5 1670.62 211.230   1
   5   0  -5 1612.19 230.680   1
  -5   0   5 925.630 239.030   1
   5   0  -5 1274.85 273.120   1
   3  -3   6 7012.07 519.910   1
  -3   3  -6 4866.08 534.710   1
   3  -3   6 4345.03 374.180   1
  -3   3  -6 4512.83 580.080   1
   6  -3   0 4214.25 349.060   1
   6  -3   0 3621.13 310.230   1
   6  -3   0 4457.54 396.150   1
  -6   3   0 3911.11 265.320   1
  -4  -1   6 687.280 179.670   1
   4   1  -6 928.280 223.850   1
   4   1  -6 903.450 157.910   1
   4  -2  -6 2626.68 348.780   1
  -4   2   6 2752.35 374.080   1
  -4   2   6 2411.71 283.640   1
  -4   2   6 3527.12 468.260   1
  -5   4   3 3064.84 251.380   1
   5  -4  -3 2530.06 375.780   1
  -5   4   3 2527.12 403.250   1
   0   5  -5 7719.62 516.030   1
   0   5  -5 8395.09 714.570   1
  -3   6   1 4126.36 392.200   1
   3  -6  -1 4360.09 471.570   1
   0  -3   7 414.780 115.910   1
   0  -3   7 163.510 108.650   1
   0   3  -7 175.270 158.730   1
   0   3  -7 340.860 112.260   1
   6  -3  -1 162.080 134.750   1
  -6   3   1 37.1800 142.050   1
  -6   3   1 155.230 174.630   1
   6  -3  -1 167.900 130.590   1
   6  -3  -1 269.240 223.920   1
  -6   3   1 129.440 91.3600   1
  -2   2  -7 2743.71 327.500   1
   2  -2   7 3004.16 235.990   1
   2  -2   7 2517.25 329.140   1
   2  -2   7 2692.24 299.300   1
  -2   2  -7 2175.12 415.050   1
  -1  -4   6 5589.67 395.100   1
   1   4  -6 6648.20 643.490   1
   1   4  -6 3751.68 334.510   1
   1   4  -6 3765.56 497.140   1
  -3   1   7 1574.24 373.800   1
   3  -1  -7 3895.07 441.600   1
   3  -1  -7 1451.33 345.790   1
  -3   1   7 2309.58 278.610   1
  -3   1   7 3704.71 498.870   1
   3  -1  -7 3041.92 244.100   1
  -3   5   4 2290.13 337.700   1
  -3   5   4 1840.24 266.960   1
   3  -5  -4 2492.15 392.980   1
  -1   6  -3 3924.09 490.980   1
  -1   6  -3 3715.72 294.730   1
  -1   6  -3 3231.25 339.300   1
   4  -5  -3 9705.61 838.290   1
  -4   5   3 11287.3 751.670   1
   1   6  -1 7438.53 551.600   1
   1   6  -1 7734.71 666.550   1
   1   6   0 3767.09 368.910   1
   1   6   0 4610.96 380.120   1
  -6   1   3 4401.63 544.590   1
   6  -1  -3 4326.15 517.040   1
  -6   1   3 4611.64 531.680   1
   6  -1  -3 5239.99 450.240   1
  -6   1   3 6179.35 415.930   1
  -4   5  -3 5710.85 451.900   1
   4  -5   3 5183.30 399.490   1
  -4   5  -3 5188.25 480.130   1
  -4  -4   2 577.720 188.750   1
   4   4  -2 278.310 164.020   1
   4   4  -2 493.500 150.700   1
   4   4  -2 285.940 117.600   1
   6  -1   2 3879.96 428.130   1
   6  -1   2 4240.52 402.220   1
  -6   1  -2 4932.31 558.300   1
   6  -1   2 3973.70 395.030   1
  -6   1  -2 5346.64 389.100   1
  -2   4  -6 3211.19 378.260   1
   2  -4   6 4948.68 378.750   1
  -2   4  -6 3839.52 485.730   1
   1  -3   7 978.290 164.550   1
   1  -3   7 840.910 198.780   1
  -1   3  -7 832.240 154.000   1
   1  -3   7 1002.28 167.200   1
  -1   3  -7 891.980 195.220   1
   0  -6  -2 3319.52 409.100   1
   0   6   2 2526.02 400.220   1
  -5   2   5 375.560 170.470   1
  -5   2   5 1009.21 141.150   1
  -5   2   5 940.440 282.110   1
   5  -2  -5 1206.64 254.010   1
   3   5  -1 24.0000 86.4400   1
   3   5  -1 79.8200 128.710   1
  -3  -5   1 72.8200 192.760   1
   6  -3   1 389.420 151.100   1
   6  -3   1 566.270 194.050   1
   6  -3   1 532.480 206.290   1
  -6   3  -1 426.420 98.9500   1
  -6   2  -2 2673.41 313.780   1
   6  -2   2 2552.55 296.650   1
  -6   2  -2 2275.89 220.350   1
   6  -2   2 2491.30 334.250   1
   6  -2   2 2319.36 282.010   1
  -6   2  -2 2155.73 266.040   1
   3   1  -7 4804.62 412.780   1
  -3  -1   7 4878.65 480.800   1
  -3  -1   7 6481.12 488.670   1
   3   1  -7 4190.20 431.130   1
   6   1  -1 2504.48 354.020   1
   6   1  -1 2151.61 354.170   1
   6   1  -1 2693.72 326.820   1
   1   2   7 1288.81 266.920   1
   1   2   7 474.840 210.690   1
   1   2   7 213.510 98.5900   1
   1   2   7 813.650 223.240   1
  -1  -2  -7 1093.19 289.380   1
   0   6  -3 3045.10 223.540   1
   0   6  -3 2846.33 468.730   1
  -3  -5   0 -82.820 164.410   1
   3   5   0 92.3900 88.3700   1
   5   3  -1 199.670 126.490   1
   5   3  -1 433.360 166.370   1
  -5  -3   1 411.700 125.380   1
   5   3  -1 475.640 113.340   1
  -4  -4  -1 9250.19 993.830   1
  -4  -4  -1 12182.7 917.650   1
   4   4   1 11030.2 790.600   1
  -2   6  -3 6699.37 569.910   1
  -2   6  -3 7629.82 622.770   1
   6   1   0 3624.55 359.660   1
   6   1   0 4866.08 486.160   1
   6   1   0 3616.43 405.440   1
   1   3  -7 3342.05 336.910   1
   1   3  -7 3351.95 395.790   1
   1   3  -7 5109.86 505.230   1
  -1  -3   7 4318.53 357.230   1
  -1  -3   7 4296.85 334.360   1
  -6   2   3 546.980 251.170   1
  -6   2   3 416.830 100.910   1
  -6   2   3 224.760 132.130   1
   6  -2  -3 352.530 105.060   1
   6  -2  -3 451.070 182.060   1
  -3   6  -2 141.150 156.910   1
  -3   6  -2 224.510 144.200   1
   2  -5   5 616.080 156.800   1
  -2   5  -5 200.400 159.260   1
  -2   5  -5 97.6100 195.920   1
   2   1   7 76.1800 133.550   1
   2   1   7 61.4100 171.700   1
   2   1   7 151.910 174.860   1
  -2  -1  -7 -166.38 159.870   1
  -5   4  -3 2145.58 255.750   1
  -5   4  -3 1883.47 244.900   1
   5  -4   3 2118.05 268.930   1
   6  -3  -2 17929.3 1053.40   1
  -6   3   2 20578.5 443.650   1
   6  -3  -2 17719.6 1162.31   1
   6  -3  -2 16321.8 1016.69   1
  -6   0   3 172.470 89.2600   1
  -6   0   3 74.3400 110.580   1
   6   0  -3 319.290 150.700   1
   6   0  -3 163.560 154.840   1
  -6   0   3 423.000 235.300   1
   6   0  -3 212.530 141.280   1
   2   5  -4 2912.04 302.460   1
   2   5  -4 2969.90 366.640   1
   1  -4  -6 4985.90 551.050   1
  -1   4   6 6179.29 583.770   1
  -1   4   6 4949.15 623.880   1
   1  -4  -6 2715.07 374.570   1
  -1   4   6 3790.85 478.060   1
   5   3   0 7097.43 698.100   1
   5   3   0 6050.86 490.490   1
  -5  -3   0 6796.12 706.280   1
  -5  -3   0 6041.56 527.910   1
   1   6  -2 2682.95 387.990   1
   1   6  -2 1828.32 204.960   1
  -5   3  -4 3191.06 378.000   1
   5  -3   4 3232.25 322.360   1
   5  -3   4 2880.35 381.370   1
   5  -3   4 3209.09 419.420   1
  -5   3  -4 2864.00 356.060   1
  -5   3  -4 2926.85 314.720   1
   5   2  -4 1302.74 364.400   1
  -5  -2   4 2086.53 279.640   1
   5   2  -4 1148.83 338.720   1
   5   2  -4 2090.44 321.610   1
   5   2  -4 2372.14 286.100   1
  -5  -2   4 1757.37 286.380   1
  -1  -6  -1 152.130 203.480   1
   1   6   1 178.310 99.9400   1
   5  -5   0 1702.46 315.090   1
   5  -5   0 2012.64 251.440   1
  -5   5   0 2206.10 243.970   1
   1   5   4 -86.210 131.400   1
  -1  -5  -4 132.750 191.520   1
  -1  -5  -4 115.040 98.2100   1
   3   5  -2 5409.52 724.700   1
   3   5  -2 6835.55 473.310   1
   6   0   2 9727.17 714.840   1
   6   0   2 10387.4 761.540   1
   3  -6  -2 11030.9 906.120   1
  -3   6   2 11366.6 849.340   1
   2   5   3 459.620 120.480   1
  -2  -5  -3 380.420 103.130   1
  -2  -5  -3 878.880 273.760   1
   6   1  -2 1084.22 212.690   1
  -6  -1   2 1006.55 197.790   1
   6   1  -2 1240.01 288.060   1
   6   1  -2 1180.76 207.290   1
  -6  -1   2 1464.26 337.280   1
   3   3  -6 593.840 181.000   1
   3   3  -6 357.440 130.810   1
  -3  -3   6 474.800 127.150   1
   3   3  -6 314.490 205.160   1
   5   1  -5 7434.64 676.100   1
   5   1  -5 8243.17 575.830   1
  -5  -1   5 3880.74 451.320   1
  -2   4   6 2359.03 288.360   1
   2  -4  -6 2873.86 422.060   1
  -2   4   6 1987.39 402.480   1
  -2   4   6 1428.53 354.650   1
   1   5  -5 1303.72 271.380   1
   1   5  -5 1036.76 169.020   1
   5  -5  -1 147.380 172.500   1
  -5   5   1 142.000 106.170   1
   5   3  -2 170.570 140.080   1
   5   3  -2 262.140 112.360   1
  -5  -3   2 211.680 110.790   1
   5   3  -2 158.270 140.780   1
   3   3   5 1852.32 319.440   1
   3   3   5 1158.75 279.610   1
  -3  -3  -5 1342.94 274.770   1
   3   3   5 886.450 235.870   1
  -3  -3  -5 1271.62 240.900   1
   3   3   5 1336.17 273.020   1
   3  -2  -7 3519.81 416.690   1
  -3   2   7 1574.98 295.600   1
  -3   2   7 3880.60 489.440   1
  -5   5  -1 127.040 111.610   1
   5  -5   1 148.120 135.460   1
  -3  -5  -1 347.480 151.430   1
  -3  -5  -1 293.210 232.060   1
   3   5   1 420.250 99.0000   1
  -4   4   5 979.490 155.690   1
  -4   4   5 683.850 190.470   1
   4  -4  -5 906.320 226.240   1
   6   1   1 13921.5 958.460   1
   6   1   1 9837.67 778.730   1
   6   1   1 10786.3 807.480   1
   1   0  -8 454.620 176.730   1
  -1   0   8 59.9700 147.320   1
  -1   0   8 359.530 145.110   1
   1   0  -8 224.240 114.530   1
   1   0  -8 38.0900 94.2800   1
   0   0   8 5539.47 467.750   1
   0   0   8 5702.93 537.550   1
   0   0  -8 5630.09 512.950   1
   0   0  -8 4256.43 373.090   1
   0  -4  -6 1669.22 293.970   1
   0   4   6 2155.39 327.400   1
   0   4   6 566.240 264.030   1
   0  -4  -6 1392.00 212.690   1
   4   4  -3 1346.80 204.440   1
   4   4  -3 1588.04 319.090   1
   4   4  -3 530.970 250.640   1
  -4  -4   3 1486.15 263.080   1
  -1   6   3 4662.43 549.350   1
   1  -6  -3 5208.58 588.240   1
   4  -1   6 1101.22 288.720   1
  -4   1  -6 1364.06 224.990   1
   4  -1   6 1293.31 215.770   1
   4  -1   6 1831.23 244.600   1
   4  -1   6 1435.77 214.580   1
   4  -1   6 1326.03 227.540   1
   5   2   3 565.480 131.360   1
   5   2   3 467.200 129.970   1
   5   2   3 789.410 188.020   1
  -5  -2  -3 544.500 147.610   1
  -5  -2  -3 530.810 170.340   1
   5   2   3 1047.75 201.290   1
   5   2   3 533.480 233.190   1
  -1   3   7 2282.07 320.370   1
  -1   3   7 1297.90 288.050   1
   1  -3  -7 2312.81 346.120   1
  -1   3   7 2333.99 376.180   1
   1  -3  -7 1853.35 283.550   1
   5   1   4 21.0200 154.150   1
  -5  -1  -4 -108.19 94.7600   1
   5   1   4 14.5100 84.9000   1
   5   1   4 -44.850 180.290   1
   5   1   4 -37.900 59.1500   1
   0   1  -8 567.000 217.770   1
   0   1  -8 2246.70 293.300   1
   0  -1   8 2215.29 312.180   1
   0  -1   8 2230.87 298.400   1
   0   1  -8 2217.65 328.970   1
   5   3   1 3951.71 370.640   1
  -5  -3  -1 4853.94 491.330   1
   5   3   1 4977.01 517.800   1
  -5  -3  -1 5909.41 696.880   1
  -1   5   5 2370.10 462.140   1
   1  -5  -5 3456.24 453.870   1
  -2   6   3 5278.11 507.320   1
   2  -6  -3 5967.26 642.640   1
  -2  -3  -6 791.630 177.590   1
   2   3   6 725.130 183.040   1
  -2  -3  -6 751.310 197.610   1
   2   3   6 322.960 201.690   1
  -6   3  -2 1890.96 236.090   1
  -6   3  -2 1388.82 162.810   1
   6  -3   2 1617.79 229.260   1
  -6   3  -2 1551.09 172.000   1
   6  -3   2 1276.25 222.590   1
   6  -3   2 1470.08 232.180   1
   3   4  -5 2813.33 540.490   1
   3   4  -5 3980.12 345.390   1
   3   4  -5 2913.17 360.560   1
  -4  -3   5 3840.05 344.140   1
   4   3  -5 2911.67 377.600   1
   4   3  -5 2831.46 299.460   1
   4   3  -5 2273.60 305.390   1
   1   1  -8 2326.76 352.060   1
  -1  -1   8 2253.78 311.460   1
   1   1  -8 592.750 197.790   1
   1   1  -8 2328.59 296.210   1
  -1  -1   8 1728.41 268.910   1
   2  -3   7 3804.41 346.600   1
  -2   3  -7 5007.96 457.440   1
  -2   3  -7 3845.91 463.840   1
   2  -3   7 4820.55 357.320   1
   2  -3   7 7108.36 489.020   1
   3   2   6 342.720 199.430   1
  -3  -2  -6 570.400 196.620   1
   3   2   6 305.210 157.730   1
   3   2   6 156.840 87.4400   1
   3   2   6 764.520 221.630   1
   3   2   6 435.230 192.720   1
   2  -5  -5 388.490 224.290   1
  -2   5   5 21.2400 146.450   1
  -2   5   5 587.800 177.710   1
   4  -2   6 322.210 153.960   1
   4  -2   6 297.200 115.300   1
  -4   2  -6 299.240 150.240   1
  -4   2  -6 67.5800 83.6100   1
   4  -2   6 260.960 99.4000   1
  -2  -4  -5 41.3600 86.6100   1
   2   4   5 107.270 170.120   1
   2   4   5 -32.750 123.410   1
  -2  -4  -5 39.8300 189.210   1
   4   2  -6 1226.48 168.800   1
   4   2  -6 1774.33 591.380   1
  -4  -2   6 630.520 165.410   1
   4   2  -6 1247.45 278.820   1
  -4   3   6 1650.48 377.480   1
   4  -3  -6 2214.17 324.100   1
  -4   3   6 1832.78 256.510   1
  -4   3   6 1392.25 251.590   1
   2   4  -6 6278.98 453.080   1
   2   4  -6 5188.57 571.600   1
   2   4  -6 7128.72 762.530   1
  -2  -4   6 4920.16 450.230   1
  -4   6   0 10248.7 715.560   1
   4  -6   0 12980.1 912.050   1
  -4   6   0 5183.21 629.210   1
  -2   3   7 2736.86 444.630   1
  -2   3   7 1337.08 283.450   1
   2  -3  -7 3206.58 372.840   1
   4   0   6 5261.66 434.400   1
   4   0   6 7573.97 578.830   1
  -4   0  -6 5077.57 470.740   1
   4   0   6 4344.40 506.000   1
   4   0   6 6265.40 544.520   1
  -4   0  -6 4131.06 596.200   1
   0   3   7 2231.15 323.990   1
   0   3   7 838.280 227.700   1
   0  -3  -7 891.070 197.310   1
   0  -3  -7 1416.84 210.410   1
   0   3   7 1345.78 327.210   1
   0  -3  -7 1224.56 307.100   1
   5  -5  -2 4630.15 574.440   1
  -5   5   2 6011.89 460.950   1
  -4   4  -5 14675.2 1041.49   1
   4  -4   5 13286.2 852.840   1
  -4   4  -5 11183.7 871.130   1
   1   6  -3 222.160 205.290   1
   1   6  -3 157.470 87.8200   1
   3  -1   7 200.720 113.750   1
  -3   1  -7 196.330 155.670   1
   3  -1   7 176.170 160.470   1
   3  -1   7 188.010 85.2700   1
   4   4   2 7842.62 544.700   1
  -4  -4  -2 7842.91 904.520   1
  -4  -4  -2 11349.8 1063.75   1
   5  -4  -4 933.360 224.960   1
  -5   4   4 624.100 118.990   1
  -5   4   4 537.660 205.130   1
   1  -1  -8 231.400 116.910   1
  -1   1   8 393.000 100.200   1
   1  -1  -8 952.270 244.750   1
  -1   1   8 772.070 230.370   1
   1  -1  -8 869.360 175.430   1
  -1   1   8 802.870 213.160   1
  -6   3   3 1872.05 321.690   1
   6  -3  -3 3502.56 425.220   1
  -6   3   3 4757.53 326.810   1
  -1   6  -4 6635.01 554.180   1
  -1   6  -4 9284.47 619.310   1
  -1   6  -4 10329.5 801.850   1
  -5   3   5 4644.55 390.720   1
  -5   3   5 3954.09 546.400   1
   5  -3  -5 5598.80 567.790   1
  -6   1   4 4818.22 565.480   1
  -6   1   4 7328.82 681.280   1
   6  -1  -4 7455.40 729.770   1
  -6   1   4 8194.91 512.340   1
   3   5  -3 2855.30 287.620   1
   3   5  -3 2282.49 418.260   1
   1   6   2 2235.91 409.500   1
   1   6   2 2811.53 266.840   1
  -1  -6  -2 3872.27 513.020   1
   3  -6   3 860.510 148.920   1
  -3   6  -3 749.980 203.080   1
  -3   6  -3 762.900 187.030   1
   4   2   5 279.700 125.920   1
   4   2   5 860.090 196.960   1
  -4  -2  -5 1099.81 255.170   1
   4   2   5 660.990 236.540   1
   4   2   5 1235.79 331.670   1
   4   2   5 768.430 135.180   1
  -6   4   0 8680.92 486.520   1
   6  -4   0 7359.00 577.160   1
   6  -4   0 7861.06 555.360   1
  -6   1  -3 11058.9 1151.03   1
   6  -1   3 8175.63 595.870   1
   6  -1   3 8706.68 504.460   1
  -6   1  -3 6751.98 711.910   1
  -6   1  -3 8752.36 681.510   1
   6  -1   3 6852.45 639.540   1
  -3  -4  -4 999.890 165.760   1
  -3  -4  -4 1341.36 342.880   1
   3   4   4 1002.77 155.760   1
  -3  -4  -4 403.970 145.970   1
   3   4   4 1437.96 182.990   1
  -4   6  -1 2605.07 249.200   1
  -4   6  -1 2450.80 271.160   1
   6   1  -3 4420.11 400.100   1
   6   1  -3 3867.87 515.080   1
  -6  -1   3 2056.94 324.170   1
   6   1  -3 4018.39 546.660   1
  -6  -1   3 3593.88 474.250   1
   3   2  -7 6059.23 480.680   1
  -3  -2   7 7157.62 525.810   1
   3   2  -7 6769.94 612.510   1
   3   2  -7 5111.40 595.140   1
   0  -6  -3 952.300 233.130   1
   0   6   3 856.410 204.860   1
   5   3  -3 534.350 285.820   1
  -5  -3   3 1283.20 262.060   1
   5   3  -3 1526.35 164.300   1
   5   3  -3 1470.03 315.380   1
   0  -1  -8 1499.43 259.080   1
   0   1   8 1544.94 272.050   1
   0   1   8 1628.03 268.440   1
   0  -1  -8 1042.94 165.800   1
   0  -1  -8 845.650 180.920   1
  -2  -3   7 402.480 120.310   1
   2   3  -7 380.880 177.070   1
   2   3  -7 402.580 120.700   1
   2   3  -7 432.470 197.050   1
  -4   6   1 3425.43 334.590   1
   4  -6  -1 4289.45 516.630   1
  -4   6   1 2426.46 425.050   1
  -5   5  -2 3047.22 303.640   1
   5  -5   2 3009.32 334.160   1
  -5   5  -2 2946.71 247.420   1
   6  -4  -1 2485.44 293.440   1
   6  -4  -1 2475.81 260.170   1
  -6   4   1 2696.63 229.470   1
  -1   1  -8 267.980 134.670   1
   1  -1   8 1216.20 174.030   1
  -1   1  -8 1028.67 152.970   1
   1  -1   8 1202.44 164.820   1
  -1   1  -8 931.240 188.960   1
   0   5   5 364.610 191.990   1
   0  -5  -5 868.900 226.060   1
   0  -5  -5 428.990 116.370   1
   5  -1   5 831.740 162.650   1
   5  -1   5 491.230 222.980   1
  -5   1  -5 557.510 204.180   1
  -5   1  -5 429.600 209.700   1
   5  -1   5 752.370 183.340   1
   4   3   4 5235.61 517.150   1
   4   3   4 4231.83 323.100   1
   4   3   4 5969.68 634.750   1
  -4  -3  -4 5946.59 549.080   1
   4   3   4 9370.91 645.920   1
  -6   2  -3 220.140 104.620   1
   6  -2   3 323.180 107.140   1
  -6   2  -3 216.880 149.120   1
  -6   2  -3 270.480 125.380   1
   6  -2   3 183.050 132.740   1
   6  -2   3 339.170 165.100   1
  -4   5   4 2065.47 259.690   1
   4  -5  -4 2703.49 389.730   1
   2   0  -8 153.200 119.980   1
   2   0  -8 282.910 108.630   1
  -2   0   8 132.460 110.210   1
  -2   0   8 195.100 147.310   1
   2   0  -8 235.880 188.950   1
  -1   0  -8 6068.28 464.530   1
   1   0   8 4978.93 442.640   1
   1   0   8 4483.64 464.210   1
  -1   0  -8 3487.77 385.340   1
   3   0   7 3267.97 324.700   1
   3   0   7 2322.54 312.000   1
  -3   0  -7 2519.02 322.370   1
   3   0   7 2096.73 289.480   1
   3  -4  -6 2038.58 303.840   1
  -3   4   6 1205.97 211.320   1
  -3   4  -6 2061.34 323.840   1
  -3   4  -6 2107.26 406.000   1
   3  -4   6 2950.81 263.040   1
  -3   4  -6 2847.11 466.100   1
  -4   5  -4 4760.37 394.690   1
   4  -5   4 5357.54 397.460   1
  -4   5  -4 4975.82 541.590   1
   0   6  -4 484.150 232.430   1
   0   6  -4 551.560 120.480   1
  -3   5  -5 1680.96 260.420   1
   3  -5   5 1733.27 227.120   1
  -3   5  -5 1373.00 286.270   1
   3  -2   7 143.850 150.070   1
  -3   2  -7 79.1600 88.5000   1
   3  -2   7 139.390 100.660   1
  -3   2  -7 200.370 165.930   1
   3  -2   7 85.8500 72.5200   1
   6   0  -4 -82.440 121.240   1
  -6   0   4 -78.020 205.900   1
   6   0  -4 94.1900 121.460   1
  -6   0   4 -41.910 82.9300   1
   6   0  -4 -9.2600 158.980   1
  -6   0   4 16.2900 115.020   1
   0  -2   8 261.960 125.540   1
   0  -2   8 240.760 106.390   1
   0  -2   8 198.210 117.730   1
   0   2  -8 12.1500 81.5700   1
   0   2  -8 188.060 175.470   1
   0   2  -8 324.650 95.8800   1
   5  -2   5 3390.19 366.300   1
  -5   2  -5 5723.25 566.070   1
   5  -2   5 4197.12 474.090   1
  -5   2  -5 4963.62 371.700   1
   5  -2   5 5860.87 411.260   1
  -5   2  -5 4801.70 571.450   1
   5  -2   5 5500.38 434.870   1
  -6   2   4 160.860 127.770   1
  -6   2   4 302.960 144.900   1
   6  -2  -4 266.460 160.450   1
  -6   2   4 507.400 99.7300   1
   3   5   2 3049.99 286.380   1
  -3  -5  -2 4418.23 519.700   1
  -3  -5  -2 3924.98 538.300   1
  -6   4  -1 3644.50 263.880   1
   6  -4   1 2878.34 273.030   1
   6  -4   1 3101.59 317.020   1
  -2   6  -4 1412.77 216.260   1
  -2   6  -4 1862.74 276.950   1
   3  -6  -3 9433.76 822.950   1
  -3   6   3 6481.53 583.100   1
   2   6  -1 20229.3 2156.01   1
   2   6  -1 13544.9 1408.23   1
   6   1   2 2308.39 327.560   1
   6   1   2 2780.55 284.030   1
   2   6   0 2132.49 220.860   1
   4   0  -7 1013.08 145.170   1
  -4   0   7 760.500 184.360   1
   4   0  -7 693.970 212.350   1
   2  -1  -8 433.800 122.240   1
  -2   1   8 122.490 78.8100   1
  -2   1   8 459.150 162.490   1
  -2   1   8 158.130 167.430   1
   2  -1  -8 537.340 204.820   1
   2  -1  -8 134.390 125.940   1
   2   2   7 1614.11 232.300   1
   2   2   7 3677.46 473.430   1
   2   2   7 2883.44 422.390   1
  -2  -2  -7 3294.74 402.870   1
   2   2   7 2948.41 394.990   1
   2   1  -8 1478.15 239.260   1
  -2  -1   8 1724.30 227.750   1
  -2  -1   8 1009.27 187.880   1
   2   1  -8 1556.05 200.260   1
   5  -1  -6 2775.47 249.420   1
  -5   1   6 3613.08 272.140   1
  -5   1   6 1776.92 338.900   1
   5  -1  -6 2374.81 363.700   1
   4  -1  -7 2127.58 350.300   1
   4  -1  -7 858.790 281.650   1
  -4   1   7 2289.51 370.470   1
  -4   1   7 3011.82 230.120   1
   4  -1  -7 2175.13 223.690   1
   5   3   2 1636.82 326.130   1
  -5  -3  -2 1012.14 307.790   1
   5   3   2 1241.92 186.820   1
   1   2  -8 994.820 198.870   1
  -1  -2   8 778.590 165.230   1
   1   2  -8 1027.02 353.840   1
   1   2  -8 1053.38 171.150   1
   1   2  -8 352.540 136.420   1
  -1  -2   8 1225.63 157.250   1
   6   0   3 189.190 86.5300   1
   6   0   3 210.420 110.840   1
   6   0   3 330.320 177.430   1
  -3   5   5 227.360 199.740   1
  -3   5   5 623.210 169.120   1
  -3   5   5 840.890 179.170   1
   3  -5  -5 795.660 223.150   1
   5   0   5 5671.44 459.570   1
   5   0   5 6825.36 466.550   1
   5   0   5 8188.51 572.390   1
   5   0   5 6172.09 471.270   1
  -5   0  -5 4124.86 387.240   1
  -5   0  -5 4746.89 430.600   1
   5   0   5 4861.72 652.770   1
   1   4   6 1791.44 428.140   1
   1   4   6 4450.12 446.590   1
  -1  -4  -6 3155.66 283.990   1
  -1  -4  -6 4920.96 498.360   1
   5  -4   4 210.870 177.650   1
  -5   4  -4 178.810 160.170   1
  -5   0   6 1555.38 265.950   1
   5   0  -6 1478.15 171.200   1
   5   0  -6 1695.21 342.250   1
   6  -4  -2 59.4600 181.630   1
  -6   4   2 363.350 102.840   1
   0   4  -7 519.280 107.810   1
   0  -4   7 612.660 141.090   1
   0  -4   7 562.520 115.450   1
   0   4  -7 459.270 180.620   1
   6   2  -1 321.470 198.100   1
   6   2  -1 350.100 124.320   1
  -6  -2   1 467.830 200.730   1
  -4   6  -2 936.090 164.390   1
  -4   6  -2 801.590 146.010   1
   4  -6   2 725.890 141.070   1
   1  -5   6 2420.78 223.760   1
  -1   5  -6 2334.09 237.380   1
  -1   5  -6 1692.16 334.510   1
   4   4  -4 11365.8 1198.03   1
   4   4  -4 6373.31 787.730   1
  -1   2  -8 2296.85 227.890   1
  -1   2  -8 2156.68 295.430   1
   1  -2   8 1797.33 258.810   1
   1  -2   8 2184.15 247.300   1
   1  -2   8 3297.07 288.910   1
   4  -3   6 2656.70 265.090   1
   4  -3   6 1667.18 176.000   1
  -4   3  -6 2609.36 342.430   1
  -4   3  -6 1191.96 229.890   1
   0   5  -6 1785.55 212.380   1
   0   5  -6 1875.67 310.460   1
   0  -5   6 2317.43 231.660   1
   6   2   0 114.930 113.490   1
   6   2   0 71.4200 238.280   1
   2   5  -5 178.260 177.820   1
   2   5  -5 -46.430 96.7400   1
  -1   4  -7 2568.98 239.370   1
  -1   4  -7 2870.42 436.970   1
   1  -4   7 2585.51 244.530   1
   1  -4   7 2379.63 240.250   1
  -4   6   2 38.5100 110.360   1
   4  -6  -2 192.210 190.560   1
  -4   6   2 239.850 143.140   1
   5   2  -5 275.690 147.310   1
   5   2  -5 252.050 117.110   1
  -5  -2   5 233.470 134.630   1
   5   2  -5 397.990 166.420   1
   2   6  -2 7361.71 665.570   1
   2   6  -2 5790.35 365.760   1
   3  -3  -7 832.680 201.940   1
  -3   3   7 585.600 202.170   1
  -3   3   7 303.040 128.800   1
  -1  -1  -8 2404.02 326.370   1
   1   1   8 3332.65 394.310   1
   1   1   8 3183.82 380.550   1
   6  -3   3 2902.80 283.570   1
  -6   3  -3 2266.77 241.460   1
  -6   3  -3 3536.88 342.670   1
  -6   3  -3 2760.63 227.270   1
   6  -3   3 2410.96 293.480   1
   1   3   7 1246.43 314.640   1
   1   3   7 439.630 179.450   1
  -1  -3  -7 1215.13 221.360   1
   1   3   7 815.250 225.150   1
  -1  -3  -7 951.410 173.810   1
  -5   5   3 1793.49 215.120   1
   5  -5  -3 2233.43 324.810   1
   4   1   6 2434.59 303.180   1
   4   1   6 2794.68 315.030   1
   4   1   6 1979.86 377.700   1
  -4  -1  -6 2179.45 327.270   1
   2   6   1 1766.29 216.200   1
  -2  -6  -1 2104.03 333.800   1
   6   2  -2 7797.78 721.440   1
   6   2  -2 8584.15 579.890   1
  -6  -2   2 8968.69 883.980   1
   6   2  -2 5841.29 763.630   1
  -2  -5  -4 6922.57 719.280   1
  -2  -5  -4 4156.75 362.110   1
   2   5   4 3120.04 412.620   1
  -5   2   6 563.150 206.960   1
   5  -2  -6 698.770 197.390   1
  -5   2   6 820.740 119.570   1
  -5   2   6 230.430 153.800   1
   1  -2  -8 370.070 228.110   1
   1  -2  -8 200.800 101.810   1
  -1   2   8 184.310 176.280   1
  -1   2   8 90.4100 75.1900   1
   1  -2  -8 40.7300 86.3800   1
  -1   2   8 164.610 203.320   1
   4   1  -7 2073.15 229.140   1
  -4  -1   7 2459.21 299.570   1
   4   1  -7 2090.48 301.580   1
   3   1   7 2235.67 303.390   1
   3   1   7 2356.68 322.250   1
  -3  -1  -7 1959.95 304.880   1
   3   1   7 1935.67 287.780   1
  -5   3  -5 506.690 192.260   1
   5  -3   5 543.780 129.300   1
   5  -3   5 450.340 153.590   1
  -5   3  -5 369.820 108.560   1
   5  -3   5 760.590 194.210   1
  -6   4  -2 1582.98 188.560   1
   6  -4   2 1428.54 206.630   1
  -6   4  -2 1795.48 200.510   1
  -1   6   4 4228.46 573.430   1
   1  -6  -4 4427.79 514.920   1
   1   6  -4 1456.90 279.220   1
   1   6  -4 903.550 114.320   1
  -1  -4   7 8414.02 543.090   1
   1   4  -7 7539.41 536.680   1
  -1  -4   7 9182.91 551.130   1
   1   4  -7 8478.69 678.590   1
  -4   2   7 2304.06 192.470   1
   4  -2  -7 1427.50 307.050   1
  -4   2   7 1744.64 344.380   1
   3   5  -4 3070.35 413.890   1
   3   5  -4 3457.34 267.080   1
  -2   6   4 -6.5000 162.160   1
   2  -6  -4 163.090 217.550   1
   5  -5   3 5671.53 424.200   1
  -5   5  -3 6728.85 539.670   1
  -5   5  -3 7070.83 472.640   1
  -1   7   0 1155.02 221.580   1
   5   3  -4 1437.23 352.710   1
   5   3  -4 1491.05 169.190   1
   5   3  -4 1948.80 395.360   1
  -5  -3   4 1293.43 287.960   1
   6   1  -4 5040.16 415.410   1
  -6  -1   4 4733.66 501.140   1
   6   1  -4 4316.85 486.400   1
  -6  -1   4 2655.52 355.960   1
   6   1  -4 3765.06 530.010   1
   6   2   1 101.510 106.420   1
   6   2   1 -132.51 200.510   1
   6   2   1 61.1700 106.240   1
  -4  -4  -3 6896.68 766.310   1
   4   4   3 8420.46 549.850   1
  -4  -4  -3 13978.5 1641.62   1
  -4  -4  -3 8849.10 634.480   1
  -2   5  -6 808.590 192.120   1
   2  -5   6 1454.35 162.720   1
  -2   5  -6 1111.20 221.430   1
  -1   7  -1 2990.69 353.740   1
  -1   7  -1 2889.11 324.780   1
  -6   3   4 1255.01 289.240   1
   6  -3  -4 2702.34 271.650   1
   6  -3  -4 2689.31 372.490   1
  -6   3   4 2965.80 198.510   1
   1   6   3 8300.50 808.410   1
  -1  -6  -3 11123.2 1322.96   1
   0   2   8 1129.36 279.170   1
   0  -2  -8 853.310 178.190   1
   0  -2  -8 382.760 162.150   1
   0   2   8 320.970 126.430   1
   0   2   8 785.250 205.650   1
   0  -2  -8 942.820 241.720   1
  -1  -5  -5 998.070 152.560   1
   1   5   5 517.670 294.060   1
  -1  -5  -5 847.410 263.820   1
  -5  -2  -4 280.540 126.630   1
   5   2   4 250.640 112.730   1
   5   2   4 347.700 90.5900   1
   5   2   4 293.320 219.810   1
   5   2   4 157.310 106.680   1
   5   2   4 167.870 176.790   1
   3  -3   7 5982.21 481.360   1
   3  -3   7 10196.3 1097.42   1
  -3   3  -7 7559.31 674.050   1
   3  -3   7 7409.43 462.530   1
  -3   3  -7 5644.20 674.770   1
   2  -1   8 615.830 166.030   1
   2  -1   8 469.000 125.200   1
  -2   1  -8 697.780 182.250   1
   2  -7   0 1756.58 385.460   1
  -2   7   0 1612.84 257.270   1
  -5  -1   6 1443.00 223.660   1
   5   1  -6 2233.60 242.850   1
   5   1  -6 1503.90 280.930   1
  -2   7  -1 3029.82 340.730   1
  -2   7  -1 2745.81 324.560   1
   3  -6   4 3668.69 359.860   1
  -3   6  -4 5571.34 488.800   1
  -3   6  -4 3933.94 486.080   1
   1   5  -6 1929.19 352.020   1
   1   5  -6 2026.15 201.940   1
  -2   2   8 559.810 143.200   1
  -2   2   8 497.840 202.770   1
  -2   2   8 609.030 209.480   1
   2  -2  -8 998.080 237.350   1
   2  -2  -8 551.600 127.790   1
  -2  -2   8 304.250 122.020   1
  -2  -2   8 208.450 109.330   1
   2   2  -8 187.560 198.580   1
   2   2  -8 281.760 114.170   1
   2   2  -8 288.960 165.940   1
   3   0  -8 3702.48 331.710   1
  -3   0   8 2849.58 367.330   1
  -3   0   8 4270.86 451.300   1
   3   0  -8 4135.90 447.670   1
   2   0   8 3851.85 370.670   1
   2   0   8 4521.07 405.040   1
  -2   0  -8 3641.91 390.900   1
  -2   4  -7 78.7700 184.830   1
   2  -4   7 119.180 128.400   1
  -2   4  -7 -139.02 118.350   1
   2   6  -3 1125.94 304.980   1
   2   6  -3 1373.06 137.170   1
  -6   4   3 740.770 109.210   1
  -6   4   3 520.810 214.230   1
   6  -4  -3 535.210 245.210   1
   7  -1  -1 2167.80 270.060   1
  -7   1   1 1950.53 315.610   1
   7  -1  -1 1534.36 254.100   1
   7  -1  -1 2254.23 389.070   1
  -7   1   1 2070.10 204.410   1
   1  -7  -1 1755.07 612.860   1
  -1   7   1 1252.88 256.790   1
  -7   1   0 3993.84 368.550   1
   7  -1   0 3238.40 341.770   1
  -7   1   0 3643.62 283.840   1
   7  -1   0 4062.10 421.130   1
   7  -1   0 3219.18 469.510   1
   6  -1  -5 3067.07 287.870   1
  -6   1   5 3490.66 248.510   1
  -6   1   5 1576.99 292.070   1
   6  -1  -5 2236.82 381.390   1
   0   3  -8 420.580 108.120   1
   0  -3   8 483.110 124.490   1
   0  -3   8 536.660 146.940   1
   0   3  -8 702.570 185.920   1
   3  -1  -8 7947.48 521.290   1
   3  -1  -8 8657.83 731.820   1
  -3   1   8 4928.07 377.380   1
  -3   1   8 4199.41 544.100   1
  -3   1   8 7891.15 692.210   1
   6   2  -3 2120.72 487.990   1
   6   2  -3 2406.53 479.860   1
   6   2  -3 3199.66 289.290   1
  -6  -2   3 2707.51 447.370   1
  -3  -5  -3 1875.98 326.090   1
   3   5   3 1539.31 194.290   1
   4  -6   3 246.710 123.340   1
  -4   6  -3 235.610 152.730   1
  -4   6  -3 87.8100 138.440   1
  -2   7   1 1376.46 256.500   1
   2  -7  -1 2019.96 340.860   1
   5   1   5 1431.62 306.170   1
   5   1   5 755.010 192.730   1
  -5  -1  -5 1631.26 253.750   1
   5   1   5 1694.04 286.100   1
   5   1   5 2222.57 278.930   1
   5   1   5 1733.06 229.720   1
   7  -2  -1 7097.29 551.170   1
   7  -2  -1 7935.73 631.990   1
   7  -2  -1 7049.59 503.200   1
  -7   2   1 7977.43 429.530   1
  -1   6  -5 3787.50 489.530   1
  -1   6  -5 3537.50 306.620   1
   6  -1   4 5125.08 638.980   1
  -6   1  -4 5114.32 601.000   1
  -6   1  -4 8305.30 739.330   1
   6  -1   4 8521.47 561.220   1
   6  -1   4 7999.80 490.740   1
  -6   1  -4 8803.40 493.030   1
   7  -2   0 7258.83 560.030   1
   7  -2   0 5438.28 409.130   1
   7  -2   0 6665.50 474.040   1
  -7   2   0 6507.08 365.190   1
  -1   7  -2 2199.28 253.310   1
  -1   7  -2 2082.11 253.430   1
   0   6   4 4429.46 626.070   1
   0  -6  -4 5141.30 547.700   1
   6   1   3 5979.68 507.170   1
   6   1   3 5963.42 461.680   1
   6   1   3 3433.84 328.710   1
   5  -4  -5 6356.43 555.650   1
  -5   4   5 5749.46 391.000   1
  -5   4   5 5062.96 548.020   1
   4   3  -6 655.530 193.230   1
  -4  -3   6 371.590 148.880   1
   4   3  -6 485.020 219.840   1
   4   3  -6 665.400 125.670   1
  -3  -4   6 2448.43 207.830   1
   3   4  -6 1535.06 297.310   1
   3   4  -6 1270.61 345.990   1
   3   4  -6 2346.73 227.240   1
   4  -4  -6 5091.27 527.540   1
  -4   4   6 3372.71 373.840   1
   2  -2   8 3709.97 386.120   1
  -2   2  -8 4363.28 587.060   1
   2  -2   8 4861.99 384.580   1
  -2   2  -8 4874.28 488.490   1
   4   5  -1 1542.81 150.880   1
   4   5  -1 1552.27 190.800   1
  -4  -5   1 1877.49 310.780   1
   4   5  -1 875.040 205.640   1
   0   7  -1 765.860 111.880   1
   0   7  -1 639.090 195.030   1
   0   7  -1 758.060 129.410   1
   0   7   0 5364.46 489.940   1
   6  -2   4 3348.65 332.760   1
   6  -2   4 3724.74 285.090   1
  -6   2  -4 3844.04 270.050   1
  -6   2  -4 3256.71 364.440   1
   6  -2   4 1795.44 269.140   1
  -6   2  -4 2530.78 350.620   1
  -4   6   3 98.0100 113.810   1
  -4   6   3 -136.25 146.250   1
   4  -6  -3 -49.720 330.720   1
  -3  -3   7 4793.77 402.880   1
   3   3  -7 4198.65 512.450   1
   3   3  -7 4510.15 344.710   1
   3   3  -7 4176.53 425.940   1
   2   6   2 45.6300 133.050   1
  -2  -6  -2 93.6600 154.010   1
   5   4  -1 1209.80 260.650   1
   5   4  -1 1295.88 159.720   1
  -5  -4   1 963.420 181.910   1
   5   4  -1 628.900 196.520   1
   5   3   3 319.260 175.650   1
  -5  -3  -3 152.920 182.900   1
  -5  -3  -3 436.510 191.340   1
   5   3   3 172.940 105.330   1
   5   3   3 271.100 182.780   1
  -4  -5   0 73.1000 192.630   1
  -4  -5   0 -17.970 135.300   1
   4   5   0 0.78000 94.5500   1
  -1   4   7 -5.8000 230.720   1
   1  -4  -7 -207.32 257.390   1
  -1   4   7 183.030 121.540   1
  -1   4   7 28.9700 182.640   1
  -2   7  -2 3273.42 354.070   1
  -2   7  -2 2819.67 330.400   1
  -3   6   4 510.180 147.210   1
   3  -6  -4 868.400 256.110   1
  -3   6   4 614.810 157.270   1
   3   3   6 506.910 228.530   1
   3   3   6 916.050 248.170   1
  -3  -3  -6 929.260 277.970   1
   3   1  -8 5213.46 457.850   1
   3   1  -8 4458.95 491.080   1
  -3  -1   8 5516.59 491.050   1
  -3  -1   8 5119.33 500.250   1
   6   0  -5 4703.20 538.200   1
   6   0  -5 5517.93 466.140   1
  -6   0   5 2677.26 401.310   1
  -1   3  -8 1569.42 208.090   1
   1  -3   8 1086.97 211.780   1
  -1   3  -8 1026.66 253.960   1
   1  -3   8 1266.81 208.380   1
   1  -3   8 1546.02 223.360   1
   0   6  -5 563.220 146.020   1
   0   6  -5 630.850 217.990   1
  -7   1   2 5151.67 409.070   1
   7  -1  -2 4710.60 460.370   1
  -7   1   2 4223.57 503.280   1
   7  -1  -2 4535.89 524.550   1
   7  -1  -2 4522.94 591.550   1
   5   4   0 129.440 102.360   1
  -5  -4   0 38.3600 152.610   1
  -5  -4   0 -48.280 148.800   1
   5   4   0 2.18000 114.310   1
   6  -2  -5 2157.52 342.380   1
  -6   2   5 2960.62 251.500   1
  -6   2   5 771.130 274.770   1
  -6   2   5 1723.28 379.160   1
  -1  -3   8 882.490 169.300   1
  -1  -3   8 365.000 137.920   1
   1   3  -8 1025.88 224.950   1
   1   3  -8 832.380 164.620   1
  -4   5   5 3458.49 401.010   1
   4  -5  -5 4709.34 517.910   1
  -4   5   5 2117.56 457.240   1
  -1   5   6 2114.54 355.230   1
  -1   5   6 1172.88 310.970   1
   1  -5  -6 1415.49 263.540   1
  -1   5   6 2212.91 393.720   1
  -5   6   0 997.670 184.410   1
   5  -6   0 1102.68 222.400   1
   4   5  -2 1903.24 442.070   1
   4   5  -2 2960.82 296.390   1
  -2   4   7 872.920 229.010   1
   2  -4  -7 969.280 248.570   1
  -2   4   7 343.060 204.830   1
   7  -2  -2 217.690 154.150   1
   7  -2  -2 167.260 138.090   1
  -7   2   2 57.2000 145.570   1
   7  -2  -2 280.770 158.970   1
  -7   2   2 276.990 107.740   1
   3  -7   0 2656.46 368.640   1
  -3   7   0 1296.48 261.020   1
   7  -1   1 2942.25 352.990   1
   7  -1   1 2258.62 306.970   1
  -7   1  -1 3118.19 294.710   1
  -7   1  -1 2750.36 599.800   1
   7   0  -1 244.690 180.400   1
   7   0  -1 19.2200 128.820   1
   4  -5   5 2912.10 292.870   1
  -4   5  -5 2364.81 364.210   1
  -4   5  -5 2884.79 359.890   1
   2  -5  -6 1701.35 322.320   1
  -2   5   6 1854.17 281.170   1
  -2   5   6 1533.96 350.190   1
  -2   5   6 975.800 280.970   1
   5   4  -2 2860.43 474.720   1
   5   4  -2 1069.46 341.640   1
  -5  -4   2 2420.09 341.210   1
   5   4  -2 2269.17 265.310   1
  -2   6  -5 5646.83 575.460   1
   2  -6   5 5414.51 460.260   1
  -2   6  -5 3579.95 424.580   1
   6  -5   0 1581.53 269.690   1
  -6   5   0 1606.80 184.700   1
   6  -5   0 1323.75 214.560   1
  -7   2  -1 4669.14 362.980   1
   7  -2   1 4816.89 444.660   1
  -7   2  -1 4821.36 380.530   1
   7  -2   1 5376.02 459.130   1
   7  -2   1 4803.10 414.910   1
  -5   3   6 14062.8 911.090   1
  -5   3   6 6879.53 790.630   1
  -5   3   6 8281.80 912.360   1
   5  -3  -6 7826.04 713.340   1
   3   4   5 3096.10 470.400   1
  -3  -4  -5 3138.11 382.380   1
   3   4   5 4526.63 492.640   1
   3   4   5 1446.49 307.600   1
  -3  -4  -5 4492.73 547.410   1
   6   2   2 52.4800 120.330   1
   6   2   2 50.0300 234.220   1
   6   2   2 29.8400 129.100   1
   0   7  -2 203.290 96.5400   1
   0   7  -2 438.180 187.320   1
   1   2   8 3579.10 393.540   1
  -1  -2  -8 3211.95 484.070   1
   1   2   8 3468.70 462.200   1
   1   2   8 3067.38 459.580   1
   1   2   8 707.810 169.500   1
   7   0   0 2345.30 324.440   1
   7   0   0 2588.92 333.560   1
  -3   7  -1 3239.10 387.730   1
  -3   7  -1 3563.75 403.990   1
   0   7   1 2912.02 378.690   1
   0  -7  -1 4337.77 541.670   1
  -5   6   1 431.110 123.180   1
   5  -6  -1 491.360 223.590   1
  -4   4  -6 1737.50 338.800   1
   4  -4   6 2442.02 264.630   1
  -4   4  -6 2130.23 293.090   1
   6  -5  -1 4966.84 502.380   1
  -6   5   1 6538.40 507.950   1
  -6   0  -4 6459.33 719.100   1
   6   0   4 8622.50 696.250   1
   6   0   4 8174.62 662.720   1
   6   0   4 8430.02 657.110   1
   6   0   4 5538.02 740.980   1
   6  -4   3 2246.98 284.370   1
  -6   4  -3 2358.08 246.000   1
  -6   4  -3 2357.93 266.860   1
   4   3   5 387.740 185.610   1
   4   3   5 719.240 228.790   1
   4   3   5 445.610 181.840   1
  -4  -3  -5 704.290 259.930   1
   4   3   5 472.710 106.330   1
   4   4  -5 4764.14 411.540   1
   4   4  -5 4289.53 397.720   1
   4   4  -5 4295.04 568.970   1
   5  -6   1 2041.68 262.910   1
  -5   6  -1 2561.86 318.490   1
   2   1   8 489.370 163.650   1
   2   1   8 230.600 175.360   1
   2   1   8 359.920 185.990   1
  -2  -1  -8 478.040 228.810   1
  -5   5   4 858.820 229.710   1
   5  -5  -4 1452.23 331.400   1
  -5   5   4 1754.52 218.860   1
   4   2  -7 861.510 159.590   1
   4   2  -7 871.830 257.710   1
  -4  -2   7 691.500 180.880   1
   2   4   6 1903.58 455.480   1
   2   4   6 4232.21 580.530   1
   2   4   6 4539.74 516.020   1
  -2  -4  -6 3283.02 358.460   1
  -2  -4  -6 4214.29 477.800   1
   0   4   7 1336.80 309.630   1
   0   4   7 368.540 230.920   1
   0   4   7 1780.33 326.640   1
   0  -4  -7 1517.83 278.630   1
   0  -4  -7 1573.03 208.160   1
   2   4  -7 2121.06 379.580   1
   2   4  -7 1418.96 327.450   1
   2   4  -7 2047.16 264.940   1
  -2  -4   7 2605.83 282.900   1
  -4   1  -7 1071.33 219.630   1
   4  -1   7 635.270 195.000   1
   4  -1   7 851.020 176.730   1
   4  -1   7 1584.73 239.890   1
   4  -1   7 1227.93 189.620   1
  -3   7   1 401.630 136.570   1
   3  -7  -1 694.060 261.970   1
  -4  -5  -1 74.5100 194.050   1
   4   5   1 240.850 120.910   1
  -4  -5  -1 275.910 197.630   1
  -1   7   2 717.350 222.520   1
   1  -7  -2 824.300 267.580   1
   7  -3   0 3243.85 340.380   1
   7  -3   0 3410.47 351.870   1
   7  -3   0 3309.86 327.750   1
  -7   3   0 3410.05 299.460   1
   2  -7  -2 270.840 243.800   1
  -2   7   2 85.2800 165.140   1
   7  -3  -1 5376.73 546.650   1
   7  -3  -1 5347.99 504.690   1
  -7   3   1 5067.43 361.730   1
   7  -3  -1 4940.18 424.670   1
  -6   5  -1 146.980 130.370   1
   6  -5   1 141.250 141.660   1
   6  -5   1 207.130 180.970   1
   7   0  -2 89.7000 155.830   1
   7   0  -2 82.6000 113.500   1
  -7   0   2 50.1600 93.0200   1
   7   0  -2 98.2500 138.040   1
   4  -3  -7 9686.58 853.800   1
  -4   3   7 9067.69 980.070   1
  -4   3   7 7683.50 592.050   1
  -3   2   8 5801.84 513.690   1
   3  -2  -8 6208.56 667.950   1
   3  -2  -8 5847.64 513.660   1
  -3   2   8 3369.38 550.920   1
  -3   2   8 5366.07 691.120   1
  -5  -4  -1 708.170 188.320   1
   5   4   1 541.090 145.620   1
   5   4   1 678.430 160.490   1
  -5  -4  -1 728.200 254.000   1
  -6   3  -4 3694.15 429.410   1
   6  -3   4 2388.65 343.870   1
  -6   3  -4 3014.85 282.380   1
  -6   3  -4 2594.31 301.210   1
   6  -3   4 3435.11 340.010   1
   3  -5   6 366.320 145.410   1
  -3   5  -6 254.440 173.720   1
  -3   5  -6 320.990 206.460   1
   2   3   7 -65.350 152.170   1
  -2  -3  -7 109.650 196.610   1
   2   3   7 14.7500 99.1200   1
   4   2   6 -5.0800 104.300   1
   4   2   6 61.7000 206.270   1
   4   2   6 -10.170 211.740   1
  -4  -2  -6 185.430 183.970   1
   4   2   6 24.1900 59.3600   1
   4   2   6 65.8400 152.190   1
  -5   4  -5 7334.65 686.820   1
   5  -4   5 7989.98 607.940   1
  -5   4  -5 5842.78 603.050   1
   0   5   6 515.960 240.800   1
   0  -5  -6 1574.61 339.300   1
   0   5   6 1332.06 254.540   1
   0  -5  -6 784.080 168.430   1
  -1   7  -3 472.130 189.750   1
  -1   7  -3 389.870 96.8900   1
  -1   7  -3 274.420 116.970   1
   5  -1   6 1896.60 225.080   1
  -5   1  -6 1193.25 336.260   1
  -5   1  -6 1875.66 378.910   1
   5  -1   6 1297.41 347.350   1
   5  -1   6 1628.73 276.340   1
   5  -1   6 2508.96 288.470   1
   5  -1   6 2372.25 295.840   1
   5  -1   6 1887.77 240.100   1
  -4   2  -7 274.210 145.230   1
   4  -2   7 382.730 135.510   1
   4  -2   7 433.510 168.400   1
   4  -2   7 290.450 102.070   1
  -4   2  -7 758.960 168.770   1
   3   2   7 2194.26 313.490   1
   3   2   7 1619.31 338.560   1
  -3  -2  -7 2100.25 371.840   1
   7   0   1 6722.79 593.260   1
   7   0   1 6793.21 607.750   1
  -5   5  -4 4089.51 432.590   1
   5  -5   4 3566.48 338.380   1
  -5   5  -4 3586.43 432.470   1
   2   6  -4 -81.890 170.800   1
   2   6  -4 -80.290 88.9100   1
  -5   2  -6 3217.26 402.520   1
  -5   2  -6 1499.91 261.540   1
   5  -2   6 3424.53 342.160   1
   5  -2   6 4329.21 395.260   1
  -7   1   3 983.390 162.950   1
  -7   1   3 673.680 295.020   1
   7  -1  -3 811.330 243.800   1
  -7   1   3 516.390 177.090   1
   7  -1  -3 842.430 199.700   1
  -3   7  -2 17629.0 1306.51   1
  -3   7  -2 19533.9 884.640   1
   1  -3  -8 2448.05 315.810   1
  -1   3   8 3265.67 485.970   1
   1  -3  -8 2877.55 392.630   1
  -1   3   8 1582.14 310.530   1
   3   6  -1 1197.69 233.280   1
   3   6  -1 785.520 141.960   1
   4   0   7 137.310 182.770   1
   4   0   7 8.35000 106.150   1
   4   0   7 -197.69 166.410   1
  -4   0  -7 140.210 156.980   1
   5   2  -6 420.670 133.950   1
  -5  -2   6 295.660 125.520   1
   5   2  -6 492.900 207.740   1
   2   5  -6 178.310 108.480   1
   2   5  -6 186.710 209.150   1
   3   5  -5 987.770 298.430   1
   3   5  -5 1178.29 174.950   1
   6  -5  -2 1810.32 296.880   1
  -6   5   2 2102.05 216.950   1
   4   5  -3 3584.16 314.600   1
   4   5  -3 2276.22 409.890   1
   1   6  -5 582.680 120.220   1
   1   6  -5 756.290 248.930   1
  -2   7  -3 1038.43 212.050   1
  -2   7  -3 1312.82 233.210   1
  -5  -3   5 -27.390 93.6600   1
   5   3  -5 78.7100 165.950   1
   5   3  -5 18.1400 88.8500   1
   5   3  -5 -88.950 126.690   1
  -6  -2   4 89.9300 163.880   1
  -6  -2   4 58.2500 86.5100   1
   6   2  -4 -5.4800 184.170   1
   6   2  -4 72.8000 156.230   1
   6   2  -4 155.190 120.690   1
   7  -3   1 4063.10 388.490   1
  -7   3  -1 3638.47 344.380   1
  -7   3  -1 4720.85 368.300   1
   7  -3   1 3857.14 368.380   1
   7  -3   1 4622.51 430.160   1
   6   1  -5 2711.85 440.340   1
   6   1  -5 3286.14 322.960   1
  -6  -1   5 2697.27 360.550   1
  -5  -4   3 6871.99 665.110   1
   5   4  -3 7440.97 849.470   1
   5   4  -3 7820.91 576.480   1
   5   4  -3 5176.41 715.520   1
   5  -6  -2 1055.87 270.300   1
  -5   6   2 1039.70 188.910   1
   3   6   0 3219.42 342.170   1
  -3  -6   0 3799.03 460.920   1
   2  -3   8 1463.29 241.230   1
  -2   3  -8 1400.69 280.700   1
   2  -3   8 2169.55 255.340   1
   2  -3   8 2090.07 237.660   1
  -2   3  -8 1187.66 253.490   1
   7  -3  -2 7850.43 773.780   1
   7  -3  -2 8568.88 680.370   1
  -7   3   2 8975.65 600.500   1
   6  -4  -4 9392.51 837.050   1
  -6   4   4 6949.93 819.800   1
  -6   4   4 11670.9 775.390   1
  -3   5   6 362.940 152.990   1
   3  -5  -6 148.020 199.220   1
  -3   5   6 181.760 214.050   1
  -7   2   3 1801.89 362.350   1
  -7   2   3 1282.73 289.520   1
   7  -2  -3 1312.38 192.520   1
  -7   2   3 2125.63 206.590   1
  -3   4   7 1960.47 280.060   1
   3  -4  -7 1756.79 302.610   1
  -3   4   7 931.640 238.940   1
  -3   4  -7 1936.06 382.330   1
  -3   4  -7 2339.51 386.930   1
   3  -4   7 2895.52 305.080   1
  -5   6  -2 3928.95 407.000   1
   5  -6   2 3489.90 357.090   1
  -5   6  -2 4462.45 368.560   1
   6   3  -1 2084.08 270.830   1
   6   3  -1 2314.01 448.530   1
  -6  -3   1 2192.36 379.820   1
   1   7  -1 599.610 144.080   1
   1   7  -1 656.540 194.190   1
   1   6   4 95.0500 146.860   1
  -1  -6  -4 309.050 218.670   1
   7  -1   2 4433.45 555.380   1
  -7   1  -2 2223.44 550.730   1
   7  -1   2 2896.07 328.730   1
  -7   1  -2 3132.55 289.950   1
  -6   3   5 655.330 126.260   1
  -6   3   5 431.250 202.340   1
   6  -3  -5 564.720 208.820   1
  -6   3   5 166.770 146.820   1
  -1  -7   0 3309.46 558.410   1
   1   7   0 1860.11 249.370   1
   7  -2   2 254.350 144.510   1
  -7   2  -2 320.670 121.700   1
  -7   2  -2 356.240 117.320   1
   7  -2   2 171.710 166.450   1
   7  -2   2 307.580 180.030   1
   4   4   4 375.130 169.460   1
  -4  -4  -4 317.990 192.450   1
  -4  -4  -4 171.490 121.430   1
   4   4   4 269.470 90.4200   1
  -4  -4  -4 97.3300 107.360   1
   4   4   4 310.860 174.310   1
   3   2  -8 -54.480 112.530   1
  -3  -2   8 -46.010 129.760   1
   3   2  -8 -9.8800 164.490   1
   1   0  -9 892.080 219.010   1
   1   0  -9 112.750 142.110   1
  -1   0   9 318.480 158.970   1
  -1   0   9 520.390 152.450   1
   1   0  -9 668.650 156.950   1
   0   7  -3 186.030 186.400   1
  -2   3   8 2449.78 420.710   1
   2  -3  -8 3303.21 394.220   1
  -2   3   8 903.870 259.440   1
  -5   1   7 1392.84 158.080   1
   5  -1  -7 1910.76 218.090   1
  -5   1   7 1547.39 311.130   1
   5  -1  -7 785.210 217.520   1
   5  -1  -7 1532.87 345.790   1
  -2  -3   8 1527.54 218.660   1
   2   3  -8 1246.04 221.160   1
   2   3  -8 688.060 233.960   1
  -2  -3   8 1277.64 215.200   1
   2   3  -8 1492.69 313.570   1
   0  -7  -2 8016.71 816.840   1
   0   7   2 6039.79 627.970   1
   0   0  -9 -143.96 173.910   1
   0   0   9 3.43000 164.430   1
   0   0   9 72.5200 138.180   1
   0   0  -9 94.0400 80.8100   1
   0   0  -9 81.9600 86.1400   1
   3   6  -2 35.9600 90.2100   1
   3   6  -2 -60.210 162.070   1
   6   3   0 5107.61 459.530   1
  -5   0  -6 3728.58 416.740   1
   5   0   6 4160.44 405.230   1
   5   0   6 4813.70 452.610   1
   5   0   6 5405.09 519.220   1
   5   0   6 6602.03 627.880   1
   5   0   6 3669.31 604.020   1
   2   5   5 3035.66 525.800   1
  -2  -5  -5 6738.50 710.770   1
   2   5   5 6241.59 636.840   1
  -2  -5  -5 4142.98 412.000   1
   0  -1   9 2193.34 279.730   1
   0   1  -9 1773.14 286.900   1
   0  -1   9 1197.37 237.990   1
   0   1  -9 416.420 184.890   1
   0   1  -9 1563.65 194.720   1
  -3   7   2 54.3800 143.640   1
   3  -7  -2 689.870 259.390   1
  -4   6  -4 296.850 155.560   1
   4  -6   4 246.270 139.500   1
  -4   6  -4 48.9500 196.100   1
  -4   6  -4 63.9800 201.870   1
   5   0  -7 3676.51 356.860   1
   5   0  -7 3205.89 437.730   1
  -5   0   7 2055.46 335.930   1
   0   3   8 511.100 161.940   1
   0  -3  -8 1785.07 327.670   1
   0   3   8 1624.96 293.180   1
   0   3   8 1783.96 286.420   1
   0  -3  -8 1207.49 220.830   1
  -2  -6  -3 100.470 208.640   1
   2   6   3 -16.550 121.960   1
   2   6   3 79.7300 96.1200   1
   3  -1   8 1974.66 272.270   1
  -3   1  -8 2140.82 351.970   1
   3  -1   8 2517.09 302.100   1
   1  -6  -5 576.930 249.080   1
  -1   6   5 389.340 178.190   1
  -6   5  -2 2386.67 340.880   1
   6  -5   2 2239.54 286.240   1
  -6   5  -2 2859.65 278.500   1
  -2   6   5 767.820 257.910   1
   1   1  -9 1772.29 255.170   1
   1   1  -9 1552.05 214.060   1
  -1  -1   9 1383.09 259.670   1
  -1  -1   9 1767.75 256.100   1
   1   1  -9 519.890 199.960   1
   7   0  -3 71.5400 147.020   1
   7   0  -3 -31.970 147.250   1
  -7   0   3 59.7000 102.570   1
   7   0  -3 57.7900 155.700   1
  -7   0   3 30.8000 161.600   1
   6   3  -2 12.0900 113.670   1
   6   3  -2 43.1600 161.650   1
  -6  -3   2 101.800 136.290   1
   6   3  -2 -24.700 112.660   1
  -3   6  -5 2133.49 344.550   1
   3  -6   5 2361.05 269.630   1
  -3   6  -5 1824.09 371.470   1
  -1   5  -7 3166.95 308.510   1
   1  -5   7 3472.69 335.470   1
  -1   5  -7 2755.13 447.790   1
   0   5  -7 358.190 117.190   1
   0   5  -7 115.390 209.790   1
   0  -5   7 262.890 112.460   1
   4  -6  -4 1014.18 291.550   1
  -4   6   4 1088.54 217.190   1
   7   1  -1 2282.31 338.600   1
   7   1  -1 2304.48 281.920   1
   7   1  -1 2429.73 362.710   1
   1   7  -2 743.200 207.480   1
   1   7  -2 761.950 139.420   1
   4   5   2 346.410 104.130   1
  -4  -5  -2 384.100 246.020   1
  -4  -5  -2 173.660 174.670   1
   3   6   1 2780.18 282.530   1
  -3  -6  -1 2830.38 359.790   1
   7   1   0 104.550 123.920   1
   7   1   0 -79.370 170.400   1
   7   1   0 -11.600 127.300   1
   3   5   4 536.040 149.610   1
  -3  -5  -4 1137.12 297.980   1
  -3  -5  -4 512.420 140.200   1
   4   0  -8 988.690 201.300   1
   4   0  -8 1092.88 267.020   1
  -4   0   8 1370.54 251.200   1
  -5  -2  -5 198.190 130.520   1
   5   2   5 288.930 224.010   1
   5   2   5 146.170 83.7400   1
   5   2   5 70.8200 69.3000   1
   5   2   5 148.640 147.780   1
   5   2   5 96.6600 122.640   1
  -3   0  -8 6058.76 631.610   1
   3   0   8 5769.83 550.310   1
   3   0   8 4915.45 518.660   1
   3   0   8 7771.21 666.000   1
   5   4   2 5365.96 505.020   1
  -5  -4  -2 3758.11 646.250   1
  -5  -4  -2 7426.02 770.450   1
   1   7   1 3219.67 413.300   1
   1   7   1 3995.91 375.660   1
  -1  -7  -1 5714.37 637.620   1
  -6  -1  -4 2.81000 175.670   1
   6   1   4 -3.1100 277.260   1
   6   1   4 53.1500 75.7300   1
   6   1   4 -112.27 185.140   1
   6   1   4 91.9400 111.920   1
  -1  -4  -7 1271.92 301.900   1
   1   4   7 773.720 214.220   1
  -1  -4  -7 784.900 151.030   1
   1   4   7 301.470 213.110   1
   3  -2   8 994.660 199.850   1
   3  -2   8 1465.81 195.120   1
  -3   2  -8 1551.85 246.440   1
   3  -2   8 1689.09 225.560   1
   1  -1  -9 220.230 134.150   1
  -1   1   9 440.940 186.000   1
   1  -1  -9 652.570 161.450   1
  -1   1   9 572.540 176.170   1
   1  -1  -9 1026.69 255.800   1
  -4   3  -7 732.770 221.010   1
   4  -3   7 1965.38 262.070   1
   4  -3   7 1461.72 213.230   1
  -4   3  -7 1577.29 308.840   1
  -4   1   8 168.850 88.9500   1
   4  -1  -8 242.710 115.540   1
   4  -1  -8 187.510 217.000   1
  -4   1   8 404.630 194.070   1
   4  -7   0 332.450 214.650   1
  -4   7   0 261.660 133.690   1
  -5   3  -6 294.820 124.020   1
   5  -3   6 511.990 130.430   1
   5  -3   6 646.220 196.650   1
  -5   3  -6 288.740 192.240   1
   6   2   3 3529.30 424.970   1
   6   2   3 4138.20 584.840   1
  -5   2   7 2851.74 468.700   1
   5  -2  -7 2740.35 484.110   1
  -5   2   7 1478.27 420.040   1
  -5   2   7 2572.78 336.230   1
   7   1  -2 191.320 151.720   1
   7   1  -2 229.300 112.220   1
   7   1  -2 267.500 143.720   1
   7   1  -2 395.280 193.960   1
  -7  -1   2 403.860 275.640   1
   7   0   2 706.580 194.560   1
   7   0   2 506.910 214.770   1
  -2   7   3 495.560 197.560   1
   2  -7  -3 527.620 240.170   1
   6   3   1 2902.67 372.840   1
   6   3   1 3159.75 606.520   1
   2   0  -9 731.620 212.590   1
   2   0  -9 819.330 176.680   1
  -2   0   9 914.630 225.530   1
  -2   0   9 417.910 175.430   1
   0   4  -8 884.930 172.640   1
   0  -4   8 1215.79 225.620   1
   0  -4   8 728.880 157.410   1
   0   4  -8 1275.77 274.920   1
   5   3   4 2908.85 617.340   1
   5   3   4 3430.06 513.330   1
   5   3   4 5554.10 644.340   1
  -5  -3  -4 1175.86 303.250   1
  -5  -3  -4 3832.78 551.380   1
   5   3   4 1302.32 283.830   1
   5   3   4 2860.38 357.020   1
   1  -7  -3 157.110 223.260   1
  -1   7   3 319.590 172.020   1
   7  -3   2 127.850 140.280   1
  -7   3  -2 -44.760 94.0200   1
   7  -3   2 -26.050 208.300   1
  -7   3  -2 95.3800 82.9200   1
   7  -3   2 -102.81 166.750   1
  -7   3  -2 -31.880 98.9600   1
   0   1   9 632.690 195.340   1
   0  -1  -9 505.390 115.630   1
   0  -1  -9 425.330 158.700   1
   0   1   9 481.900 179.190   1
   0  -1  -9 649.250 209.910   1
  -4   7  -1 2251.96 357.150   1
  -4   7  -1 3205.45 372.930   1
  -1   1  -9 160.710 111.580   1
   1  -1   9 -6.1300 120.430   1
  -1   1  -9 67.4600 171.130   1
  -1   1  -9 70.8900 93.3100   1
   1  -1   9 57.8600 138.650   1
  -3   7  -3 9760.54 977.790   1
  -3   7  -3 7772.82 918.480   1
  -7   3   3 5741.97 546.780   1
   7  -3  -3 3478.24 436.430   1
   7  -3  -3 3834.30 496.170   1
  -7   3   3 2260.75 362.410   1
  -6   1   6 2608.62 292.200   1
   6  -1  -6 1700.62 397.760   1
  -6   1   6 1506.99 367.510   1
   6  -1  -6 2072.57 283.790   1
   6  -5  -3 513.210 230.170   1
  -6   5   3 339.490 112.340   1
   2   2   8 3310.79 485.670   1
   2   2   8 2493.09 389.990   1
  -2  -2  -8 3257.53 477.610   1
   2   2   8 4251.29 571.550   1
   1   0   9 893.130 225.040   1
   1   0   9 878.790 240.640   1
  -1   0  -9 753.360 248.260   1
  -4   7   1 2011.16 383.740   1
   4  -7  -1 2318.12 368.660   1
   1   5   6 858.440 286.560   1
  -1  -5  -6 854.440 261.650   1
  -1  -5  -6 600.290 127.730   1
   1   5   6 604.490 225.630   1
   0   2  -9 822.590 233.480   1
   0  -2   9 912.790 191.500   1
   0  -2   9 1197.78 217.090   1
   0  -2   9 854.950 212.960   1
   0   2  -9 253.200 139.840   1
   0   2  -9 789.890 170.240   1
  -1   4  -8 1823.38 302.000   1
  -1   4  -8 1602.10 318.080   1
   1  -4   8 1871.01 285.370   1
   1  -4   8 1617.93 251.980   1
  -7   4   0 300.370 106.360   1
   7  -4   0 422.340 242.690   1
   7  -4   0 73.3700 146.750   1
   0   6   5 1108.49 361.580   1
   0  -6  -5 2158.41 377.260   1
   3   6  -3 344.050 217.650   1
   3   6  -3 317.440 102.630   1
   6  -1   5 462.680 131.410   1
  -6   1  -5 590.620 228.080   1
  -6   1  -5 505.070 217.250   1
   6  -1   5 719.930 225.510   1
   6  -1   5 465.820 175.440   1
   4   1   7 2898.51 425.250   1
   4   1   7 3679.82 487.900   1
  -4  -1  -7 3230.94 472.630   1
   7  -4  -1 -103.87 154.130   1
  -7   4   1 -49.590 98.5000   1
  -7   4   1 -27.810 105.920   1
   7  -4  -1 41.1100 178.320   1
  -3   6   5 614.590 166.150   1
   3  -6  -5 751.020 262.000   1
  -3   6   5 762.410 215.760   1
  -5  -1   7 1376.84 293.230   1
   5   1  -7 2117.31 290.150   1
   5   1  -7 1584.19 363.690   1
   6  -2   5 1340.59 255.070   1
  -6   2  -5 801.960 265.410   1
   6  -2   5 1636.40 289.840   1
  -6   2  -5 1398.77 229.410   1
   6  -2   5 637.570 184.740   1
   6  -2   5 1051.48 282.370   1
  -6   2  -5 1471.08 328.700   1
  -1   6  -6 2696.05 416.750   1
  -1   6  -6 2136.13 266.910   1
   6  -4   4 345.930 170.520   1
  -6   4  -4 429.150 193.960   1
  -6   4  -4 43.7900 113.540   1
   5  -6  -3 675.030 284.580   1
  -5   6   3 327.960 121.490   1
  -1   7  -4 366.750 178.710   1
  -1   7  -4 -48.910 108.710   1
  -1   7  -4 175.970 88.7100   1
  -2   5  -7 2641.05 421.910   1
   2  -5   7 3556.51 387.290   1
  -2   5  -7 1977.49 379.650   1
   2   1  -9 2704.59 328.530   1
  -2  -1   9 2274.74 345.090   1
  -2  -1   9 2447.91 344.310   1
   2   1  -9 2388.64 400.230   1
   7   1   1 2736.46 443.770   1
   7   1   1 3304.78 422.120   1
  -6  -3   3 876.640 235.640   1
   6   3  -3 938.650 200.800   1
   6   3  -3 577.570 239.950   1
   6   3  -3 947.310 314.210   1
   1   5  -7 463.780 223.580   1
   1   5  -7 606.290 118.630   1
   4   5  -4 1198.49 211.940   1
   4   5  -4 927.330 304.260   1
  -7   1   4 3100.80 354.670   1
   7  -1  -4 2390.53 335.540   1
   7  -1  -4 1840.46 312.790   1
  -7   1   4 1344.90 307.420   1
   7  -1  -4 2064.95 411.210   1
  -5   4   6 2127.96 447.150   1
   5  -4  -6 2655.76 391.400   1
  -5   4   6 3008.63 346.920   1
  -3   3   8 600.360 190.620   1
   3  -3  -8 1801.08 362.660   1
  -3   3   8 1822.25 405.800   1
   6   0  -6 1445.31 255.480   1
  -6   0   6 412.300 200.460   1
   6   0  -6 1233.30 309.180   1
   2  -1  -9 3604.09 513.220   1
  -2   1   9 3280.74 469.740   1
   2  -1  -9 3076.23 377.390   1
  -2   1   9 1694.87 410.560   1
   5   4  -4 6545.97 665.390   1
   5   4  -4 4375.15 706.350   1
   1   2  -9 16.5300 178.420   1
  -1  -2   9 -1.7200 118.020   1
  -1  -2   9 24.8200 95.7000   1
   1   2  -9 112.820 121.000   1
  -5   6  -3 641.760 175.700   1
   5  -6   3 358.370 149.300   1
  -5   6  -3 420.210 167.850   1
   4   1  -8 3547.58 418.840   1
  -4  -1   8 2277.88 360.400   1
   4   1  -8 3104.64 447.850   1
   0   6  -6 420.220 209.960   1
   0   6  -6 525.520 117.770   1
   1   7  -3 323.650 201.410   1
   1   7  -3 255.230 102.020   1
  -6   2   6 306.840 107.280   1
  -6   2   6 294.750 177.660   1
   6  -2  -6 402.310 204.840   1
   1   4  -8 3302.05 396.660   1
   1   4  -8 3354.12 443.840   1
  -1  -4   8 2950.69 355.630   1
  -1  -4   8 3364.23 379.550   1
  -5   5   5 60.3500 115.580   1
   5  -5  -5 97.8400 225.550   1
  -5   5   5 63.1700 162.680   1
  -2   7  -4 280.220 181.260   1
  -2   7  -4 209.710 145.480   1
  -7   2   4 2910.62 309.170   1
  -7   2   4 887.990 257.720   1
  -7   2   4 2116.00 393.910   1
   7  -2  -4 1960.70 405.400   1
  -7   4  -1 6357.83 631.280   1
   7  -4   1 4953.03 573.920   1
   7  -4   1 6493.18 680.830   1
   1   3   8 755.210 280.210   1
  -1  -3  -8 820.980 257.430   1
   1   3   8 542.990 249.600   1
   1   3   8 260.340 221.400   1
   1   3   8 144.320 113.940   1
   4   3  -7 2279.58 281.240   1
   4   3  -7 1650.86 370.090   1
  -4  -3   7 1793.88 315.000   1
   4   3  -7 1276.48 317.630   1
   4  -2  -8 2015.29 421.830   1
  -4   2   8 2453.40 480.760   1
  -4   2   8 749.890 257.590   1
   4  -2  -8 2105.07 283.590   1
  -4   2   8 1527.90 264.000   1
   3   4  -7 765.470 246.660   1
   3   4  -7 591.130 144.280   1
   3   4  -7 257.580 189.330   1
  -3  -4   7 660.650 147.200   1
  -5  -1  -6 4070.98 518.830   1
   5   1   6 3801.07 602.880   1
   5   1   6 4419.87 556.480   1
   5   1   6 6136.60 720.280   1
   5   1   6 4168.85 466.450   1
   5   1   6 2345.73 408.000   1
  -1   2  -9 630.780 223.880   1
   1  -2   9 2585.32 359.680   1
  -1   2  -9 2603.26 382.420   1
   1  -2   9 1764.58 332.800   1
   1  -2   9 2569.55 334.900   1
  -1   2  -9 3094.71 380.370   1
  -4   7  -2 5611.41 585.700   1
  -4   7  -2 4838.46 596.150   1
   3  -7  -3 8534.53 993.560   1
  -3   7   3 5308.90 640.070   1
   0   7  -4 621.800 206.230   1
   0   7  -4 626.770 143.870   1
   7  -2   3 1078.49 264.550   1
  -7   2  -3 1297.98 210.160   1
   7  -2   3 669.430 175.610   1
   7  -2   3 933.330 274.580   1
  -7   2  -3 806.460 243.490   1
  -7   4   2 886.470 160.440   1
   7  -4  -2 651.740 171.420   1
   7  -4  -2 818.880 251.730   1
  -7   1  -3 3991.85 571.750   1
  -7   1  -3 6913.88 673.000   1
   7  -1   3 5694.09 645.500   1
   7  -1   3 4744.25 663.120   1
   7  -1   3 4656.32 636.950   1
   4   4  -6 1229.23 309.680   1
   4   4  -6 748.630 204.230   1
   4   4  -6 1056.36 193.270   1
   3   6   2 2987.71 359.800   1
  -3  -6  -2 3129.61 476.830   1
  -6   5  -3 9355.00 967.360   1
   6  -5   3 8886.75 916.610   1
  -6   5  -3 10751.3 1024.24   1
   4  -5  -6 -84.660 203.790   1
  -4   5   6 355.110 185.810   1
  -4   5   6 131.520 129.100   1
  -7  -1   3 1512.11 361.920   1
   7   1  -3 2109.67 320.250   1
  -7  -1   3 1346.58 267.970   1
   7   1  -3 1492.19 356.520   1
   7   1  -3 1224.03 261.310   1
   0   7   3 1240.49 377.350   1
   0  -7  -3 2276.46 418.060   1
   2   6  -5 1241.20 207.180   1
   2   6  -5 992.140 330.670   1
  -2   6  -6 266.610 195.170   1
   2  -6   6 573.860 127.960   1
  -2   6  -6 173.560 231.260   1
  -1  -7  -2 -251.54 190.950   1
   1   7   2 -17.980 139.840   1
   7   0  -4 43.5900 105.980   1
  -7   0   4 -175.02 118.080   1
  -7   0   4 4.17000 194.350   1
   7   0  -4 -72.980 164.660   1
   7   0  -4 36.8900 133.710   1
   3   1   8 -7.1900 128.300   1
  -3  -1  -8 89.5900 172.520   1
   3   1   8 30.9900 198.090   1
   3   1   8 67.6000 170.650   1
   6   2  -5 15.3800 170.480   1
   6   2  -5 205.630 122.420   1
   6   2  -5 136.960 112.510   1
  -6  -2   5 78.5000 99.8700   1
   6   0   5 1451.84 283.710   1
  -6   0  -5 2055.78 388.160   1
   6   0   5 2939.68 376.530   1
   6   0   5 2862.27 391.300   1
   6   0   5 1707.52 419.020   1
   4  -4  -7 4594.79 565.100   1
  -4   4   7 6037.38 824.450   1
  -4   4   7 2952.24 428.590   1
   4  -5   6 6870.24 708.800   1
  -4   5  -6 5678.15 679.560   1
  -4   5  -6 5912.40 758.930   1
  -4   7   2 5982.26 727.600   1
   4  -7  -2 9185.46 999.260   1
  -4   7   2 6493.38 717.380   1
  -3   3  -8 2045.96 369.920   1
   3  -3   8 2402.83 335.190   1
   3  -3   8 4871.59 524.200   1
  -3   3  -8 3228.56 415.320   1
   3  -3   8 3741.95 401.200   1
   1   1   9 1100.31 280.080   1
   1   1   9 1203.68 257.610   1
  -1  -1  -9 1166.49 311.930   1
   6  -3   5 1243.78 259.170   1
  -6   3  -5 1062.15 256.080   1
   6  -3   5 1224.75 237.930   1
  -6   3  -5 1280.91 226.320   1
   6   3   2 519.930 181.870   1
   6   3   2 382.880 122.930   1
   6   3   2 169.270 272.770   1
  -2   4  -8 4085.84 621.120   1
  -2   4  -8 3128.66 509.360   1
   2  -4   8 5529.08 572.010   1
   1  -2  -9 1014.47 219.440   1
  -1   2   9 292.380 119.420   1
   1  -2  -9 460.120 157.400   1
  -1   2   9 964.010 255.280   1
  -1   2   9 407.610 240.590   1
   1  -2  -9 1091.60 309.430   1
   6  -4  -5 2498.40 392.420   1
  -6   4   5 1863.79 290.080   1
  -6   4   5 1080.68 353.420   1
  -5   5  -5 -71.530 274.190   1
   5  -5   5 87.6200 174.030   1
  -5   5  -5 218.020 153.910   1
   3   4   6 1448.02 338.300   1
   3   4   6 2676.19 394.820   1
  -3  -4  -6 1982.21 410.020   1
  -3  -4  -6 1246.43 246.350   1
   3   4   6 723.140 259.040   1
   4   5   3 2289.79 286.110   1
  -4  -5  -3 2786.16 486.710   1
  -4  -5  -3 1984.22 475.990   1
   3   3  -8 1258.63 257.600   1
  -3  -3   8 1011.63 226.030   1
   3   3  -8 864.270 251.110   1
   3   3  -8 690.690 292.210   1
   5  -3  -7 1745.34 351.700   1
  -5   3   7 1530.82 260.890   1
  -5   3   7 1713.56 371.810   1
  -5   3   7 1025.34 295.150   1
   2   7  -1 56.9700 101.490   1
   2   7  -1 8.57000 167.060   1
   3   5  -6 94.7100 115.590   1
   3   5  -6 158.180 196.580   1
  -5  -3   6 802.610 206.140   1
   5   3  -6 826.830 175.900   1
   5   3  -6 1036.26 286.550   1
  -5  -4  -3 1342.04 395.090   1
  -5  -4  -3 3222.80 491.990   1
   5   4   3 2702.28 348.080   1
   5   4   3 2216.18 399.520   1
   5   4   3 4573.01 570.240   1
  -4  -3  -6 3029.99 490.340   1
   4   3   6 3389.21 567.530   1
   4   3   6 888.400 216.620   1
   4   3   6 1880.75 394.260   1
   4   3   6 3185.40 496.010   1
  -3  -3  -7 1032.98 299.260   1
   3   3   7 1317.55 310.380   1
   3   3   7 1631.10 392.960   1
   3   3   7 550.410 169.970   1
   2   2  -9 401.450 204.280   1
  -2  -2   9 325.310 127.540   1
  -2  -2   9 317.540 114.400   1
   2   2  -9 464.560 155.560   1
  -1   5   7 2449.04 412.100   1
   1  -5  -7 1996.70 405.920   1
  -1   5   7 1722.92 381.040   1
  -1   5   7 941.810 312.440   1
   2   7   0 444.170 123.350   1
  -2  -7   0 306.180 250.370   1
   6   1  -6 2324.12 289.350   1
  -6  -1   6 2118.60 315.450   1
   6   1  -6 2215.32 387.580   1
  -2  -6  -4 10069.9 1151.89   1
   2   6   4 3951.40 573.650   1
   7   1   2 4395.16 521.620   1
   7   1   2 4498.57 610.880   1
   1   6  -6 940.560 271.810   1
   1   6  -6 272.760 116.830   1
  -3   0   9 1687.23 329.720   1
   3   0  -9 2602.73 404.550   1
  -3   0   9 2030.19 305.220   1
   3   0  -9 2207.08 288.690   1
   0  -2  -9 692.080 276.460   1
   0  -2  -9 702.000 175.850   1
   0   2   9 487.650 181.490   1
   0  -2  -9 524.040 174.950   1
   0   2   9 196.990 82.0600   1
   0   2   9 1007.39 272.560   1
  -7   3  -3 11300.3 1047.20   1
   7  -3   3 10349.0 1012.62   1
  -7   3  -3 8215.48 833.450   1
  -7   3  -3 12635.3 541.920   1
   7  -3   3 6041.78 661.820   1
   7  -3   3 8412.10 902.800   1
  -6   6   0 3500.42 423.820   1
   6  -6   0 3676.58 450.610   1
   2  -1   9 1270.62 246.510   1
  -2   1  -9 853.870 258.290   1
   2  -1   9 1419.99 293.360   1
  -2   5   7 1036.60 350.000   1
  -2   5   7 1660.77 333.690   1
   2  -5  -7 1999.97 390.680   1
  -2   5   7 2317.84 449.850   1
  -5   4  -6 5074.10 629.520   1
   5  -4   6 5577.62 608.250   1
  -5   4  -6 3111.78 472.380   1
   7   0   3 417.880 183.020   1
   7   0   3 450.580 146.380   1
   7  -4   2 2309.45 341.550   1
   7  -4   2 2635.95 356.240   1
  -7   4  -2 2881.26 346.440   1
   3   6  -4 684.390 143.240   1
   3   6  -4 724.300 268.700   1
  -2   2   9 2200.16 424.380   1
   2  -2  -9 1953.46 322.370   1
  -2   2   9 805.070 209.150   1
  -2   2   9 1560.48 393.510   1
   2  -2  -9 2389.26 395.030   1
  -4   6  -5 1613.54 326.350   1
  -4   6  -5 1266.22 360.910   1
  -4   6  -5 1760.32 405.000   1
   4  -6   5 1615.07 279.360   1
   7  -3  -4 3750.55 504.580   1
  -7   3   4 2092.96 337.390   1
  -7   3   4 4764.26 457.450   1
  -4   4  -7 2979.63 505.820   1
  -4   4  -7 5850.05 717.200   1
   4  -4   7 6570.49 671.550   1
   6  -6  -1 436.400 197.810   1
  -6   6   1 587.600 138.940   1
   6   3  -4 2430.16 300.240   1
   6   3  -4 1069.87 390.730   1
  -6  -3   4 1905.62 385.440   1
  -3   7  -4 1358.08 282.400   1
  -3   7  -4 1057.41 256.970   1
   1   6   5 859.740 292.470   1
  -1  -6  -5 1265.80 300.510   1
   7   2  -1 10157.1 1137.06   1
   7   2  -1 11790.9 506.360   1
   2   7  -2 271.270 173.980   1
   2   7  -2 223.550 100.380   1
   0  -3   9 489.710 127.810   1
   0   3  -9 448.090 181.290   1
   0  -3   9 265.360 117.180   1
   0   3  -9 317.230 112.740   1
  -1   4   8 1138.25 268.850   1
  -1   4   8 140.670 181.910   1
   1  -4  -8 808.780 235.750   1
  -1   4   8 449.360 237.000   1
   2   0   9 1188.83 247.890   1
   2   0   9 1740.17 348.800   1
  -2   0  -9 1689.54 339.440   1
  -3   1   9 852.850 245.120   1
   3  -1  -9 1560.59 279.320   1
   3  -1  -9 1295.32 329.820   1
  -3   1   9 1642.61 335.170   1
  -6   5   4 599.120 252.830   1
  -6   5   4 2720.28 328.180   1
   6  -5  -4 3619.13 498.710   1
  -6   3   6 452.530 105.420   1
   6  -3  -6 282.480 180.690   1
   7  -4  -3 1413.10 275.740   1
   7  -4  -3 1748.35 357.780   1
  -7   4   3 2491.04 267.290   1
   4   4   5 -80.320 90.9100   1
  -4  -4  -5 -42.390 105.370   1
  -4  -4  -5 -125.23 196.280   1
   4   4   5 464.470 185.820   1
   4   4   5 -53.290 135.890   1
   6  -6   1 10245.8 1143.21   1
   6  -6   1 10959.8 1122.59   1
  -6   6  -1 12803.8 658.380   1
  -4   6   5 1007.92 236.880   1
   4  -6  -5 1059.58 288.750   1
  -3   5  -7 3040.46 718.290   1
  -3   5  -7 3468.44 502.400   1
   3  -5   7 4767.71 510.970   1
  -2   7   4 1967.79 411.960   1
   2  -7  -4 2260.43 476.640   1
   4   2  -8 1035.45 272.490   1
  -4  -2   8 799.320 212.780   1
   4   2  -8 1070.02 211.160   1
   5   2  -7 2002.70 418.840   1
  -5  -2   7 1754.83 336.210   1
   5   2  -7 1943.36 310.850   1
  -4   7  -3 2957.51 465.380   1
  -4   7  -3 3672.82 466.370   1
   7   2   0 3094.09 443.150   1
   7   2   0 2461.57 338.160   1
   7   2   0 2275.86 478.980   1
  -2  -4  -7 3366.59 504.070   1
   2   4   7 3421.41 571.250   1
   2   4   7 1868.37 510.450   1
  -2   4   8 2762.16 465.150   1
  -2   4   8 3632.31 626.530   1
   2  -4  -8 3671.53 482.870   1
   2   5  -7 -221.37 212.450   1
   2   5  -7 80.5600 115.440   1
   1  -7  -4 2820.52 463.750   1
  -1   7   4 2216.39 506.330   1
   2   4  -8 3939.34 540.370   1
  -2  -4   8 4930.95 526.120   1
   2   4  -8 4646.93 488.710   1
  -6  -2  -4 5455.93 862.110   1
   6   2   4 4669.64 529.720   1
   6   2   4 4526.27 639.540   1
   6   2   4 3408.88 428.370   1
   1   7  -4 1958.37 418.440   1
   1   7  -4 2134.18 270.460   1
   5   5  -1 2514.18 379.350   1
   5   5  -1 2805.26 409.430   1
   5   5  -1 2826.37 356.020   1
  -5  -5   1 2712.47 401.460   1
  -5   6   4 863.420 186.520   1
   5  -6  -4 573.480 232.500   1
  -3  -1   9 2120.75 305.270   1
  -3  -1   9 2219.48 321.660   1
   3   1  -9 2206.19 320.280   1
   3   1  -9 1475.04 308.320   1
  -2   2  -9 340.200 184.540   1
  -2   2  -9 490.320 186.190   1
   2  -2   9 615.900 131.240   1
   2  -2   9 609.570 166.570   1
  -2   2  -9 61.6800 125.590   1
  -2  -7  -1 1644.72 353.720   1
   2   7   1 1693.32 300.120   1
   7   2  -2 2182.45 394.440   1
   7   2  -2 2146.26 384.960   1
   7   2  -2 2898.57 373.690   1
   1  -3   9 144.150 125.330   1
   1  -3   9 17.2200 112.360   1
  -1   3  -9 227.270 174.930   1
  -1   3  -9 325.510 115.610   1
   1   3  -9 1496.00 294.640   1
  -1  -3   9 1562.60 259.960   1
   1   3  -9 1481.47 250.940   1
  -1  -3   9 1656.45 272.470   1
   0  -5  -7 321.420 212.850   1
   0   5   7 182.710 230.230   1
   0  -5  -7 -39.800 97.7600   1
   0   5   7 -59.760 152.620   1
   7   1  -4 2863.60 452.460   1
   7   1  -4 3695.33 449.980   1
  -7  -1   4 2738.71 442.320   1
   7   1  -4 3125.92 523.160   1
  -7  -1   4 1697.35 341.840   1
  -5  -5   0 841.020 239.320   1
  -5  -5   0 911.580 219.770   1
   5   5   0 995.730 183.730   1
  -3   6  -6 138.960 171.030   1
  -3   6  -6 598.300 209.280   1
   3  -6   6 660.020 178.780   1
  -5   6  -4 375.030 186.710   1
   5  -6   4 154.490 150.200   1
  -5   6  -4 482.740 178.030   1
   5  -1   7 2371.75 322.950   1
   5  -1   7 1690.96 272.180   1
  -5   1  -7 1603.50 309.870   1
   5  -1   7 1590.14 308.390   1
   4   2   7 180.780 202.600   1
   4   2   7 -58.120 148.730   1
  -4  -2  -7 87.5800 176.150   1
   4   5  -5 3004.03 546.670   1
   4   5  -5 3220.53 363.710   1
   5   4  -5 42.9900 114.170   1
   5   4  -5 45.5800 180.810   1
  -4   3   8 -7.5300 198.480   1
   4  -3  -8 101.190 205.680   1
  -4   3   8 10.9600 116.770   1
   4  -7  -3 6412.34 777.480   1
  -4   7   3 4582.51 598.740   1
  -4   7   3 3513.82 484.840   1
  -7   1   5 890.050 223.640   1
  -7   1   5 1438.20 216.510   1
   7  -1  -5 1380.51 293.410   1
   7  -1  -5 714.550 283.730   1
   5   5  -2 1791.65 391.770   1
   5   5  -2 2130.16 260.240   1
   3   5   5 216.280 154.210   1
  -3  -5  -5 356.140 124.310   1
   3   5   5 385.110 185.870   1
  -3  -5  -5 630.100 258.170   1
   2  -6  -6 1108.67 281.070   1
  -2   6   6 592.070 202.490   1
  -2   6   6 664.230 250.240   1
  -2   6   6 744.540 249.600   1
   5  -7   0 -3.1300 200.840   1
  -5   7   0 3.21000 116.420   1
  -1   7  -5 601.360 106.040   1
  -1   7  -5 546.580 205.460   1
  -1   7  -5 489.310 139.230   1
   1  -6  -6 1034.66 302.580   1
  -1   6   6 719.210 300.860   1
  -1   6   6 1223.76 295.790   1
  -5   2  -7 2750.49 446.510   1
   5  -2   7 3846.94 431.860   1
   0   4   8 1317.01 376.230   1
   0  -4  -8 732.280 301.110   1
   0   4   8 488.490 193.630   1
   0   4   8 1107.82 323.690   1
  -6   6   2 -87.740 121.330   1
   6  -6  -2 58.7500 210.510   1
   6   1   5 1238.02 183.260   1
  -6  -1  -5 810.830 265.810   1
   6   1   5 1046.51 162.960   1
   6   1   5 1088.14 240.090   1
  -2  -5  -6 2358.77 353.110   1
   2   5   6 729.290 394.800   1
   2   5   6 2607.78 386.640   1
  -3   5   7 224.400 163.120   1
   3  -5  -7 633.590 236.770   1
   4  -1   8 2203.61 273.720   1
   4  -1   8 1306.71 183.210   1
  -4   1  -8 1402.65 237.870   1
   1   7   3 321.500 181.460   1
  -1  -7  -3 415.070 217.430   1
   3   6   3 218.490 115.310   1
  -3  -6  -3 517.930 233.190   1
   4   6  -1 700.150 122.200   1
   4   6  -1 550.230 163.540   1
  -5   7  -1 824.070 191.640   1
   5  -7   1 886.480 221.010   1
  -7   5   0 5095.71 412.930   1
   7  -5   0 4110.82 417.060   1
   7  -5   0 5002.25 474.630   1
   7   2   1 746.130 460.980   1
   7   2   1 796.790 159.490   1
   7   2   1 1045.63 189.910   1
   5  -7  -1 4195.63 476.080   1
  -5   7   1 3836.32 400.580   1
   7  -2  -5 1264.25 302.230   1
  -7   2   5 2214.70 201.130   1
  -7   2   5 1828.51 357.490   1
  -3   7   4 1813.33 312.470   1
   3  -7  -4 2499.52 423.940   1
  -3   7   4 2004.30 301.640   1
   5   3   5 545.480 241.900   1
   5   3   5 396.570 180.690   1
  -5  -3  -5 867.610 240.120   1
   5   3   5 313.270 97.7400   1
   2   7  -3 1216.87 133.860   1
   2   7  -3 775.690 282.760   1
   1   2   9 341.350 196.320   1
   1   2   9 379.890 166.300   1
  -1  -2  -9 359.580 215.130   1
   4  -2   8 -35.940 94.1800   1
   4  -2   8 -43.240 147.350   1
  -4   2  -8 5.81000 143.540   1
  -7   5   1 12372.2 424.000   1
   7  -5  -1 9102.27 675.330   1
   7  -5  -1 13069.9 716.890   1
   2   3   8 97.9700 95.2000   1
   2   3   8 463.320 280.650   1
   2   3   8 157.620 276.720   1
   2   3   8 391.960 165.570   1
  -2  -3  -8 431.190 267.770   1
  -6   5  -4 5327.08 540.310   1
  -6   5  -4 6190.24 549.190   1
   6  -5   4 4537.96 399.840   1
  -6   6  -2 4836.68 547.490   1
  -6   6  -2 8541.01 576.110   1
   6  -6   2 5093.52 485.870   1
   6  -4   5 191.840 183.380   1
  -6   4  -5 22.0900 205.570   1
  -6   4  -5 234.670 108.990   1
  -2   8   0 1677.69 299.480   1
   2  -8   0 3872.27 542.170   1
  -2   7  -5 531.320 175.470   1
  -2   7  -5 532.190 233.460   1
   4   6   0 2335.96 238.640   1
  -4  -6   0 1991.91 310.320   1
   1  -8   0 11928.4 935.360   1
  -1   8   0 5387.88 579.420   1
  -1   8  -1 574.950 174.240   1
  -1   8  -1 1124.64 201.140   1
   6   4  -1 1301.96 154.630   1
  -6  -4   1 1463.12 255.580   1
  -2   8  -1 891.190 193.740   1
  -2   8  -1 1184.97 193.130   1
   0   7  -5 4362.64 349.670   1
   0   7  -5 4058.99 460.260   1
   7  -2   4 66.4800 168.220   1
  -7   2  -4 -68.620 102.870   1
  -7   2  -4 69.6400 145.280   1
   2   1   9 1253.20 248.870   1
   2   1   9 1080.91 211.170   1
  -2  -1  -9 856.070 248.180   1
  -7   0   5 3012.94 428.520   1
   7   0  -5 3445.29 362.410   1
   7   0  -5 3207.01 502.510   1
  -3   2   9 47.5400 97.3600   1
   3  -2  -9 -8.5500 103.260   1
  -3   2   9 -86.750 131.820   1
  -3   2   9 -166.07 190.330   1
   3  -2  -9 105.350 212.600   1
   6   3   3 1192.79 290.030   1
   6   3   3 988.050 235.220   1
   6   3   3 922.510 168.760   1
   3   2   8 2380.94 328.370   1
  -3  -2  -8 1781.61 334.760   1
   3   2   8 2629.56 377.120   1
   3   2   8 1374.70 256.030   1
  -5   1   8 557.900 192.140   1
   5  -1  -8 757.920 269.310   1
   5  -1  -8 1035.96 145.010   1
  -5   1   8 550.850 117.210   1
   0   7   4 3587.60 608.600   1
   0  -7  -4 4158.54 521.530   1
   5   2   6 1246.72 222.190   1
  -5  -2  -6 1155.22 258.990   1
   5   2   6 1375.73 254.980   1
   5   2   6 913.990 131.180   1
  -7   1  -4 292.180 132.190   1
   7  -1   4 325.230 180.600   1
   5   0   7 543.350 216.380   1
  -5   0  -7 367.600 188.580   1
   5   0   7 266.170 114.100   1
   5   0   7 299.470 182.510   1
   5   5   1 497.490 113.520   1
  -5  -5  -1 1201.59 306.100   1
   4   6  -2 950.690 120.090   1
   4   6  -2 637.020 267.890   1
  -5   0   8 1502.08 264.130   1
   5   0  -8 1858.80 318.160   1
   5   0  -8 1568.99 187.860   1
   3  -4  -8 2360.53 325.740   1
  -3   4   8 2212.50 387.690   1
  -3   4   8 839.320 242.280   1
   3  -4   8 1329.46 174.790   1
  -3   4  -8 1061.87 243.480   1
  -3   4  -8 728.590 240.620   1
   7   2  -3 -3.9400 150.200   1
   7   2  -3 16.9300 173.700   1
   7   2  -3 128.520 160.280   1
   6   4   0 1258.66 157.070   1
  -6  -4   0 1898.07 400.700   1
   4   0   8 138.090 172.500   1
   4   0   8 -37.380 114.750   1
  -4   0  -8 -322.30 190.920   1
   4   0   8 -184.37 183.910   1
  -7   5  -1 185.960 126.210   1
   7  -5   1 136.380 167.120   1
   7  -5   1 33.5500 150.110   1
   6   4  -2 3955.35 506.890   1
   6   4  -2 6451.79 489.910   1
  -7   4  -3 2410.33 235.710   1
  -7   4  -3 2536.09 302.400   1
   7  -4   3 2131.16 262.100   1
  -3   6   6 753.000 250.040   1
  -3   6   6 961.170 288.120   1
   3  -6  -6 779.310 247.890   1
  -3   6   6 892.310 185.240   1
   6  -1  -7 529.270 238.200   1
  -6   1   7 667.730 106.330   1
   6  -1  -7 420.820 158.210   1
  -6   1   7 360.300 174.070   1
   7   1   3 3733.45 477.560   1
   7   1   3 3903.02 390.680   1
   2  -8  -1 1606.88 324.990   1
  -2   8   1 1167.34 219.030   1
   0   5  -8 304.070 213.530   1
   0  -5   8 142.280 100.400   1
   0   5  -8 254.490 116.500   1
   5   5  -3 286.130 118.760   1
   5   5  -3 635.180 228.360   1
   0  -6  -6 1196.33 279.200   1
   0   6   6 247.420 196.570   1
   0   6   6 532.870 219.160   1
  -1   5  -8 1063.00 167.580   1
   1  -5   8 1278.63 174.340   1
  -1   5  -8 928.090 256.350   1
  -2  -7  -2 3062.68 348.870   1
   2   7   2 2970.62 297.060   1
   2   7   2 1346.36 291.700   1
   1  -8  -1 16297.4 984.110   1
  -1   8   1 9864.36 871.230   1
   8  -2  -1 5.71000 156.160   1
  -8   2   1 -134.76 94.6400   1
  -8   2   1 -44.200 108.300   1
   8  -2  -1 -170.95 163.210   1
  -1   8  -2 -175.62 122.530   1
  -1   8  -2 463.690 185.350   1
  -6   1  -6 458.600 204.710   1
   6  -1   6 859.490 224.170   1
   6  -1   6 464.870 176.270   1
   8  -1  -1 6414.57 543.390   1
  -8   1   1 6635.33 483.070   1
   8  -1  -1 5998.77 633.050   1
  -8   1   1 6257.82 644.800   1
   8  -1  -1 7000.89 610.580   1
  -6   2  -6 3956.66 375.680   1
   6  -2   6 5939.59 480.630   1
  -6   2  -6 5412.78 574.940   1
   6  -2   6 3604.12 442.790   1
  -7   5   2 5120.13 377.350   1
   7  -5  -2 4605.21 525.890   1
   1  -3  -9 302.930 267.070   1
  -1   3   9 441.740 193.830   1
   1  -3  -9 411.820 113.360   1
  -1   3   9 136.280 102.220   1
  -1   3   9 458.740 275.970   1
   5  -3   7 930.860 198.350   1
  -5   3  -7 468.260 185.600   1
  -5   3  -7 216.450 109.900   1
   2   6  -6 1663.95 191.300   1
   2   6  -6 2351.84 428.160   1
   3   2  -9 1399.84 255.620   1
  -3  -2   9 1257.14 198.400   1
   3   2  -9 1157.05 172.240   1
  -8   2   0 1179.82 125.140   1
   8  -2   0 1307.59 194.110   1
   8  -2   0 1659.96 262.200   1
  -2   8  -2 788.090 178.800   1
  -2   8  -2 207.020 151.620   1
   5  -5  -6 632.310 216.290   1
  -5   5   6 401.970 137.980   1
   6   2  -6 113.370 120.410   1
   6   2  -6 74.0300 186.030   1
  -6  -2   6 -75.690 106.310   1
  -5   7  -2 151.680 145.390   1
  -5   7  -2 81.2900 136.380   1
   2  -3   9 34.0100 104.960   1
  -2   3  -9 370.130 173.520   1
  -2   3  -9 -87.260 147.390   1
   2   3  -9 882.520 227.810   1
  -2  -3   9 490.600 143.720   1
  -2  -3   9 1357.05 174.380   1
   2   3  -9 1061.50 149.960   1
   8  -1   0 4877.66 482.770   1
  -8   1   0 5419.94 429.790   1
   8  -1   0 4551.03 424.690   1
  -5   7   2 3127.27 317.490   1
   5  -7  -2 3638.04 427.010   1
  -1   6  -7 1259.88 168.480   1
   1  -6   7 2145.51 228.350   1
  -1   6  -7 1233.63 281.070   1
   6   0  -7 6690.04 544.100   1
   6   0  -7 6355.33 675.160   1
  -6   0   7 6012.57 618.250   1
   4   6   1 1614.06 176.990   1
  -4  -6  -1 1620.65 303.900   1
   7  -4  -4 2163.17 335.710   1
  -7   4   4 3292.53 252.100   1
  -4  -5  -4 4773.35 619.720   1
   4   5   4 3048.82 301.270   1
   4   5   4 4875.85 470.120   1
   3  -8   0 5180.51 559.130   1
  -3   8   0 3571.40 410.580   1
   3   6  -5 3320.18 286.590   1
   3   6  -5 2662.12 487.520   1
   0   8  -1 81.5700 158.510   1
   0   8  -1 188.150 133.250   1
  -7   3  -4 9812.35 765.980   1
  -7   3  -4 10281.1 680.330   1
   7  -3   4 11215.2 506.810   1
   5  -2  -8 3409.17 525.610   1
  -5   2   8 3750.76 341.720   1
   5  -2  -8 4185.83 376.500   1
  -5   2   8 4050.25 574.650   1
   0   6  -7 1442.47 261.450   1
   0   6  -7 1202.61 185.890   1
   0   8   0 203.490 140.570   1
   0  -8   0 285.980 339.230   1
   5  -4  -7 246.160 192.160   1
  -5   4   7 65.9500 216.990   1
  -5   4   7 70.6400 110.030   1
  -2   3   9 -44.450 113.090   1
   2  -3  -9 230.040 225.790   1
  -2   3   9 -3.3700 191.560   1
   2  -3  -9 62.3700 109.890   1
  -2   3   9 40.9700 253.320   1
  -3   8  -1 4058.84 346.630   1
  -3   8  -1 2670.98 346.820   1
   6   3  -5 438.260 229.060   1
   6   3  -5 733.890 268.180   1
   6   3  -5 826.130 135.280   1
  -6   6   3 84.5300 122.470   1
   6  -6  -3 100.330 218.990   1
   5   4   4 2516.06 270.260   1
   5   4   4 2718.34 418.600   1
   5   4   4 4947.92 530.370   1
  -6   2   7 830.510 259.440   1
   6  -2  -7 1082.23 299.430   1
   6  -2  -7 1509.07 192.880   1
  -6   2   7 1377.19 164.460   1
  -4   7  -4 1933.82 424.380   1
  -4   7  -4 2870.62 350.080   1
   4  -7   4 2515.48 289.190   1
   6   4   1 -48.180 102.170   1
  -8   1   2 6234.17 458.680   1
  -8   1   2 4410.17 523.750   1
   8  -1  -2 5687.37 506.660   1
   8  -1  -2 6830.47 558.450   1
   8  -1  -2 5541.20 678.740   1
   7  -3  -5 117.480 181.480   1
  -7   3   5 37.0700 95.1100   1
  -7   3   5 38.2700 158.300   1
  -8   2   2 193.910 111.410   1
   8  -2  -2 -39.210 112.780   1
  -8   2   2 151.720 100.210   1
   8  -2  -2 160.030 148.420   1
   1   5   7 198.210 205.020   1
   1   5   7 771.420 219.240   1
   1   5   7 675.450 247.360   1
  -1  -5  -7 690.000 242.250   1
   7   0   4 2852.33 333.390   1
   7   0   4 3015.12 293.030   1
  -4   3  -8 2716.68 431.910   1
  -4   3  -8 1091.78 262.520   1
   4  -3   8 4580.21 396.480   1
   4   4  -7 193.290 120.000   1
   4   4  -7 168.610 175.550   1
  -4  -4   7 199.060 110.730   1
   4   6  -3 97.3800 170.700   1
   4   6  -3 430.010 110.110   1
   5   1  -8 214.020 121.890   1
  -5  -1   8 278.780 147.360   1
   5   1  -8 406.840 194.820   1
   1   4   8 -120.51 171.380   1
   1   4   8 4.61000 115.970   1
   1   4   8 -115.48 269.810   1
  -1  -4  -8 154.000 219.210   1
   0  -3  -9 862.860 262.640   1
   0   3   9 806.750 306.050   1
   0  -3  -9 771.690 170.430   1
   0   3   9 252.660 119.620   1
   0   3   9 1125.41 277.220   1
   7   2   2 363.000 152.430   1
   7   2   2 442.580 194.040   1
   7   2   2 584.050 184.390   1
   3  -1   9 417.610 131.190   1
   3  -1   9 513.000 195.880   1
  -3   1  -9 160.000 182.700   1
  -6   4   6 288.280 108.700   1
   6  -4  -6 -67.980 188.590   1
   4   0  -9 1138.96 246.540   1
  -4   0   9 1357.76 284.270   1
   4   0  -9 1268.96 176.190   1
   6   4  -3 491.590 122.590   1
   6   4  -3 140.990 151.910   1
  -3   8   1 603.290 153.990   1
   3  -8  -1 742.240 232.720   1
  -3   7  -5 325.910 184.550   1
   3  -7   5 681.310 142.160   1
  -3   7  -5 712.640 199.680   1
  -8   2  -1 11044.3 397.560   1
   8  -2   1 8877.33 700.690   1
   8  -2   1 13118.1 582.960   1
   7  -5   2 22.5200 203.750   1
   7  -5   2 246.630 151.810   1
  -7   5  -2 340.000 137.310   1
   1   5  -8 101.270 217.010   1
   1   5  -8 140.180 111.440   1
  -6   5   5 8289.87 579.290   1
   6  -5  -5 8877.80 773.010   1
   4  -1  -9 93.5600 239.320   1
   4  -1  -9 40.4000 140.540   1
  -4   1   9 -14.590 121.760   1
  -4   1   9 -10.570 187.360   1
   0   8  -2 1047.02 207.140   1
   0   8  -2 2169.79 257.360   1
   0   8  -2 1361.92 156.380   1
   1   7  -5 2024.22 223.380   1
   1   7  -5 1920.62 352.890   1
   8  -1   1 908.790 180.040   1
   8  -1   1 939.200 164.060   1
  -8   1  -1 924.620 137.230   1
   8  -3  -1 10119.7 750.110   1
  -8   3   1 10408.8 664.810   1
   8  -3  -1 8857.38 730.130   1
   6   0   6 2220.81 286.080   1
   6   0   6 1643.89 218.050   1
  -6   0  -6 1204.15 299.070   1
   1   0 -10 5373.99 588.570   1
  -1   0  10 5436.81 521.660   1
   1   0 -10 4490.40 414.840   1
  -1   0  10 3941.31 415.630   1
  -2   6  -7 -33.580 150.150   1
   2  -6   7 -74.580 139.340   1
  -2   6  -7 288.390 207.430   1
   8  -3   0 8374.37 700.640   1
  -8   3   0 7815.99 521.070   1
   8  -3   0 7271.31 607.710   1
  -2   5  -8 161.330 196.440   1
  -2   5  -8 594.620 236.420   1
   2  -5   8 448.510 130.880   1
  -6   6  -3 75.1100 151.410   1
   6  -6   3 168.410 149.260   1
  -6   6  -3 409.420 168.400   1
   8   0  -1 2389.14 290.700   1
   8   0  -1 2422.07 312.450   1
   6  -3   6 1878.97 248.650   1
  -6   3  -6 1037.80 169.620   1
  -6   3  -6 1276.02 254.570   1
  -5   5  -6 1352.97 293.140   1
   5  -5   6 1119.40 189.420   1
  -5   5  -6 1348.29 260.540   1
   2   7  -4 2832.09 258.870   1
   2   7  -4 2796.57 405.120   1
  -4   5   7 1142.39 184.350   1
   4  -5  -7 1099.53 264.320   1
   5   5   2 655.430 125.220   1
  -5  -5  -2 916.640 268.970   1
   7   1  -5 1240.28 276.030   1
  -7  -1   5 616.210 179.130   1
   7   1  -5 1405.42 171.490   1
  -2  -6  -5 1318.32 306.550   1
   2   6   5 565.540 248.020   1
   0   0  10 378.930 144.980   1
   0   0 -10 389.910 93.2400   1
   0   0 -10 644.980 185.390   1
   0   0  10 488.030 192.170   1
   0  -8  -1 419.170 279.460   1
   0   8   1 321.600 159.300   1
   0   1 -10 3172.03 288.700   1
   0  -1  10 2788.47 375.140   1
   0  -1  10 3776.57 362.150   1
   0   1 -10 3359.04 416.310   1
  -2   8   2 1443.57 315.890   1
   2  -8  -2 3009.41 420.520   1
  -4   7   4 1039.71 225.820   1
   4  -7  -4 2405.29 364.780   1
  -4   7   4 1313.81 250.970   1
   0  -4   9 5266.18 407.000   1
   0   4  -9 4681.18 478.600   1
   0  -4   9 5934.85 466.940   1
   0   4  -9 5578.89 451.040   1
   4   3  -8 681.820 278.470   1
  -4  -3   8 723.440 133.640   1
   4   3  -8 623.010 129.980   1
   1   1 -10 5272.38 455.180   1
  -1  -1  10 5428.94 505.920   1
  -1  -1  10 5442.62 451.700   1
   1   1 -10 6078.93 574.810   1
   3  -2   9 206.290 114.720   1
   3  -2   9 -32.750 182.350   1
  -3   2  -9 396.270 193.990   1
  -3   8  -2 991.460 191.980   1
  -3   8  -2 1210.32 233.990   1
   3   4  -8 132.770 185.930   1
  -3  -4   8 -74.740 110.500   1
   3   4  -8 -68.130 124.320   1
   8   0   0 8016.05 724.140   1
   8   0   0 8257.41 669.020   1
   3   0   9 1656.73 249.520   1
  -3   0  -9 1858.82 366.530   1
   3   0   9 1996.35 293.390   1
   4   1   8 1663.78 282.660   1
   4   1   8 1216.38 236.030   1
  -4  -1  -8 1165.62 263.220   1
   4   1   8 2552.62 375.500   1
   1  -8  -2 330.500 236.820   1
  -1   8   2 559.700 217.500   1
  -1   8  -3 1195.42 216.770   1
  -1   8  -3 3073.43 344.400   1
  -4   5  -7 3179.56 542.150   1
   4  -5   7 5305.51 432.100   1
  -4   5  -7 3698.75 470.470   1
  -5   6   5 1121.52 308.130   1
  -5   6   5 2082.88 306.990   1
   5  -6  -5 2494.33 384.320   1
   7   2  -4 232.110 184.160   1
   7   2  -4 -0.7000 127.690   1
  -7  -2   4 236.540 96.0700   1
   7   2  -4 213.110 155.250   1
   5   1   7 3279.80 340.540   1
  -5  -1  -7 3141.70 375.860   1
   5   1   7 3779.50 445.720   1
  -2   7   5 485.250 196.400   1
   2  -7  -5 1016.66 260.410   1
   5   3  -7 1458.00 159.480   1
  -5  -3   7 1485.48 183.950   1
   5   3  -7 1294.40 235.220   1
   3   5  -7 -83.160 239.890   1
   3   5  -7 -74.650 128.440   1
   3   7  -1 627.000 116.930   1
   3   7  -1 795.160 175.290   1
  -1   4  -9 1733.74 335.440   1
   1  -4   9 1849.45 204.430   1
  -1   4  -9 1871.14 220.010   1
   1  -4   9 2062.65 212.830   1
   7  -5  -3 1036.21 259.420   1
  -7   5   3 1201.09 138.190   1
  -4   6  -6 1432.38 259.980   1
   4  -6   6 1691.90 232.800   1
  -4   6  -6 763.780 335.480   1
  -2   8  -3 145.560 124.660   1
  -2   8  -3 -101.38 158.080   1
   8   0  -2 -32.220 169.550   1
   8   0  -2 135.690 141.220   1
   6   1  -7 636.270 219.720   1
   6   1  -7 931.410 151.410   1
  -6  -1   7 198.890 160.290   1
   8  -3  -2 6420.63 644.090   1
   8  -3  -2 6320.63 555.200   1
  -8   3   2 6953.84 457.430   1
  -1   7   5 3237.61 564.880   1
   1  -7  -5 5184.50 546.490   1
   5   5  -4 231.090 229.000   1
   5   5  -4 413.050 136.120   1
   4   1  -9 394.020 169.040   1
  -4  -1   9 -81.450 126.680   1
   4   1  -9 103.270 116.950   1
   1   6  -7 1454.61 154.570   1
   1   6  -7 1213.23 259.820   1
  -1  -7  -4 4895.57 532.230   1
   1   7   4 3241.74 568.250   1
   3   7   0 2023.06 222.400   1
  -3  -7   0 1969.10 309.800   1
   5  -6   5 11871.4 475.810   1
  -5   6  -5 10705.9 636.430   1
  -5   6  -5 9356.79 906.830   1
   8  -1  -3 920.700 284.510   1
  -8   1   3 574.280 230.110   1
  -8   1   3 1127.29 133.110   1
   8  -1  -3 905.410 171.570   1
   8  -1  -3 991.530 201.460   1
  -8   3  -1 2122.42 207.690   1
   8  -3   1 2220.11 256.950   1
   8  -3   1 2681.92 296.150   1
  -5   7  -3 2981.07 386.080   1
   5  -7   3 3855.69 395.160   1
  -5   7  -3 3766.71 340.180   1
   3   6   4 49.1300 116.090   1
   3   6   4 49.5300 97.1300   1
  -3  -6  -4 146.110 254.100   1
   4   6   2 471.760 110.880   1
  -4  -6  -2 526.930 241.810   1
   1  -1 -10 1370.03 273.740   1
   1  -1 -10 1072.01 193.020   1
  -1   1  10 1199.87 255.440   1
  -1   1  10 1128.47 226.410   1
  -8   2   3 810.430 217.620   1
   8  -2  -3 1083.74 285.600   1
   8  -2  -3 1361.16 246.210   1
  -8   2   3 2271.33 197.330   1
   2   2   9 1918.25 327.870   1
   2   2   9 1400.35 270.700   1
   2   2   9 1726.64 314.730   1
  -2  -2  -9 1732.50 319.290   1
   3  -3  -9 13.5700 100.930   1
  -3   3   9 -36.530 226.730   1
  -3   3   9 -32.840 94.9700   1
  -3   3   9 235.170 206.490   1
   3  -3  -9 -121.22 213.710   1
   4   5  -6 25.1600 118.530   1
   4   5  -6 218.650 186.440   1
  -5   7   3 3415.29 348.450   1
   5  -7  -3 4172.33 515.580   1
  -6  -2  -5 1325.85 234.720   1
   6   2   5 1399.53 215.390   1
   6   2   5 2395.89 378.800   1
   6   2   5 1600.18 220.770   1
   5   4  -6 1804.16 219.520   1
   5   4  -6 1414.01 377.140   1
   4  -6  -6 6187.19 585.880   1
  -4   6   6 5528.93 679.660   1
  -4   6   6 6132.69 573.560   1
  -2   0  10 193.930 132.270   1
   2   0 -10 363.530 223.400   1
   2   0 -10 524.090 151.050   1
  -2   0  10 582.940 169.260   1
   1   4  -9 1667.38 186.510   1
   1   4  -9 2007.95 313.200   1
  -1  -4   9 1667.30 194.980   1
  -1  -4   9 1664.79 213.160   1
  -4   4   8 1120.30 306.220   1
  -4   4   8 988.750 201.120   1
   4  -4  -8 922.890 234.530   1
   3   7  -2 225.060 99.6500   1
   3   7  -2 471.440 167.930   1
   7   3  -1 -145.33 219.150   1
   7   3  -1 69.1200 121.460   1
  -3   8   2 107.300 139.220   1
   3  -8  -2 -14.690 215.970   1
  -1  -6  -6 2124.14 339.580   1
   1   6   6 778.570 306.440   1
   1   6   6 1403.65 290.060   1
  -7   1   6 179.380 92.1700   1
   7  -1  -6 -243.75 133.660   1
  -7   1   6 181.310 140.580   1
   7  -1  -6 141.270 218.020   1
   2   7   3 703.860 191.300   1
  -2  -7  -3 999.570 231.590   1
   6   4   2 1141.30 219.810   1
   4  -2  -9 5270.84 436.400   1
  -4   2   9 2326.64 434.740   1
  -4   2   9 3719.29 347.650   1
  -4   2   9 4775.76 610.330   1
   4  -2  -9 5514.17 612.400   1
   8   0   1 217.580 176.930   1
   8   0   1 423.660 136.460   1
  -1   1 -10 748.900 259.550   1
  -1   1 -10 1188.36 205.810   1
   1  -1  10 1182.44 228.520   1
   1  -1  10 939.550 208.320   1
   0  -1 -10 1332.13 198.970   1
   0   1  10 1940.75 349.210   1
   0   1  10 1734.12 304.480   1
   0  -1 -10 1424.97 330.570   1
   3   4   7 1571.49 296.940   1
  -3  -4  -7 1788.49 328.840   1
   3   4   7 899.040 290.680   1
   0   2 -10 192.660 94.3900   1
   0  -2  10 96.9000 121.810   1
   0   2 -10 90.9400 190.770   1
   0  -2  10 453.520 145.190   1
   6  -3  -7 -59.310 182.100   1
  -6   3   7 65.9200 185.320   1
  -6   3   7 59.2800 100.440   1
  -1   7  -6 3634.19 438.580   1
  -1   7  -6 1644.57 287.230   1
  -1   7  -6 3133.65 264.110   1
   7   3   0 541.160 280.900   1
   7   3   0 781.310 171.450   1
   0   8  -3 3903.64 524.660   1
   0   8  -3 2118.97 292.600   1
   0   8  -3 4104.30 297.690   1
  -5   4  -7 547.280 212.500   1
   5  -4   7 1462.05 235.410   1
  -5   4  -7 1221.36 273.080   1
  -8   2  -2 2052.42 190.630   1
   8  -2   2 1986.43 269.750   1
   4   4   6 3568.95 449.340   1
   4   4   6 1623.60 328.620   1
   4   4   6 5840.54 558.060   1
  -4  -4  -6 4837.63 591.020   1
   1   0  10 385.100 183.360   1
   1   0  10 315.870 146.000   1
  -1   0 -10 553.180 197.820   1
   2   1 -10 80.9100 124.880   1
   2   1 -10 85.2500 158.890   1
  -2  -1  10 -38.050 129.240   1
  -2  -1  10 63.8200 98.2900   1
  -5   3   8 2478.96 252.890   1
  -5   3   8 2948.27 475.470   1
   5  -3  -8 2733.74 413.530   1
   6   3   4 202.410 93.3100   1
   6   3   4 259.410 202.080   1
   6   3   4 -180.90 244.810   1
  -3   7   5 3579.31 437.320   1
   3  -7  -5 6029.32 586.160   1
  -3   7   5 3824.51 407.100   1
   7   3  -2 -223.83 254.300   1
   7   3  -2 -26.550 147.220   1
  -7   4  -4 1287.33 192.380   1
   7  -4   4 1211.12 246.350   1
  -7   4  -4 1476.16 208.370   1
  -4   8   0 1326.04 273.010   1
   4  -8   0 1692.35 298.700   1
  -4  -3  -7 5371.72 614.700   1
   4   3   7 4754.35 557.230   1
   4   3   7 4669.37 528.000   1
   1   8  -1 2015.77 342.770   1
   1   8  -1 2161.95 230.940   1
   6  -5   5 2046.18 244.220   1
  -6   5  -5 2663.12 316.170   1
  -6   5  -5 2043.02 378.760   1
   4   6  -4 4108.11 316.560   1
   4   6  -4 3066.99 463.500   1
   1   3   9 906.520 230.220   1
   1   3   9 1227.26 266.800   1
   1   3   9 860.960 337.190   1
  -1  -3  -9 650.010 282.120   1
   1   3   9 141.150 94.7000   1
   1   2 -10 854.670 241.180   1
   1   2 -10 911.450 150.180   1
  -1  -2  10 896.030 177.460   1
  -1  -2  10 664.560 141.620   1
   8  -1   2 2020.78 276.850   1
   8  -1   2 2402.43 246.030   1
   7  -2  -6 2420.16 419.510   1
  -7   2   6 2069.31 365.380   1
  -7   2   6 3566.63 270.040   1
   2  -1 -10 578.120 137.770   1
  -2   1  10 202.850 170.730   1
  -2   1  10 528.300 175.370   1
   2  -1 -10 215.820 206.080   1
   0  -8  -2 17584.9 967.250   1
   0   8   2 8860.14 823.260   1
   1   8   0 702.100 131.220   1
   1   8   0 542.070 160.330   1
  -1  -8   0 1888.75 389.170   1
  -4   8  -1 1525.28 222.290   1
   6   4  -4 61.1300 114.910   1
   6   4  -4 -6.5700 186.930   1
   3   7   1 464.580 125.090   1
  -3  -7  -1 501.660 202.470   1
  -7   0   6 2625.08 407.100   1
   7   0  -6 5007.29 415.700   1
   7   0  -6 3343.00 458.850   1
  -6   6   4 2384.64 238.130   1
   6  -6  -4 2392.37 338.430   1
  -6   6   4 701.510 252.220   1
   8   0  -3 186.700 137.900   1
  -8   0   3 214.730 124.920   1
   8   0  -3 229.500 134.600   1
   8   0  -3 196.460 149.870   1
   0   7  -6 2371.76 263.650   1
   0   7  -6 2783.56 375.100   1
  -3   8  -3 164.490 159.870   1
  -3   8  -3 121.880 147.100   1
   7   1   4 1275.85 212.660   1
   7   1   4 1444.37 376.390   1
  -3   3  -9 176.520 183.360   1
   3  -3   9 158.980 108.280   1
   3  -3   9 177.540 334.150   1
  -2   7  -6 1405.89 288.260   1
  -2   7  -6 735.840 198.580   1
  -7   5  -3 168.310 136.420   1
   7  -5   3 244.980 164.550   1
  -7   5  -3 210.970 146.940   1
   3   3  -9 1717.41 202.160   1
  -3  -3   9 1049.09 223.830   1
   3   3  -9 1261.89 276.730   1
  -7   2  -5 1919.99 206.120   1
   7  -2   5 1479.33 202.140   1
  -7   2  -5 1497.66 259.300   1
   7  -2   5 1007.79 209.370   1
  -4   8   1 137.400 125.590   1
   4  -8  -1 481.890 221.440   1
   5   2  -8 2709.53 265.510   1
  -5  -2   8 1393.40 265.720   1
   5   2  -8 3080.90 442.870   1
   0   7   5 1629.00 434.940   1
   0  -7  -5 2946.43 389.890   1
   1  -5  -8 2179.76 470.540   1
  -1   5   8 1462.78 361.010   1
  -1   5   8 832.730 320.470   1
  -1   5   8 2200.30 320.480   1
   3   1   9 1178.08 244.590   1
  -3  -1  -9 607.960 219.830   1
   3   1   9 549.290 179.960   1
   3   1   9 653.440 250.480   1
   2  -4   9 1023.14 155.570   1
  -2   4  -9 942.500 280.820   1
   2  -4   9 1761.75 208.170   1
  -2   4  -9 707.100 260.010   1
  -2   5   8 -196.55 209.070   1
  -2   5   8 -67.640 129.350   1
   2  -5  -8 -30.040 196.440   1
  -3   6  -7 1560.38 376.880   1
   3  -6   7 3017.55 325.720   1
  -3   6  -7 2304.05 365.530   1
   8  -3  -3 2479.19 283.610   1
  -8   3   3 3151.22 224.400   1
   8  -3  -3 1979.39 327.800   1
  -7   1  -5 714.010 226.990   1
   7  -1   5 716.230 155.930   1
   7  -1   5 916.750 210.890   1
  -3  -5  -6 6105.46 588.740   1
   3   5   6 2002.80 424.510   1
   3   5   6 5722.79 588.930   1
   3   5   6 4497.01 582.830   1
   2   5  -8 94.3000 116.930   1
   2   5  -8 36.1500 216.270   1
   7   2   3 123.510 114.990   1
   7   2   3 -189.22 196.470   1
   1   8  -2 4682.11 343.870   1
   1   8  -2 3967.48 469.740   1
   1  -2  10 1306.13 196.380   1
  -1   2 -10 1413.88 288.990   1
   1  -2  10 1565.16 230.980   1
  -1   2 -10 1456.20 231.130   1
   7  -4  -5 2394.04 361.920   1
  -7   4   5 4098.73 280.990   1
  -4   4  -8 2.37000 148.370   1
  -4   4  -8 -45.080 168.510   1
   4  -4   8 181.280 152.390   1
   8  -4   0 735.750 191.510   1
  -8   4   0 1065.97 176.790   1
   8  -4   0 840.300 234.210   1
   8  -4  -1 462.530 149.170   1
   8  -4  -1 415.360 251.830   1
  -8   4   1 273.300 107.960   1
   3   3   8 -32.720 210.800   1
   3   3   8 69.8000 162.850   1
  -3  -3  -8 65.1700 236.760   1
  -6  -1  -6 1923.00 295.080   1
   6   1   6 2142.93 223.930   1
   6   1   6 2253.55 268.080   1
   6   1   6 3214.97 447.330   1
   3   7  -3 912.340 273.350   1
   3   7  -3 908.200 136.960   1
  -2   8   3 752.190 232.410   1
   2  -8  -3 1742.89 306.100   1
   8  -3   2 30.0500 169.360   1
  -8   3  -2 -20.440 97.1500   1
   8  -3   2 142.000 165.670   1
   8   1  -1 -214.22 156.670   1
   8   1  -1 85.5900 169.860   1
   6  -4   6 2602.84 253.220   1
  -6   4  -6 1732.98 294.000   1
  -6   4  -6 1659.68 286.260   1
   6  -7   0 5152.53 457.280   1
  -6   7   0 4279.24 413.260   1
   7   3   1 3151.08 324.560   1
   7   3   1 3827.04 538.740   1
   7   3   1 3648.90 395.350   1
  -3   5  -8 1254.86 405.320   1
   3  -5   8 2521.07 241.660   1
  -3   5  -8 1109.59 285.690   1
  -2   6   7 76.7400 210.190   1
   2  -6  -7 -128.14 205.800   1
  -2   6   7 124.190 220.520   1
  -2   6   7 38.3500 160.740   1
   1  -8  -3 750.350 287.190   1
  -1   8   3 870.600 215.390   1
  -1  -8  -1 24.8600 228.400   1
   1   8   1 32.1700 145.340   1
   7  -6   0 3384.84 387.080   1
  -7   6   0 3559.67 366.080   1
   7  -6   0 2851.80 303.310   1
   5   3   6 1200.47 289.110   1
   5   3   6 1463.86 366.620   1
  -5  -3  -6 1822.97 327.140   1
  -1   8  -4 1747.00 325.280   1
  -1   8  -4 1350.18 244.100   1
   5   5   3 230.690 99.6900   1
  -5  -5  -3 310.570 224.660   1
   8   1   0 208.630 147.430   1
   8   1   0 240.400 292.420   1
   7   3  -3 1712.92 384.230   1
   7   3  -3 2654.17 277.360   1
   7   3  -3 2327.23 444.390   1
   1  -6  -7 756.480 280.350   1
  -1   6   7 988.960 292.350   1
  -1   6   7 239.460 237.680   1
  -1   6   7 1023.21 287.230   1
  -4   8  -2 2389.29 262.940   1
  -4   8  -2 1997.36 302.710   1
  -4   7  -5 1307.76 280.100   1
   4  -7   5 1159.98 213.780   1
  -4   7  -5 842.350 254.600   1
  -6   7   1 6253.95 509.170   1
   6  -7  -1 7624.41 650.790   1
  -6   6  -4 719.130 226.920   1
   6  -6   4 925.440 190.040   1
  -6   6  -4 1154.38 223.840   1
   3   6  -6 3765.76 297.730   1
   3   6  -6 2933.16 476.970   1
  -7   6   1 45.3700 149.610   1
   7  -6  -1 273.610 207.360   1
  -1  -1 -10 3077.63 440.190   1
   1   1  10 2941.20 357.280   1
   1   1  10 2374.83 366.720   1
  -6   7  -1 1187.77 228.430   1
   6  -7   1 1126.81 266.340   1
   4   2  -9 2704.92 285.300   1
  -4  -2   9 2562.25 282.640   1
   4   2  -9 3334.62 426.600   1
   8   1  -2 5975.54 592.530   1
   8   1  -2 6370.54 539.340   1
   8   1  -2 5393.85 656.030   1
   6   3  -6 1436.71 228.030   1
  -6  -3   6 825.290 218.340   1
   6   3  -6 1213.95 301.760   1
  -2   8  -4 1580.74 267.400   1
  -2   8  -4 2364.35 381.580   1
  -8   1   4 83.2500 110.560   1
   8  -1  -4 -56.840 147.050   1
  -8   1   4 16.9900 129.230   1
   8  -1  -4 142.320 186.440   1
  -7   5   4 2845.44 210.700   1
   7  -5  -4 2616.50 375.380   1
   2   7  -5 565.640 246.900   1
   2   7  -5 704.730 139.780   1
   2   4   8 454.470 203.410   1
   2   4   8 1345.85 319.120   1
  -2  -4  -8 1878.46 330.840   1
   2   5   7 947.960 305.600   1
  -2  -5  -7 2214.52 316.240   1
   2   5   7 2730.32 389.040   1
   2   5   7 2103.27 443.980   1
   1  -2 -10 1646.83 257.230   1
  -1   2  10 2089.06 331.450   1
  -1   2  10 384.620 122.230   1
   1  -2 -10 2223.77 386.090   1
  -1   2  10 1383.83 307.770   1
   8   0   2 145.410 133.140   1
   8   0   2 179.020 211.220   1
   8  -4   1 82.9900 145.670   1
   8  -4   1 189.900 204.080   1
  -8   4  -1 -16.330 109.120   1
   8  -4  -2 27.5600 195.630   1
   8  -4  -2 123.060 116.300   1
  -8   4   2 243.920 106.670   1
  -2  -4   9 -97.570 111.440   1
   2   4  -9 -53.260 184.580   1
   2   4  -9 -162.20 119.650   1
  -7   3  -5 9346.38 760.050   1
   7  -3   5 10669.9 477.540   1
  -7   3  -5 10090.8 387.070   1
  -8   2   4 479.970 181.160   1
   8  -2  -4 529.910 263.040   1
  -8   2   4 1287.76 164.350   1
   2   2 -10 680.580 156.620   1
  -2  -2  10 685.890 143.500   1
  -2  -2  10 401.630 134.460   1
   2   2 -10 622.080 233.230   1
   7   2  -5 1558.44 202.170   1
  -7  -2   5 1003.25 195.050   1
   7   2  -5 1386.85 327.830   1
  -4  -5  -5 428.430 244.350   1
   4   5   5 798.020 253.150   1
   4   5   5 410.940 225.750   1
   4   5   5 280.100 93.3300   1
   4   5   5 229.220 118.800   1
   7  -6   1 2035.98 302.700   1
  -7   6  -1 2278.16 302.170   1
   7  -6   1 2174.59 283.940   1
   0   5   8 1409.75 333.280   1
   0  -5  -8 1413.33 271.930   1
   0   5   8 920.970 289.480   1
   0   5   8 526.490 196.980   1
   1  -4  -9 5637.34 501.100   1
  -1   4   9 4888.15 577.940   1
  -1   4   9 1957.41 388.440   1
  -3   0  10 1766.69 262.250   1
   3   0 -10 2863.90 384.340   1
   3   0 -10 2518.17 268.540   1
  -3   0  10 1911.63 306.500   1
  -3   8   3 53.3900 147.450   1
   3  -8  -3 -228.77 253.010   1
  -7   3   6 1988.15 185.580   1
  -7   3   6 1157.52 274.850   1
   7  -3  -6 1248.67 285.880   1
   6   2  -7 2544.20 240.560   1
  -6  -2   7 1104.03 271.220   1
   6   2  -7 2532.77 423.230   1
  -4   8   2 392.970 135.400   1
   4  -8  -2 562.100 222.640   1
  -4   8   2 -38.070 118.270   1
  -5   1  -8 1048.71 246.910   1
   5  -1   8 1554.34 195.050   1
   5  -1   8 2303.52 252.440   1
  -3   5   8 189.480 152.910   1
  -3   5   8 918.740 286.860   1
   3  -5  -8 803.070 274.920   1
   2   6  -7 2527.30 424.380   1
   2   6  -7 3248.99 283.400   1
   4   6   3 992.010 173.400   1
  -4  -6  -3 910.680 295.180   1
   5   4   5 221.400 97.7400   1
  -5  -4  -5 395.760 281.350   1
   5   4   5 845.140 231.200   1
   5   4   5 308.350 188.760   1
  -2   4   9 1823.10 385.910   1
   2  -4  -9 2432.01 311.330   1
  -2   4   9 687.740 205.920   1
   4   2   8 1082.64 278.580   1
   4   2   8 827.910 212.410   1
   4   2   8 962.230 223.590   1
  -4  -2  -8 1003.57 273.440   1
   7   0   5 93.5200 200.190   1
   7   0   5 363.000 114.350   1
   5   5  -5 1484.22 167.190   1
   5   5  -5 733.750 279.940   1
  -5   2  -8 123.410 186.960   1
   5  -2   8 182.070 161.060   1
  -5   7  -4 6567.80 497.000   1
  -5   7  -4 5293.65 560.880   1
   5  -7   4 5747.35 454.990   1
   3   7   2 3860.71 346.350   1
  -3  -7  -2 2853.47 394.020   1
  -2   2  10 387.500 130.470   1
   2  -2 -10 1006.40 183.060   1
  -2   2  10 941.690 240.900   1
  -2   2  10 1371.64 339.150   1
   2  -2 -10 1583.98 332.010   1
   1   8  -3 2606.64 370.260   1
   1   8  -3 2578.54 246.510   1
   2  -1  10 121.070 129.660   1
   2  -1  10 -9.0400 151.630   1
  -2   1 -10 1.85000 202.940   1
   0  -2 -10 1183.86 308.070   1
   0   2  10 496.110 240.220   1
   0   2  10 795.390 223.380   1
   0   8  -4 6856.48 617.260   1
   0   8  -4 5429.07 385.900   1
   5  -7  -4 453.850 236.020   1
  -5   7   4 352.580 138.360   1
   1   7  -6 1898.27 185.930   1
   1   7  -6 1858.38 325.960   1
   0   3 -10 1728.79 263.240   1
   0   3 -10 1393.52 205.080   1
   0  -3  10 1724.51 208.840   1
   0  -3  10 1397.82 224.230   1
   5   2   7 701.930 240.960   1
   5   2   7 870.730 225.100   1
  -5  -2  -7 1115.45 278.070   1
  -4   7   5 1254.14 278.740   1
   4  -7  -5 1085.76 297.510   1
  -4   7   5 842.090 209.010   1
  -3   6   7 2533.23 461.960   1
  -3   6   7 3505.30 617.570   1
   3  -6  -7 4330.79 483.770   1
  -3   1  10 1312.64 262.800   1
  -3   1  10 680.280 245.540   1
   3  -1 -10 1572.45 204.920   1
   3  -1 -10 1410.33 359.070   1
   7   1  -6 646.270 172.340   1
  -7  -1   6 565.080 176.850   1
   7   1  -6 704.610 240.000   1
   8   1   1 290.200 185.170   1
   8   1   1 278.710 138.500   1
   4  -3  -9 1014.05 280.240   1
  -4   3   9 1223.92 288.350   1
  -4   3   9 513.980 166.290   1
   4  -3  -9 1159.49 188.840   1
  -4   3   9 351.490 302.420   1
  -7   6   2 1380.13 202.410   1
   7  -6  -2 1419.76 368.020   1
   5  -5  -7 381.650 222.870   1
  -5   5   7 269.660 142.870   1
   3  -7   6 425.040 131.310   1
  -3   7  -6 87.2200 184.720   1
  -3   7  -6 177.710 212.320   1
   6   4   3 831.130 152.690   1
   6   4   3 1513.06 335.250   1
   8  -2   3 3313.66 391.160   1
  -8   2  -3 3441.81 272.440   1
   6  -7  -2 1615.03 341.330   1
  -6   7   2 859.900 185.090   1
  -6   5   6 260.530 117.430   1
   6  -5  -6 -98.470 243.990   1
   3   1 -10 13.3600 167.020   1
  -3  -1  10 162.430 129.060   1
  -3  -1  10 132.470 113.190   1
   3   1 -10 9.48000 111.930   1
  -8   0   4 721.930 203.050   1
   8   0  -4 1196.27 215.240   1
   8   0  -4 632.680 224.340   1
   6  -1  -8 710.960 416.740   1
   6  -1  -8 779.590 177.410   1
  -6   1   8 673.580 150.420   1
  -6   1   8 947.790 210.420   1
   2   0  10 453.160 173.920   1
   2   0  10 321.930 134.490   1
  -2   0 -10 324.090 208.830   1
   0   6   7 213.440 164.520   1
   0   6   7 -45.070 197.310   1
   0  -6  -7 -158.09 235.380   1
  -6   7  -2 -55.890 145.510   1
   6  -7   2 192.420 139.180   1
   0  -8  -3 3178.25 397.810   1
   0   8   3 1893.62 341.420   1
   8  -1   3 3216.80 366.920   1
   8  -1   3 3293.05 300.380   1
   8   1  -3 1513.07 239.480   1
   8   1  -3 1232.00 268.160   1
   6  -2   7 1281.19 218.760   1
  -6   2  -7 766.210 196.390   1
   6  -1   7 885.780 209.000   1
  -6   1  -7 445.910 197.020   1
   6  -1   7 810.940 241.090   1
   1   3 -10 810.460 164.440   1
  -1  -3  10 901.330 147.580   1
  -1  -3  10 910.910 179.540   1
   1   3 -10 729.300 209.150   1
   0   4   9 -212.20 180.980   1
   0   4   9 -74.700 86.5300   1
   0   4   9 45.9400 243.750   1
   0  -4  -9 325.150 239.260   1
   7   3   2 852.240 271.970   1
   7   3   2 41.0700 258.510   1
   7   3   2 503.990 135.720   1
   2  -2  10 2804.32 284.250   1
   2  -2  10 3740.22 371.070   1
  -2   2 -10 2802.82 380.300   1
   1   8   2 163.580 202.960   1
  -1  -8  -2 705.880 243.630   1
   6   0  -8 398.430 223.150   1
   6   0  -8 233.890 138.400   1
  -6   0   8 205.580 143.440   1
   4  -1   9 -16.780 111.220   1
   4  -1   9 -219.11 168.080   1
  -4   1  -9 -20.120 185.980   1
   1  -3  10 2189.64 239.060   1
  -1   3 -10 2309.48 262.050   1
  -1   3 -10 2275.69 303.230   1
   1  -3  10 2619.94 261.520   1
   5   0   8 320.200 218.170   1
  -5   0  -8 -105.98 150.460   1
   5   0   8 -138.79 179.130   1
   5   0   8 70.6800 105.580   1
  -3   8  -4 650.250 202.520   1
  -3   8  -4 236.610 170.720   1
   3   7  -4 4589.74 541.470   1
   3   7  -4 2749.82 258.720   1
   8  -3  -4 263.370 165.060   1
  -8   3   4 215.600 115.960   1
  -8   3   4 268.700 169.150   1
   5  -1  -9 336.300 147.240   1
  -5   1   9 685.760 232.160   1
   5  -1  -9 280.780 261.240   1
   4   6  -5 74.5700 197.290   1
   4   6  -5 297.810 115.680   1
   5   0  -9 881.300 294.150   1
  -5   0   9 1413.33 229.790   1
   5   0  -9 1043.05 204.420   1
   6  -4  -7 1554.36 312.290   1
  -6   4   7 2171.16 447.070   1
  -6   4   7 1507.02 213.340   1
  -2  -7  -4 368.380 274.060   1
   2   7   4 301.500 158.320   1
   5   6  -1 242.030 112.480   1
  -5  -6   1 -64.310 149.120   1
   1  -6   8 1861.39 237.970   1
  -1   6  -8 1722.22 316.630   1
  -1   6  -8 2038.92 243.400   1
  -4   8  -3 269.160 151.440   1
  -4   8  -3 275.820 149.700   1
   6   4  -5 558.440 233.300   1
   6   4  -5 381.660 133.380   1
   8  -4   2 2069.90 312.090   1
   8  -4   2 2078.27 276.900   1
  -8   4  -2 2183.05 211.890   1
  -5   6   6 1522.77 379.330   1
  -5   6   6 2417.51 316.690   1
   5  -6  -6 2188.31 322.120   1
   7  -6   2 2576.46 336.170   1
  -7   6  -2 3162.44 390.690   1
   7  -6   2 3759.05 459.850   1
  -8   4   3 845.140 153.800   1
   8  -4  -3 757.960 259.780   1
   6   5  -1 1521.16 203.780   1
  -6  -5   1 1366.69 267.360   1
   4  -2   9 1482.10 191.710   1
  -4   2  -9 1464.95 257.200   1
   4  -2   9 2137.28 250.790   1
  -1  -7  -5 221.540 239.720   1
   1   7   5 86.1100 191.540   1
   0   6  -8 2087.33 381.010   1
   0   6  -8 1965.04 231.130   1
   7   3  -4 1728.29 240.500   1
   7   3  -4 1362.13 323.450   1
   7   3  -4 1071.36 322.090   1
   8  -3   3 1312.85 244.210   1
   8  -3   3 1215.83 212.050   1
  -8   3  -3 1687.02 178.270   1
   4   4  -8 906.290 286.690   1
  -4  -4   8 958.540 190.670   1
   4   4  -8 1074.11 195.430   1
   2   3   9 625.150 223.910   1
   2   3   9 410.670 248.310   1
   2   3   9 1059.56 303.950   1
  -2  -3  -9 824.070 287.280   1
   2   6   6 2396.37 344.150   1
  -2  -6  -6 3190.01 443.650   1
   2   6   6 1404.35 368.590   1
   6  -2  -8 86.0400 245.710   1
   6  -2  -8 402.950 146.790   1
  -6   2   8 343.520 193.160   1
  -6   2   8 171.260 172.900   1
  -5   3  -8 1267.15 269.940   1
   5  -3   8 2671.98 364.350   1
   5   6   0 40.8000 103.200   1
  -5  -6   0 97.2300 137.480   1
  -3   4   9 1860.96 408.910   1
   3  -4  -9 2352.30 352.520   1
  -3   4   9 1695.08 251.790   1
  -3   4  -9 710.780 252.280   1
   3  -4   9 1172.77 232.280   1
  -3   4  -9 559.740 240.230   1
   3   6   5 287.960 138.010   1
   3   6   5 468.960 205.390   1
  -3  -6  -5 1032.61 313.570   1
  -5   4   8 992.380 301.450   1
  -5   4   8 1153.84 222.640   1
   5  -4  -8 1289.13 253.920   1
   0   5  -9 239.170 118.060   1
   0  -5   9 148.700 112.470   1
   0   5  -9 -387.54 232.700   1
   5   6  -2 199.510 130.230   1
   5   6  -2 378.650 116.960   1
  -7   5  -4 4006.06 407.090   1
   7  -5   4 4033.12 369.500   1
  -7   5  -4 4773.68 436.330   1
  -2   7   6 1358.69 384.130   1
  -2   7   6 2230.07 315.990   1
   2  -7  -6 3005.31 377.940   1
  -2   7   6 3082.24 408.890   1
   6   5   0 2105.70 246.970   1
   5  -6   6 703.120 182.360   1
  -5   6  -6 489.730 235.280   1
  -5   6  -6 193.110 204.220   1
   3   2   9 1384.71 304.250   1
   3   2   9 1183.46 298.430   1
  -3  -2  -9 1595.35 375.400   1
   3   2   9 1654.25 272.160   1
  -1   5  -9 196.630 208.750   1
  -1   5  -9 251.610 122.900   1
   1  -5   9 188.200 117.040   1
   6   5  -2 195.920 126.400   1
   6   5  -2 471.440 138.130   1
   5  -8   0 2118.20 316.750   1
  -5   8   0 2248.99 260.980   1
   5  -5   7 -108.87 151.880   1
  -5   5  -7 80.8800 156.490   1
  -5   5  -7 133.270 206.890   1
   2   8  -1 1796.68 212.230   1
   2   8  -1 2042.80 321.980   1
  -4   0  -9 2476.64 365.360   1
   4   0   9 2553.17 287.600   1
   4   0   9 3351.44 380.980   1
  -1   7   6 1348.55 328.050   1
   1  -7  -6 3650.53 418.390   1
  -1   7   6 2228.78 301.680   1
  -6   6   5 7738.04 626.270   1
   6  -6  -5 6247.74 638.030   1
  -6   6   5 2181.19 486.400   1
  -7   4  -5 -0.4500 100.410   1
  -7   4  -5 -41.770 171.280   1
   7  -4   5 95.3700 160.470   1
  -6   3  -7 513.780 226.340   1
   6  -3   7 445.230 211.110   1
  -2   8   4 -340.47 169.700   1
   2  -8  -4 -269.47 234.810   1
   4   5  -7 4292.93 345.510   1
   4   5  -7 2276.46 505.470   1
   5   4  -7 1291.29 181.170   1
   5   4  -7 1281.80 301.590   1
  -5  -4   7 1676.49 201.690   1
  -3   2  10 335.390 194.730   1
   3  -2 -10 695.260 162.660   1
   3  -2 -10 407.370 253.850   1
  -3   2  10 505.870 242.000   1
  -3   2  10 464.260 137.330   1
  -2  -8   0 259.340 239.890   1
   2   8   0 209.780 122.470   1
   5  -8   1 2600.03 394.050   1
  -5   8  -1 1587.46 237.340   1
   6   0   7 1118.73 251.800   1
   6   0   7 630.820 142.090   1
  -6   0  -7 511.220 180.850   1
   6   0   7 960.860 254.340   1
   1   2  10 318.460 224.030   1
  -1  -2 -10 490.670 235.840   1
   1   2  10 283.280 177.650   1
  -4   8   3 250.090 157.560   1
  -4   8   3 562.920 182.720   1
   4  -8  -3 687.580 294.660   1
  -4   6  -7 4427.15 502.130   1
  -4   6  -7 3810.71 612.130   1
   4  -6   7 5888.87 502.630   1
  -5   2   9 508.880 231.340   1
   5  -2  -9 354.120 133.550   1
  -5   2   9 316.500 114.160   1
   5  -2  -9 494.140 244.350   1
   7  -6  -3 7525.44 691.620   1
  -7   6   3 8081.05 591.810   1
   7   2   4 1947.32 373.490   1
   7   2   4 1398.03 196.810   1
   2  -6   8 520.040 139.340   1
  -2   6  -8 -52.800 200.700   1
  -2   6  -8 -120.96 144.980   1
   8   0   3 111.780 132.070   1
   8   0   3 126.900 234.970   1
  -5   8   1 1211.56 244.090   1
   5  -8  -1 1494.33 232.910   1
   8   1   2 2102.82 388.800   1
   8   1   2 2404.56 316.730   1
   6   3   5 805.450 289.320   1
   6   3   5 474.550 125.730   1
   1   5   8 768.320 281.320   1
  -1  -5  -8 964.670 271.280   1
   1   5   8 1104.45 379.330   1
   1   5   8 117.860 188.000   1
   2   1  10 89.9600 194.560   1
  -2  -1 -10 141.730 196.280   1
   2   1  10 -53.820 151.310   1
   8  -5   0 6265.67 594.020   1
   8  -5   0 4770.57 429.300   1
  -8   5   0 6126.13 493.460   1
   5   1  -9 385.090 130.070   1
  -5  -1   9 281.240 142.450   1
   5   1  -9 473.540 234.580   1
  -7   1   7 61.9500 93.5600   1
   7  -1  -7 -10.440 134.570   1
   7  -1  -7 -79.320 188.860   1
  -7   1   7 20.4600 143.920   1
  -1   8   4 681.680 226.870   1
   1  -8  -4 861.820 275.440   1
  -5  -3   8 370.410 132.360   1
   5   3  -8 363.290 170.050   1
   5   3  -8 334.770 192.740   1
   2   8  -2 3616.25 328.230   1
   2   8  -2 3061.53 432.640   1
   6  -7  -3 901.980 271.230   1
  -6   7   3 724.180 174.430   1
  -1   8  -5 1718.90 314.230   1
  -1   8  -5 1134.00 183.280   1
  -1   8  -5 531.870 176.240   1
   8  -5  -1 567.290 232.180   1
   8  -5  -1 340.640 136.300   1
  -8   5   1 341.660 120.600   1
   1   8  -4 1369.48 270.940   1
   1   8  -4 1041.34 193.150   1
   3   5  -8 244.810 130.660   1
   3   5  -8 24.2300 231.290   1
  -6  -2  -6 640.110 251.080   1
  -4   5   8 888.810 329.380   1
  -4   5   8 399.130 173.930   1
   4  -5  -8 1020.47 275.430   1
  -8   1   5 96.4100 104.050   1
   8  -1  -5 -136.86 146.830   1
  -8   1   5 48.3900 129.530   1
   8  -1  -5 6.83000 200.790   1
   6   1  -8 429.390 204.040   1
  -6  -1   8 188.100 122.280   1
   6   1  -8 180.930 130.500   1
   3   2 -10 1049.51 198.580   1
  -3  -2  10 1017.79 218.500   1
   3   2 -10 1871.71 273.810   1
  -3   7   6 1690.65 257.240   1
   3  -7  -6 1537.29 364.370   1
  -3   7   6 404.230 277.280   1
  -3   7   6 968.170 325.440   1
  -5  -6  -1 5416.32 673.570   1
   5   6   1 3872.08 329.830   1
   2   3 -10 633.670 169.250   1
   2   3 -10 833.200 226.380   1
  -2  -3  10 208.890 127.430   1
   8   2  -1 518.660 230.240   1
   8   2  -1 573.500 184.150   1
   8   2  -1 591.810 246.650   1
   7   1   5 1209.16 241.790   1
   7   1   5 873.110 185.990   1
  -6   5  -6 211.210 156.310   1
   6  -5   6 191.470 185.150   1
  -6   5  -6 228.260 222.140   1
   1   5  -9 1950.76 230.630   1
   1   5  -9 1544.59 414.210   1
   4  -6  -7 1316.73 282.720   1
  -4   6   7 1450.86 292.500   1
  -1   7  -7 707.650 216.960   1
  -1   7  -7 1341.61 157.540   1
  -1   7  -7 779.910 306.250   1
   5   5   4 1612.33 205.430   1
   5   5   4 1682.59 327.020   1
   5   5   4 2431.52 416.820   1
  -5  -5  -4 2489.95 377.700   1
  -8   2   5 6050.24 428.700   1
   8  -2  -5 4251.27 560.330   1
  -8   2   5 2285.99 397.890   1
   1   6  -8 1379.83 348.580   1
   1   6  -8 2145.82 220.090   1
  -2   8  -5 3312.39 447.210   1
  -2   8  -5 1963.76 336.920   1
  -6   7  -3 890.450 204.870   1
  -6   7  -3 870.840 214.760   1
   6  -7   3 981.790 245.410   1
  -3  -7  -3 2528.83 363.410   1
   3   7   3 2076.77 237.270   1
   3   7   3 664.830 228.510   1
  -4   5  -8 1784.19 477.080   1
   4  -5   8 3961.65 359.600   1
  -4   5  -8 2566.42 376.040   1
   6   5   1 280.730 116.760   1
   5   6  -3 2172.64 374.600   1
   5   6  -3 1793.41 206.720   1
   7  -4  -6 1045.64 270.490   1
  -7   4   6 1056.18 358.430   1
  -7   4   6 2072.47 201.620   1
   4  -3   9 1553.35 189.690   1
   4  -3   9 2479.58 273.680   1
  -4   3  -9 1744.58 325.690   1
  -7   5   5 5227.29 394.050   1
   7  -5  -5 3612.90 475.320   1
   8   1  -4 1632.04 224.540   1
  -8  -1   4 722.900 194.800   1
   3  -8  -4 2235.32 370.660   1
  -3   8   4 1512.12 300.790   1
  -2   3 -10 352.040 183.180   1
   2  -3  10 564.030 161.000   1
   2  -3  10 276.130 120.610   1
   7  -2  -7 1533.99 225.810   1
  -7   2   7 1657.77 203.660   1
   7  -2  -7 1423.21 297.730   1
  -7   2   7 790.150 271.330   1
   4   3  -9 496.600 139.230   1
  -4  -3   9 406.030 133.840   1
   4   3  -9 280.520 217.750   1
   6   5  -3 75.7900 119.650   1
   6   5  -3 24.4000 127.690   1
  -1   3  10 98.5900 130.090   1
  -1   3  10 365.970 233.600   1
  -1   3  10 504.330 202.250   1
   1  -3 -10 305.570 242.820   1
   4   7  -1 541.820 134.280   1
   3   4  -9 499.360 149.630   1
  -3  -4   9 418.630 128.080   1
   3   4  -9 250.960 186.190   1
   8   2   0 2865.44 420.000   1
   8   2   0 3816.32 393.530   1
   8   2   0 3652.50 435.820   1
   7   0  -7 837.850 189.360   1
  -7   0   7 641.020 176.940   1
  -6   6  -5 194.280 199.800   1
   6  -6   5 156.680 148.650   1
  -6   6  -5 139.120 168.740   1
  -2  -8  -1 858.370 232.430   1
   2   8   1 691.550 150.630   1
   2   8   1 436.530 172.760   1
   2  -5   9 1193.51 213.380   1
  -2   5  -9 727.580 262.360   1
  -2   5  -9 708.760 252.600   1
  -8   5  -1 1470.35 176.230   1
   8  -5   1 1280.49 288.780   1
   8  -5   1 1023.53 228.810   1
   8   2  -2 1021.70 207.660   1
   8   2  -2 691.100 241.400   1
   8   2  -2 609.280 203.260   1
   1   4   9 745.660 260.880   1
  -1  -4  -9 602.660 269.940   1
   1   4   9 573.980 295.000   1
  -5   8  -2 830.790 187.300   1
  -5   8  -2 501.360 171.190   1
   0   7  -7 268.170 253.210   1
   0   7  -7 182.610 127.670   1
   1   6   7 -55.570 164.440   1
  -1  -6  -7 739.820 276.210   1
   1   6   7 250.480 211.880   1
   8  -5  -2 1386.99 299.110   1
  -8   5   2 2211.03 214.570   1
   5   1   8 671.860 184.020   1
   5   1   8 870.430 267.260   1
  -5  -1  -8 793.440 246.190   1
   5   1   8 813.350 255.720   1
  -4  -7   0 55.6400 158.300   1
   4   7   0 -157.49 104.840   1
   0   8  -5 2254.71 379.410   1
   0   8  -5 2297.00 229.350   1
  -2   3  10 215.590 207.470   1
   2  -3 -10 366.290 137.410   1
   2  -3 -10 226.120 253.170   1
  -2   3  10 49.4000 90.4700   1
  -2   3  10 73.7300 230.420   1
   2   7  -6 165.210 222.180   1
   2   7  -6 128.450 112.060   1
  -7   2  -6 532.110 184.240   1
   7  -2   6 476.650 176.470   1
   7  -2   6 613.050 213.370   1
  -7   6  -3 2782.70 262.790   1
   7  -6   3 2136.75 301.430   1
  -7   6  -3 2270.07 312.430   1
   0  -7  -6 1903.87 344.660   1
   0   7   6 1715.25 271.330   1
   0   7   6 928.000 286.780   1
   4   0 -10 759.670 169.010   1
  -4   0  10 1106.65 247.570   1
   4   0 -10 535.610 215.860   1
   4   7  -2 2156.17 326.280   1
   4   7  -2 2068.40 226.270   1
   7   4  -1 1286.75 184.180   1
  -2   7  -7 1694.00 348.910   1
  -2   7  -7 2790.48 396.660   1
   2  -7   7 3970.57 381.840   1
  -4  -6  -4 124.000 340.720   1
   4   6   4 139.290 98.2200   1
  -7  -2   6 472.920 161.010   1
   7   2  -6 840.580 192.500   1
   7   2  -6 463.530 237.180   1
   5  -8  -2 67.2500 210.760   1
  -5   8   2 87.5800 124.280   1
  -1  -8  -3 2081.81 378.520   1
   1   8   3 658.890 281.110   1
  -6   3   8 1216.11 175.530   1
   6  -3  -8 919.500 315.720   1
  -6   3   8 915.000 281.420   1
  -8   0   5 748.920 209.460   1
   8   0  -5 763.420 264.580   1
   8   0  -5 1456.98 217.270   1
  -8   4  -3 9472.22 418.950   1
   8  -4   3 8578.34 717.710   1
   8  -4   3 8269.94 628.880   1
   7  -1   6 553.050 128.780   1
   7  -1   6 969.690 232.230   1
   7  -1   6 576.530 202.600   1
  -7   1  -6 386.140 185.850   1
  -8   4   4 1402.20 151.300   1
   8  -4  -4 624.500 259.900   1
  -4   7  -6 1405.09 257.250   1
   4  -7   6 1187.02 260.180   1
  -4   7  -6 935.380 300.470   1
   7   3   3 355.570 143.960   1
   7   3   3 584.590 380.430   1
   7   3   3 767.910 230.540   1
   4  -1 -10 75.8100 128.190   1
  -4   1  10 107.270 169.070   1
   4  -1 -10 147.570 201.910   1
  -5   7  -5 2277.49 391.910   1
   5  -7   5 3325.60 335.880   1
  -5   7  -5 3587.29 448.190   1
  -4  -4  -7 2297.68 421.790   1
   4   4   7 1589.03 431.740   1
   4   4   7 1189.92 298.700   1
   2   8  -3 3450.14 427.530   1
   2   8  -3 3321.49 305.570   1
   8  -2   4 779.210 223.510   1
  -8   2  -4 796.110 145.970   1
  -4   8  -4 1006.95 249.740   1
  -4   8  -4 1370.70 218.090   1
   5   5  -6 789.560 248.740   1
   5   5  -6 995.340 185.280   1
   7   4   0 964.130 403.710   1
   7   4   0 1239.59 182.500   1
   0   3  10 -1.2700 241.050   1
   0  -3 -10 3.54000 224.110   1
   0   3  10 306.610 184.620   1
   7   4  -2 1684.89 199.900   1
   5  -7  -5 334.560 248.820   1
  -5   7   5 1047.06 216.070   1
  -3   1 -10 -118.42 203.170   1
   3  -1  10 -59.360 128.710   1
   3  -1  10 -217.53 207.020   1
   4   1   9 -16.230 125.130   1
  -4  -1  -9 -122.98 197.150   1
   4   1   9 5.82000 215.930   1
   4   1   9 133.200 192.550   1
   6   4   4 597.950 149.680   1
   6   4   4 559.200 287.870   1
   6   4   4 1357.75 291.300   1
   3   7  -5 291.860 205.710   1
   3   7  -5 364.630 110.900   1
   0   4 -10 1620.86 205.490   1
   0  -4  10 1437.62 183.030   1
   0   4 -10 1326.35 242.300   1
   0  -4  10 1720.94 219.410   1
   0  -8  -4 3389.28 467.480   1
   0   8   4 2964.45 445.720   1
   3   6  -7 60.1700 116.590   1
   3   6  -7 140.180 223.530   1
  -6  -3   7 960.310 219.120   1
   6   3  -7 1417.24 176.170   1
   6   3  -7 999.530 269.490   1
  -5   4  -8 1918.61 303.880   1
   5  -4   8 2798.35 292.130   1
   8  -1   4 2313.67 302.750   1
   8  -1   4 2648.07 283.530   1
   8  -3  -5 2681.64 371.570   1
  -8   3   5 1867.68 307.370   1
  -8   3   5 3969.51 291.310   1
   8   2   1 305.280 128.190   1
   8   2   1 309.510 203.750   1
   7   3  -5 1349.71 171.120   1
   7   3  -5 847.230 317.560   1
  -4   4   9 157.540 234.710   1
  -4   4   9 141.580 116.070   1
   4  -4  -9 575.170 231.130   1
  -2   9   0 1858.11 318.280   1
   2  -9   0 3443.41 467.180   1
   3   4   8 1550.54 361.090   1
   3   4   8 1696.99 456.290   1
  -3  -4  -8 2483.20 431.270   1
  -2   9  -1 -26.430 150.360   1
   8   2  -3 274.030 138.390   1
   8   2  -3 176.970 165.020   1
  -3   8  -5 43.8700 159.830   1
  -3   8  -5 306.370 203.720   1
   3  -2  10 1381.82 220.760   1
   3  -2  10 1058.27 214.130   1
  -3   2 -10 760.940 280.320   1
  -7   3  -6 547.700 187.740   1
   7  -3   6 489.110 216.910   1
  -7   3  -6 414.140 124.320   1
  -6   4  -7 303.540 159.990   1
  -6   4  -7 876.070 247.460   1
   6  -4   7 732.980 193.170   1
  -4  -1  10 53.3500 138.240   1
   4   1 -10 327.160 182.520   1
   4   1 -10 -174.52 114.900   1
   1  -4  10 3301.79 292.220   1
   1  -4  10 4022.76 339.480   1
  -1   4 -10 3774.36 351.120   1
  -1   4 -10 3637.99 397.270   1
   4   7   1 275.120 118.140   1
  -4  -7  -1 122.560 148.130   1
  -3  -5  -7 1164.28 293.840   1
   3   5   7 671.850 260.550   1
   3   5   7 538.410 203.880   1
   3   5   7 1330.24 270.860   1
  -1   9  -1 1621.74 267.040   1
   3  -6   8 -41.560 135.530   1
  -3   6  -8 -155.35 202.240   1
  -3   6  -8 1.28000 199.140   1
  -6  -1  -7 536.660 192.510   1
   6   1   7 1024.44 276.150   1
   6   1   7 748.620 167.120   1
   4   3   8 269.160 155.290   1
  -4  -3  -8 78.3200 209.140   1
   4   3   8 18.6600 220.970   1
  -1   9   0 102.130 154.760   1
   1  -9   0 216.940 309.750   1
  -5   3   9 968.770 224.460   1
  -5   3   9 1419.72 353.970   1
   5  -3  -9 1792.36 236.320   1
   5  -3  -9 1497.95 313.040   1
  -3   0 -10 2280.40 396.060   1
   3   0  10 1870.02 265.020   1
   3   0  10 2902.89 345.490   1
   5   6   2 1387.75 196.750   1
  -5  -6  -2 2910.71 434.630   1
   8  -5   2 335.240 228.040   1
   8  -5   2 256.720 161.220   1
  -8   5  -2 83.8200 126.730   1
  -8   3  -4 7696.35 538.090   1
   8  -3   4 6743.10 544.060   1
   4   7  -3 528.210 219.000   1
   4   7  -3 616.920 133.910   1
  -1   0  11 91.6200 137.570   1
   1   0 -11 -63.420 185.530   1
  -1   0  11 229.350 147.610   1
   1   0 -11 246.400 111.770   1
  -7   3   7 3609.55 284.990   1
  -7   3   7 1569.29 372.490   1
   7  -3  -7 1931.93 392.420   1
   4   6  -6 231.850 120.820   1
   4   6  -6 199.210 192.420   1
   1   4 -10 78.8400 218.650   1
  -1  -4  10 103.290 130.840   1
   1   4 -10 9.43000 112.330   1
  -1  -4  10 12.7000 126.680   1
   4   5   6 160.400 173.220   1
   4   5   6 538.110 253.680   1
   4   5   6 50.0900 133.880   1
   6   5   2 -20.550 113.070   1
   4  -7  -6 -377.29 224.670   1
  -4   7   6 -59.870 169.600   1
  -7   6   4 1539.36 192.890   1
   7  -6  -4 1422.83 321.010   1
   6   4  -6 190.410 117.830   1
   6   4  -6 156.380 216.650   1
   5   2  -9 673.710 268.040   1
   5   2  -9 795.130 178.880   1
  -5  -2   9 256.140 143.900   1
   5   6  -4 1721.60 324.580   1
   5   6  -4 2519.41 229.890   1
  -7  -1   7 699.680 220.710   1
   7   1  -7 944.070 278.620   1
   7   1  -7 807.930 180.060   1
  -1  -1  11 -2.3200 144.650   1
  -1  -1  11 36.9200 122.180   1
   1   1 -11 -33.420 109.050   1
   1   1 -11 -9.1900 176.230   1
   0  -1  11 1768.35 293.220   1
   0  -1  11 2004.48 261.890   1
   0   1 -11 2666.46 327.990   1
   2   8   2 102.630 145.990   1
  -2  -8  -2 -141.02 169.700   1
   2   8   2 230.900 108.440   1
   8   1   3 2054.95 347.890   1
   8   1   3 1903.43 255.480   1
   3  -3 -10 -92.130 242.130   1
  -3   3  10 116.430 96.0500   1
  -3   3  10 244.580 222.220   1
   3  -3 -10 126.260 141.430   1
  -3   3  10 151.220 213.700   1
   8  -5  -3 863.360 299.690   1
  -8   5   3 1130.09 148.280   1
   0   0  11 2743.34 354.250   1
   0   0 -11 2624.20 378.910   1
   0   0  11 2364.65 293.430   1
   5   3   7 306.360 248.210   1
   5   3   7 383.260 226.350   1
  -5  -3  -7 633.620 257.120   1
   1   7  -7 193.700 119.400   1
   1   7  -7 468.490 233.970   1
   6   5  -4 -35.430 166.710   1
   6   5  -4 359.560 143.630   1
   7   4   1 418.280 301.170   1
   7   4   1 406.100 145.900   1
   7   0   6 427.660 216.870   1
  -2   9   1 84.6100 167.450   1
   2  -9  -1 394.430 261.130   1
   5   4   6 140.340 297.910   1
   5   4   6 51.2500 162.600   1
  -5  -4  -6 260.120 210.250   1
   5   4   6 66.5500 111.120   1
  -4   8   4 1274.51 236.390   1
  -4   8   4 831.700 252.960   1
   4  -8  -4 1491.25 306.580   1
   7   4  -3 698.860 202.150   1
   2   5  -9 928.940 397.910   1
   2   5  -9 1287.13 189.710   1
  -5   8  -3 793.760 261.890   1
  -5   8  -3 1127.87 185.130   1
  -2   9  -2 1900.83 281.010   1
  -2   9  -2 2585.79 338.480   1
  -4   2  10 254.520 106.700   1
   4  -2 -10 176.780 227.240   1
  -4   2  10 93.2100 217.460   1
   4  -2 -10 233.310 125.470   1
   6  -7  -4 201.530 225.280   1
  -6   7   4 30.5800 141.050   1
  -3   9   0 195.810 142.300   1
   3  -9   0 -44.460 229.600   1
  -1   9  -2 1417.63 227.280   1
  -1   9  -2 474.920 181.990   1
   2   2  10 200.060 183.460   1
  -2  -2 -10 219.120 216.580   1
   2   2  10 166.650 187.380   1
  -2  -7  -5 -167.17 230.380   1
   2   7   5 85.5200 150.330   1
   9  -2  -1 -127.82 165.370   1
  -9   2   1 243.710 110.280   1
   3  -9   1 521.150 309.290   1
  -3   9  -1 299.410 163.640   1
   6   2  -8 597.580 254.740   1
   6   2  -8 231.280 132.650   1
  -6  -2   8 543.290 176.250   1
  -2   6   8 1426.18 317.450   1
   2  -6  -8 2173.35 393.610   1
  -2   6   8 788.090 362.340   1
   1  -9  -1 702.910 310.020   1
  -1   9   1 287.830 196.210   1
  -7   5  -5 3339.75 379.160   1
  -7   5  -5 4050.83 448.190   1
   7  -5   5 4195.65 394.540   1
   7  -7   0 7299.67 635.770   1
  -7   7   0 7835.01 708.290   1
   2   6  -8 803.600 350.150   1
   2   6  -8 1387.78 174.050   1
  -3   7  -7 1259.15 303.240   1
   3  -7   7 1478.18 214.100   1
  -3   7  -7 565.350 323.470   1
   1   8  -5 70.4600 115.220   1
   1   8  -5 435.150 227.010   1
   9  -2   0 67.4300 172.180   1
  -9   2   0 -29.120 102.470   1
  -6   5   7 1084.92 148.750   1
   6  -5  -7 1373.80 293.740   1
   1  -6  -8 602.050 263.090   1
  -1   6   8 613.370 320.090   1
  -1   6   8 221.460 258.650   1
  -1   6   8 18.8100 205.610   1
   9  -1  -1 3225.56 404.330   1
   9  -1  -1 2962.31 345.350   1
   5  -8  -3 3898.27 469.560   1
  -5   8   3 2687.89 368.500   1
   2  -5  -9 55.8400 241.650   1
  -2   5   9 62.6300 217.680   1
  -2   5   9 22.1300 120.970   1
  -1   5   9 -46.030 124.560   1
  -1   5   9 98.0100 214.700   1
  -1   5   9 187.070 260.560   1
  -6   7  -4 3124.97 322.150   1
   6  -7   4 2905.75 311.830   1
  -6   7  -4 2347.25 405.240   1
  -4   4  -9 350.410 204.220   1
   4  -4   9 0.57000 148.490   1
   8   0   4 47.6600 205.830   1
   8   0   4 290.780 159.960   1
   7  -7  -1 6488.42 635.170   1
  -7   7   1 5129.35 492.940   1
  -3  -3  10 42.6000 119.670   1
   3   3 -10 -211.50 124.130   1
   3   3 -10 -187.87 179.810   1
  -2   0  11 5501.39 535.680   1
  -2   0  11 3676.42 435.650   1
   2   0 -11 3820.72 499.210   1
   2   0 -11 4741.28 456.790   1
   1  -1 -11 374.290 220.520   1
  -1   1  11 180.570 166.640   1
  -1   1  11 246.950 177.200   1
   3  -5   9 1002.49 262.980   1
  -3   5  -9 253.400 245.460   1
  -3   5  -9 799.650 276.150   1
   8   1  -5 451.780 188.490   1
  -8  -1   5 248.100 148.780   1
   8   1  -5 204.300 158.850   1
   9  -1   0 6.26000 177.460   1
   9  -1   0 194.000 189.070   1
   9  -2  -2 433.200 171.250   1
  -9   2   2 672.700 179.390   1
  -3   9   1 656.570 221.720   1
   3  -9  -1 1008.64 365.320   1
   2   8  -4 248.260 111.140   1
   2   8  -4 340.040 231.470   1
  -2   8   5 607.200 251.570   1
   2  -8  -5 1278.66 322.680   1
   0   9  -1 2301.94 334.130   1
   1   3  10 2386.50 386.700   1
  -1  -3 -10 1676.54 401.440   1
   1   3  10 2323.49 435.390   1
   1   3  10 2246.98 422.980   1
  -2  -5  -8 2940.95 442.430   1
   2   5   8 2725.63 453.440   1
   7  -7   1 1629.29 287.710   1
  -7   7  -1 1880.26 271.590   1
   3   3   9 80.8200 230.770   1
   3   3   9 160.370 158.080   1
  -3  -3  -9 193.480 215.960   1
   3   3   9 575.950 302.180   1
   0   9   0 1256.24 250.930   1
   0  -9   0 2826.74 503.010   1
   0   2 -11 96.0500 98.0800   1
   0  -2  11 -126.81 125.180   1
   0   2 -11 -82.460 199.020   1
   0  -2  11 288.430 225.260   1
   8   2   2 -110.69 200.710   1
   8   2   2 228.390 130.810   1
   9  -1  -2 2082.24 301.870   1
  -9   1   2 2769.93 271.970   1
   9  -1  -2 2933.85 334.760   1
  -3   3 -10 174.300 191.620   1
   3  -3  10 -73.820 109.870   1
   3  -3  10 122.330 160.580   1
  -2   4 -10 2813.43 396.420   1
   2  -4  10 3788.17 330.410   1
   2  -4  10 2136.00 232.700   1
   2   1 -11 -72.390 169.460   1
  -2  -1  11 -63.840 100.970   1
   2   1 -11 -81.760 110.860   1
  -2  -1  11 -63.600 126.990   1
   6  -6  -6 1867.76 336.860   1
  -6   6   6 2304.52 300.680   1
   1  -1  11 497.660 173.370   1
   1  -1  11 606.530 224.660   1
  -1   1 -11 794.830 289.780   1
   1   7   6 589.630 230.500   1
   1   7   6 254.910 189.940   1
  -1  -7  -6 316.610 274.050   1
   0  -1 -11 37.7000 202.580   1
   0   1  11 104.090 168.710   1
   0   1  11 105.030 171.590   1
  -3  -7  -4 927.160 353.690   1
   3   7   4 309.520 191.060   1
  -3   9  -2 1416.10 223.460   1
  -3   9  -2 978.710 293.440   1
   9  -3  -1 1645.93 243.780   1
  -9   3   1 1804.64 221.710   1
   5  -5  -8 427.760 244.650   1
  -5   5   8 430.310 274.110   1
  -5   5   8 601.760 195.160   1
  -1  -2  11 461.010 161.840   1
   1   2 -11 341.040 127.720   1
  -1  -2  11 93.8600 114.250   1
   1   2 -11 132.480 197.000   1
  -5   6   7 1490.44 240.860   1
   5  -6  -7 1159.87 281.000   1
  -8   1   6 -1.0600 93.7200   1
   8  -1  -6 0.62000 238.680   1
  -8   1   6 -95.680 142.680   1
   8  -1  -6 81.5600 147.650   1
  -4  -7  -2 1606.63 335.120   1
   4   7   2 1744.74 229.580   1
   1  -8  -5 -25.960 238.010   1
  -1   8   5 107.770 203.420   1
  -9   3   0 8242.59 331.640   1
   9  -3   0 7526.52 652.640   1
  -7   6  -4 2419.31 366.730   1
  -7   6  -4 3484.48 349.520   1
   7  -6   4 2472.96 334.060   1
   8   2  -4 270.480 145.960   1
  -1   8  -6 1863.71 211.640   1
  -1   8  -6 936.270 280.250   1
  -1   8  -6 2211.56 381.400   1
   3  -6  -8 2546.49 348.370   1
  -3   6   8 1384.33 324.560   1
  -1   0 -11 547.570 221.670   1
   1   0  11 550.670 185.660   1
   1   0  11 810.930 266.850   1
   7   2   5 589.990 252.390   1
  -9   2  -1 1361.14 175.840   1
   9  -2   1 1849.59 275.930   1
   3   1  10 520.380 199.430   1
   3   1  10 752.680 277.320   1
  -3  -1 -10 689.400 261.160   1
   3   6   6 2137.75 388.910   1
  -3  -6  -6 1406.00 352.540   1
   3   6   6 526.170 275.060   1
   2  -1 -11 338.450 134.190   1
  -2   1  11 19.8500 178.060   1
  -2   1  11 210.890 174.750   1
   2  -1 -11 388.430 266.370   1
  -2   9   2 1063.34 341.650   1
   2  -9  -2 2234.45 395.660   1
   0   9  -2 1799.50 267.470   1
   0   9  -2 757.010 244.840   1
  -4  -2  10 1510.64 219.190   1
   4   2 -10 1148.45 186.310   1
   4   2 -10 1563.81 317.890   1
   8  -2  -6 1041.56 415.810   1
  -8   2   6 591.510 241.490   1
   8  -2  -6 1237.02 201.500   1
  -8   2   6 1498.53 166.550   1
  -7   4  -6 2446.24 335.180   1
  -7   4  -6 1341.14 213.330   1
   7  -4   6 2152.74 282.700   1
   6  -8   0 215.790 172.340   1
  -6   8   0 150.200 126.860   1
  -2   9  -3 1064.44 280.640   1
  -2   9  -3 1302.41 210.650   1
   2   4   9 209.950 283.220   1
  -2  -4  -9 448.790 303.480   1
   2   4   9 158.780 273.420   1
   2   4   9 338.100 203.570   1
  -3   8   5 777.190 296.060   1
   3  -8  -5 1280.43 338.340   1
  -3   8   5 683.440 268.400   1
  -8   4  -4 1711.05 260.700   1
  -8   4  -4 2136.91 240.230   1
   8  -4   4 2083.13 261.110   1
   4   7  -4 -95.130 103.620   1
   4   7  -4 169.520 203.710   1
  -1   9  -3 -140.70 131.730   1
  -1   9  -3 206.800 190.990   1
  -7   7   2 183.400 143.270   1
   7  -7  -2 382.150 287.060   1
   3   8  -1 4233.89 389.910   1
  -3   5   9 21.3100 137.630   1
   3  -5  -9 231.500 236.730   1
  -3   5   9 289.800 223.340   1
  -5  -2  -8 -61.950 182.610   1
   5   2   8 -35.350 130.870   1
   5   2   8 56.7400 195.970   1
  -8   4   5 789.640 212.830   1
  -8   4   5 601.090 232.370   1
   8  -4  -5 274.430 209.710   1
   2   4 -10 1210.82 273.030   1
   2   4 -10 1301.52 198.360   1
  -2  -4  10 1255.10 186.760   1
   6  -4  -8 343.400 216.310   1
  -6   4   8 -3.5400 259.920   1
  -6   4   8 74.2800 119.620   1
  -2   8  -6 526.040 290.540   1
  -2   8  -6 754.100 223.750   1
  -1  -8  -4 2049.44 383.120   1
   1   8   4 1429.48 318.050   1
   9  -1   1 1964.65 320.900   1
   9  -1   1 1872.16 270.190   1
  -5   6  -7 63.4600 189.250   1
   5  -6   7 146.300 166.880   1
  -5   6  -7 8.16000 189.190   1
   0   5   9 -27.350 133.550   1
   0   5   9 241.050 211.060   1
   0  -5  -9 462.270 286.780   1
   0   5   9 753.390 336.060   1
  -9   3   2 2392.68 218.780   1
  -9   3   2 1517.60 243.210   1
   9  -3  -2 1549.85 268.880   1
   8  -5   3 103.870 274.460   1
   8  -5   3 360.240 186.530   1
  -8   5  -3 81.6700 165.370   1
   6  -1  -9 965.670 265.510   1
   6  -1  -9 496.100 280.590   1
  -6   1   9 518.430 201.160   1
   5   5   5 213.800 186.710   1
   5   5   5 875.310 319.140   1
   5   5   5 310.480 121.540   1
   7   4   2 20.3100 295.980   1
   7   4   2 -114.88 182.280   1
   7   4   2 59.1100 107.170   1
   0   6   8 420.130 312.030   1
   0  -6  -8 195.560 276.570   1
   0   6   8 185.330 236.530   1
   0   6   8 423.850 243.760   1
   0   6   8 71.3300 157.920   1
  -7   5   6 1431.83 189.820   1
   7  -5  -6 1021.46 337.820   1
   0   9   1 -68.420 172.380   1
   0  -9  -1 343.000 325.700   1
  -1   9   2 614.490 278.360   1
   1  -9  -2 827.420 332.280   1
  -2   7   7 467.670 269.420   1
  -2   7   7 764.390 360.250   1
   2  -7  -7 1479.49 318.620   1
  -2   7   7 1504.36 329.500   1
   7   4  -4 69.1100 121.610   1
   7   4  -4 93.7200 211.470   1
   9   0  -1 355.570 207.450   1
   9   0  -1 287.960 173.990   1
  -5   1  -9 1341.69 287.940   1
   5  -1   9 1478.99 203.920   1
   5  -1   9 2409.92 318.490   1
   1  -2  11 136.880 125.680   1
  -1   2 -11 3.16000 194.140   1
   1  -2  11 200.020 176.880   1
  -6   8   1 -86.900 117.460   1
   6  -8  -1 131.670 180.080   1
  -6   8  -1 178.050 138.050   1
   6  -8   1 249.650 202.940   1
   3   8   0 1962.50 244.170   1
  -3  -8   0 2726.74 380.350   1
   6  -2   8 1954.61 254.740   1
  -6   2  -8 804.170 277.480   1
  -8   6   0 231.890 138.990   1
   8  -6   0 33.8500 135.060   1
   8  -6   0 391.800 238.270   1
  -2  -6  -7 1680.96 394.630   1
   2   6   7 756.480 287.200   1
   2   6   7 1760.48 309.330   1
  -5   2  -9 655.700 263.940   1
   5  -2   9 1415.85 219.710   1
   5  -2   9 999.060 243.690   1
   7   3   4 839.160 218.820   1
   7   3   4 1181.67 311.300   1
  -4   8  -5 513.990 254.910   1
  -4   8  -5 485.550 254.690   1
   6  -1   8 345.200 216.910   1
   6  -1   8 658.580 234.280   1
  -6   1  -8 231.040 182.120   1
   0   8  -6 808.980 209.990   1
   0   8  -6 632.330 278.560   1
   6   0  -9 457.120 170.220   1
  -6   0   9 215.030 165.660   1
   6   0  -9 343.160 371.000   1
  -4  -2  -9 3039.84 437.340   1
   4   2   9 4166.10 524.290   1
   4   2   9 2605.44 446.600   1
   4   2   9 2434.50 344.600   1
  -8   6   1 880.140 226.240   1
   8  -6  -1 1189.12 259.440   1
   3   8  -2 176.310 110.500   1
   3   8  -2 323.520 177.800   1
   6   3   6 530.270 261.340   1
  -9   2   3 6124.74 465.950   1
  -9   3  -1 4098.47 335.750   1
   9  -3   1 2948.60 346.050   1
   8   0  -6 366.450 272.730   1
   8   0  -6 635.100 209.460   1
  -8   0   6 411.620 169.230   1
   5   6   3 899.100 235.530   1
  -5  -6  -3 1614.88 431.050   1
   7  -7   2 170.850 237.130   1
   7  -7   2 161.570 138.120   1
  -7   7  -2 351.710 187.200   1
   9   0   0 77.6400 173.780   1
   9   0   0 -86.010 154.410   1
   5   4  -8 1800.93 230.210   1
  -5  -4   8 2161.17 245.520   1
   5   4  -8 2433.88 365.890   1
   4   5  -8 1033.53 393.150   1
   4   5  -8 1985.93 212.410   1
  -1   7   7 1472.78 397.620   1
  -1   7   7 1547.51 345.420   1
  -1   7   7 896.130 353.300   1
   1  -7  -7 1199.23 294.110   1
   3  -9  -2 2163.68 380.600   1
  -3   9   2 875.040 294.610   1
   8  -5  -4 168.460 203.060   1
  -8   5   4 373.830 135.960   1
   4  -9   0 -10.290 226.480   1
  -4   9   0 -14.850 130.270   1
   9  -1  -3 658.770 237.950   1
  -9   1   3 460.630 143.850   1
   2   8   3 1360.97 302.080   1
  -2  -8  -3 1789.75 294.760   1
   9   0  -2 69.6400 154.320   1
   9   0  -2 -6.9700 153.990   1
   6   5   3 92.9100 102.200   1
   6   5   3 558.710 264.590   1
  -1   4  10 2131.21 471.070   1
  -1   4  10 1042.46 327.580   1
  -1   4  10 3284.81 482.120   1
   1  -4 -10 3190.17 490.180   1
   8   3  -1 215.970 243.190   1
   8   3  -1 -300.80 138.180   1
   8   3  -1 -20.150 118.540   1
   6  -6   6 2788.01 301.270   1
  -6   6  -6 3058.91 434.290   1
  -6   6  -6 1847.23 423.720   1
   4  -9   1 1003.01 386.660   1
  -4   9  -1 414.430 174.500   1
  -4  -4   9 2178.13 237.700   1
   4   4  -9 1638.85 303.500   1
   4   4  -9 1658.10 221.990   1
  -1   6  -9 2467.40 276.970   1
   1  -6   9 2321.10 238.140   1
  -1   6  -9 1638.21 378.350   1
   7   1   6 327.740 260.780   1
   3   7  -6 881.320 298.230   1
   3   7  -6 411.180 143.230   1
   2  -4 -10 1428.50 335.250   1
  -2   4  10 1983.64 410.000   1
   2  -4 -10 1768.97 234.790   1
  -2   4  10 858.180 284.540   1
   7  -4  -7 207.350 188.910   1
  -7   4   7 98.4100 214.130   1
  -7   4   7 118.830 107.500   1
   5   6  -5 329.460 143.670   1
   5   6  -5 321.340 212.520   1
   4   6   5 722.380 270.140   1
   4   6   5 96.6800 113.710   1
  -4  -6  -5 651.900 321.980   1
   0   6  -9 1697.36 238.890   1
   0   6  -9 950.810 361.450   1
   6   5  -5 401.150 156.000   1
   6   5  -5 344.080 218.240   1
   4  -3 -10 540.770 290.210   1
  -4   3  10 837.890 326.250   1
   4  -3 -10 671.700 219.230   1
  -4   3  10 901.110 233.100   1
  -5   8  -4 1942.67 253.180   1
  -5   8  -4 1419.43 289.040   1
  -2  -2  11 367.300 152.070   1
  -2  -2  11 238.360 117.530   1
   2   2 -11 357.180 144.920   1
   2   2 -11 422.590 226.040   1
   8  -6   1 923.130 322.470   1
  -8   6  -1 687.370 229.030   1
   8  -6   1 599.400 204.170   1
   7  -1  -8 672.580 211.140   1
  -7   1   8 402.930 222.180   1
   7  -1  -8 880.520 309.410   1
   8  -2   5 -48.040 191.290   1
   7   3  -6 771.480 314.330   1
   7   3  -6 1306.36 193.060   1
   6  -2  -9 -6.4500 139.460   1
  -6   2   9 264.010 197.130   1
   6  -2  -9 321.350 267.080   1
  -6   2   9 190.610 111.260   1
  -5   5  -8 427.710 252.920   1
  -5   5  -8 646.230 256.350   1
   5  -5   8 987.430 269.840   1
  -3   9  -3 874.780 317.250   1
  -3   9  -3 2768.04 284.590   1
  -3   7   7 -22.270 234.870   1
   3  -7  -7 714.090 287.750   1
  -3   7   7 59.7900 178.470   1
  -3   7   7 -185.00 188.230   1
   1   1  11 517.320 232.270   1
   1   1  11 246.660 156.820   1
  -1  -1 -11 370.000 219.460   1
   8   3  -2 885.290 244.340   1
   8   3  -2 495.200 236.130   1
  -1   2  11 2095.03 314.960   1
   1  -2 -11 2283.26 378.820   1
  -1   2  11 1476.82 346.500   1
   2   7  -7 2083.08 230.840   1
   2   7  -7 1454.98 374.690   1
   3   0 -11 168.320 184.870   1
  -3   0  11 -32.680 163.230   1
   3   0 -11 294.070 141.310   1
   8   3   0 20.2800 181.120   1
   8   3   0 -46.950 259.520   1
   8   3   0 293.240 152.690   1
   7   2  -7 744.630 310.250   1
   7   2  -7 710.700 215.150   1
  -7  -2   7 445.200 183.280   1
   6  -5   7 897.760 257.910   1
  -6   5  -7 1123.59 278.120   1
  -6   5  -7 378.040 216.120   1
  -5   7  -6 -61.020 194.780   1
   5  -7   6 166.490 145.260   1
  -5   7  -6 324.970 204.750   1
   0  -8  -5 -69.680 312.690   1
   0   8   5 87.4500 184.690   1
   4  -9  -1 1473.40 299.020   1
  -4   9   1 657.650 217.660   1
   0   9  -3 -6.4900 90.3100   1
   0   9  -3 -80.380 136.010   1
   0   9  -3 202.680 169.340   1
  -8   3   6 1206.52 293.560   1
   8  -3  -6 1313.20 337.050   1
  -8   3   6 2050.92 197.330   1
   4  -6   8 392.840 169.770   1
  -4   6  -8 -142.13 216.380   1
  -4   6  -8 35.5000 203.260   1
   5  -4  -9 367.470 225.210   1
  -5   4   9 207.470 133.630   1
  -5   4   9 359.170 241.460   1
  -5   0  -9 700.350 252.190   1
   5   0   9 855.190 283.710   1
   5   0   9 705.820 251.250   1
   5   0   9 682.850 212.250   1
  -7   6   5 545.630 153.790   1
   7  -6  -5 535.460 280.850   1
  -8   6   2 6310.78 552.670   1
   8  -6  -2 5786.69 700.080   1
   3   8   1 2422.51 309.560   1
  -3  -8  -1 1696.14 316.810   1
   6   2   7 -38.870 203.730   1
   8  -1   5 1557.19 200.140   1
   8  -1   5 1443.22 283.910   1
   6   4   5 306.460 308.440   1
   6   4   5 511.910 247.640   1
  -9   2  -2 167.250 116.880   1
   9  -2   2 232.460 217.560   1
  -6   3  -8 808.540 267.010   1
   6  -3   8 2343.18 289.040   1
   5  -1 -10 428.800 166.680   1
  -5   1  10 710.060 201.270   1
   5  -1 -10 265.510 213.940   1
  -5   7   6 567.660 186.720   1
  -5   7   6 -49.110 250.950   1
   5  -7  -6 329.840 276.350   1
   5   0 -10 206.060 234.950   1
  -5   0  10 613.450 193.620   1
   5   0 -10 253.640 132.190   1
   5   5  -7 1151.09 363.990   1
   5   5  -7 1776.77 225.550   1
   6  -8  -2 821.150 243.750   1
  -6   8   2 139.580 135.910   1
   6  -8   2 3354.79 509.000   1
  -6   8  -2 2500.36 440.240   1
  -1   7  -8 334.420 232.470   1
  -1   7  -8 663.620 148.860   1
  -1   7  -8 199.460 138.850   1
  -9   3   3 20.9000 120.410   1
  -9   3   3 -71.250 104.290   1
   9  -3  -3 41.8200 124.340   1
   9  -3  -3 44.6900 168.950   1
  -9   4   1 537.820 139.370   1
   9  -4  -1 372.270 242.050   1
   9  -4  -1 221.310 193.740   1
   8   1   4 4489.67 532.690   1
   8   1   4 3428.22 422.780   1
  -5   8   4 646.470 187.870   1
   5  -8  -4 986.070 294.480   1
   7   0  -8 -92.900 149.080   1
  -7   0   8 125.790 140.640   1
   7   0  -8 24.9400 219.850   1
  -5   3  -9 878.540 283.540   1
   5  -3   9 2552.14 303.360   1
   9  -4   0 1684.17 290.930   1
   9  -4   0 1621.18 262.270   1
  -9   4   0 1965.03 213.100   1
   9   0   1 6279.54 678.870   1
   9   0   1 7038.59 467.260   1
   7  -2  -8 -41.020 238.050   1
  -7   2   8 -99.090 185.060   1
   7  -2  -8 7.24000 144.150   1
  -7   2   8 75.9000 102.320   1
   0   3 -11 1588.54 299.010   1
   0  -3  11 1605.67 228.150   1
   0  -3  11 2073.98 245.420   1
   0   3 -11 1778.66 220.990   1
  -2   2  11 456.980 227.410   1
  -2   2  11 520.200 211.030   1
   2  -2 -11 874.850 287.440   1
   2  -2 -11 350.130 145.590   1
  -3   8  -6 1290.07 323.960   1
  -3   8  -6 714.860 291.590   1
   3  -1 -11 -7.8600 234.180   1
  -3   1  11 124.470 178.090   1
   3  -1 -11 16.2000 117.450   1
   6   0   8 130.990 115.220   1
  -6   0  -8 82.9900 130.240   1
   6   0   8 109.850 190.630   1
   6   0   8 150.140 190.020   1
   3   8  -3 795.090 276.020   1
   3   8  -3 742.070 150.760   1
  -5  -3   9 -63.080 117.520   1
   5   3  -9 36.4000 225.940   1
   5   3  -9 -8.1300 157.280   1
  -4   9  -2 572.340 189.940   1
  -4   9  -2 1036.73 223.700   1
   7  -7  -3 1836.38 369.850   1
  -7   7   3 1459.08 257.740   1
   1   9  -1 971.080 229.660   1
   1   9  -1 1921.36 209.810   1
   3   1 -11 79.5500 202.590   1
   3   1 -11 131.590 145.280   1
  -3  -1  11 -85.990 128.290   1
  -2   1 -11 243.630 269.320   1
   2  -1  11 425.400 134.670   1
   2  -1  11 711.180 202.940   1
   6  -7  -5 1157.61 296.020   1
  -6   7   5 992.150 226.680   1
   3   5  -9 241.780 299.000   1
   3   5  -9 343.500 136.420   1
   0   2  11 912.830 298.690   1
   0  -2 -11 1118.16 298.610   1
   0   2  11 1229.56 266.620   1
   8  -3   5 3654.60 425.540   1
  -8   3  -5 3395.02 330.680   1
   0  -4 -10 790.710 331.800   1
   0   4  10 472.600 290.120   1
   0   4  10 344.800 238.430   1
   4  -7   7 100.880 138.940   1
  -4   7  -7 224.260 196.120   1
  -4   7  -7 -197.07 202.650   1
   9  -1   2 24.5400 138.200   1
   9  -1   2 -200.60 160.640   1
  -4   6   8 1313.26 317.080   1
   4  -6  -8 2266.41 352.090   1
   0  -9  -2 -187.99 277.840   1
   0   9   2 -339.51 179.290   1
   6   1  -9 1941.56 355.180   1
   6   1  -9 1536.60 218.760   1
  -6  -1   9 991.300 236.290   1
   0   7  -8 199.710 133.330   1
   0   7  -8 110.230 232.180   1
   4  -8  -5 206.330 280.620   1
  -4   8   5 127.790 161.570   1
  -4   8   5 313.710 179.010   1
  -2   6  -9 -104.87 220.780   1
   2  -6   9 93.2700 126.200   1
  -2   6  -9 64.1500 148.150   1
  -4   1 -10 -35.920 195.370   1
   4  -1  10 86.4100 172.090   1
   4  -1  10 -70.790 134.570   1
   9   0  -3 1018.40 220.530   1
   8   2   3 195.080 240.800   1
   8   2   3 592.340 159.490   1
   1   9   0 689.160 239.260   1
  -1  -9   0 2909.38 435.290   1
   0   5 -10 798.630 304.260   1
   0  -5  10 897.830 179.380   1
   0   5 -10 953.410 191.860   1
   2   8  -5 107.530 198.970   1
   2   8  -5 27.8200 116.920   1
  -2   9   3 1121.69 274.800   1
   2  -9  -3 2371.35 411.720   1
   1   3 -11 282.320 184.330   1
   1   3 -11 379.530 128.630   1
  -1  -3  11 429.890 108.370   1
  -1  -3  11 408.110 135.320   1
  -7   2  -7 821.820 281.640   1
   7  -2   7 1619.69 242.840   1
   0   7   7 23.7800 199.590   1
   0   7   7 1021.04 286.490   1
   0  -7  -7 152.750 228.230   1
  -9   3  -2 747.150 155.780   1
   9  -3   2 258.350 174.780   1
  -4   2 -10 345.790 181.930   1
   4  -2  10 357.540 127.270   1
   4  -2  10 770.610 201.340   1
  -1   5 -10 279.320 214.550   1
   1  -5  10 229.940 114.310   1
  -1   5 -10 108.770 117.160   1
  -4  -7  -3 854.630 268.150   1
   4   7   3 232.160 137.650   1
  -3   4  10 47.4600 116.840   1
  -3   4  10 -61.630 214.010   1
   3  -4 -10 157.800 232.440   1
   3  -4  10 952.050 221.280   1
  -3   4 -10 627.810 250.860   1
  -1   9  -4 124.870 130.880   1
  -1   9  -4 31.4100 186.010   1
   1   6  -9 789.530 288.080   1
   1   6  -9 1066.29 201.220   1
   9  -4  -2 1567.09 238.750   1
  -9   4   2 2309.90 222.980   1
   9  -4  -2 1894.46 331.760   1
  -2   9  -4 257.970 148.400   1
  -2   9  -4 425.060 188.030   1
   8   3  -3 843.670 196.890   1
  -2   7  -8 337.140 191.140   1
   2  -7   8 904.580 178.750   1
  -2   7  -8 1196.63 277.150   1
   2   0  11 103.010 181.170   1
  -2   0 -11 -84.650 195.010   1
   2   0  11 148.430 131.770   1
   8   3   1 427.690 180.650   1
   8   3   1 114.840 226.530   1
   8   3   1 216.900 126.710   1
   1   9  -2 61.2700 132.710   1
   1   9  -2 187.320 103.720   1
   1   9  -2 257.680 192.830   1
   8   2  -5 1371.15 382.160   1
  -1   3 -11 1470.90 306.490   1
   1  -3  11 1213.82 227.160   1
   1  -3  11 1807.70 236.420   1
  -1   3 -11 1440.00 248.350   1
  -4   5   9 197.790 137.980   1
  -4   5   9 63.6600 243.160   1
   4  -5  -9 69.2400 203.440   1
   4   6  -7 1613.01 398.680   1
   4   6  -7 2367.07 277.150   1
   7  -1   7 224.410 180.350   1
   7  -1   7 39.8800 195.220   1
  -6   7  -5 3616.04 523.240   1
   6  -7   5 4363.88 521.520   1
  -6   7  -5 4849.24 534.050   1
   8  -6   2 3804.02 431.550   1
   8  -6   2 2647.91 376.340   1
  -8   6  -2 2863.24 354.730   1
   1   8  -6 284.440 124.500   1
   1   8  -6 194.940 204.620   1
   6   4  -7 226.540 289.990   1
   6   4  -7 717.190 162.400   1
   9  -4   1 3324.82 393.090   1
  -9   4  -1 3223.51 332.120   1
   6   3  -8 52.1900 121.370   1
  -6  -3   8 110.770 133.670   1
   6   3  -8 303.120 221.900   1
   2   3  10 867.270 262.920   1
   2   3  10 674.310 283.380   1
   2   3  10 864.480 227.200   1
  -2  -3 -10 1124.49 371.310   1
   2  -2  11 89.3500 135.120   1
   2  -2  11 145.150 194.970   1
  -2   2 -11 213.220 213.940   1
   6   6  -1 -115.96 116.070   1
   3   6  -8 991.290 195.950   1
   3   6  -8 540.560 334.440   1
   1   5   9 2737.04 503.470   1
  -1  -5  -9 2399.47 388.440   1
   1   5   9 1778.78 434.490   1
  -7   7  -3 114.510 186.450   1
   7  -7   3 445.640 155.800   1
  -7   7  -3 -111.18 149.260   1
  -4   9   2 696.920 225.290   1
   4  -9  -2 1344.94 327.280   1
   8   1  -6 416.050 178.900   1
  -8  -1   6 170.040 120.110   1
   8   1  -6 265.520 147.770   1
  -1   9   3 533.690 202.560   1
   1  -9  -3 661.440 325.110   1
   5  -2 -10 213.810 225.680   1
  -5   2  10 215.390 102.710   1
   5  -2 -10 131.970 132.020   1
  -5   2  10 204.890 207.040   1
   5   1 -10 626.570 245.940   1
  -5  -1  10 7.07000 145.810   1
   5   1 -10 -117.96 121.770   1
  -9   2   4 3689.20 349.330   1
  -9   2   4 1791.79 344.430   1
   9  -2  -4 3298.38 382.490   1
   9  -1  -4 -86.180 157.560   1
  -4   5  -9 30.6900 174.180   1
   4  -5   9 236.810 175.060   1
   4   7  -5 25.6400 191.370   1
   4   7  -5 200.380 129.450   1
   3   2  10 -25.310 233.690   1
  -3  -2 -10 -260.47 274.480   1
   3   2  10 172.170 234.620   1
   3   2  10 94.0000 139.230   1
   3  -9  -3 4044.47 547.120   1
  -3   9   3 2383.30 383.430   1
   1   6   8 -88.930 249.170   1
  -1  -6  -8 -423.01 256.620   1
   1   6   8 74.2000 233.110   1
   1   6   8 -71.930 163.230   1
   4   0  10 1060.75 243.750   1
   4   0  10 1227.50 274.270   1
  -4   0 -10 1125.68 313.150   1
   6   6  -2 383.160 143.150   1
   9   1  -1 2516.37 386.220   1
   9   1  -1 1834.99 318.340   1
   7   4   3 2203.95 401.010   1
   7   4   3 1724.95 217.460   1
   7   4   3 1426.94 419.930   1
   6   6   0 171.260 121.190   1
   8   0   5 233.160 113.250   1
   8   0   5 562.080 225.380   1
   7   4  -5 -55.330 117.420   1
   7   4  -5 -3.8800 158.710   1
  -1  -9  -1 1115.27 377.840   1
   1   9   1 459.940 180.420   1
   1   5 -10 1055.96 199.610   1
  -1  -5  10 1040.37 195.890   1
   1   5 -10 433.330 302.350   1
  -8   6   3 1068.18 186.970   1
   8  -6  -3 1009.51 321.420   1
  -7   3  -7 869.900 248.600   1
   6  -3  -9 1066.66 337.230   1
   6  -3  -9 1357.95 264.570   1
  -6   3   9 1594.39 222.970   1
  -6   3   9 951.510 336.160   1
  -4  -3  10 216.570 143.200   1
   4   3 -10 216.560 124.600   1
   4   3 -10 49.8700 196.990   1
   7  -5   6 2870.35 340.920   1
  -7   5  -6 3105.76 446.450   1
  -7   5  -6 1944.82 314.210   1
   4  -7  -7 535.270 253.850   1
  -4   7   7 464.020 281.830   1
  -4   7   7 611.770 250.530   1
   8  -5   4 2103.87 633.820   1
  -8   5  -4 1953.98 281.070   1
  -8   5  -4 2295.26 300.230   1
   3   4 -10 1118.03 225.980   1
  -3  -4  10 791.160 182.590   1
   3   4 -10 1287.85 293.870   1
   3   8   2 51.8900 138.320   1
  -3  -8  -2 -96.530 207.910   1
   3   8   2 63.2000 125.760   1
   9   1   0 225.730 210.870   1
   9   1   0 593.700 181.220   1
   7  -6   5 1810.62 268.720   1
  -7   6  -5 2586.57 382.240   1
  -7   6  -5 2014.73 376.550   1
   9   1  -2 2542.58 418.500   1
   9   1  -2 2801.56 368.740   1
   5   7  -1 939.940 187.330   1
  -5  -7   1 1159.28 259.340   1
  -2  -7  -6 573.490 279.570   1
   2   7   6 439.740 198.080   1
   2   7   6 -0.5700 201.910   1
   4   4   8 418.320 185.440   1
  -4  -4  -8 270.820 245.500   1
   4   4   8 -365.13 255.470   1
   7   1  -8 506.140 153.170   1
   7   1  -8 364.350 266.450   1
  -7  -1   8 498.020 154.380   1
   3  -2 -11 65.4500 123.730   1
   3  -2 -11 41.8900 229.490   1
  -3   2  11 131.080 199.040   1
  -6   8   3 860.610 210.650   1
   6  -8  -3 824.840 295.460   1
  -6   8  -3 465.250 207.090   1
  -6   8  -3 1183.81 240.060   1
  -7   3   8 1029.06 188.220   1
   7  -3  -8 1139.46 213.180   1
   7  -3  -8 1018.23 329.190   1
  -7   3   8 753.770 304.130   1
   0   9  -4 225.380 99.6900   1
   0   9  -4 317.680 189.420   1
   0   9  -4 302.940 121.790   1
  -4   9  -3 1333.90 252.680   1
  -4   9  -3 917.780 229.880   1
   9   0   2 2027.86 290.400   1
   9   0   2 1660.31 306.110   1
  -3   9  -4 953.670 221.830   1
  -3   9  -4 672.920 282.400   1
   1   7  -8 135.410 211.060   1
   1   7  -8 176.860 131.340   1
  -3  -7  -5 283.080 327.610   1
   3   7   5 -28.120 132.760   1
   5   1   9 1014.11 253.840   1
  -5  -1  -9 1240.50 283.800   1
   5   1   9 898.690 209.540   1
   5   1   9 1034.80 302.000   1
  -2   5 -10 83.5500 162.440   1
   2  -5  10 42.8400 129.630   1
  -2   5 -10 258.890 218.360   1
   7   5  -1 2101.82 267.560   1
  -3  -2  11 1989.64 268.800   1
   3   2 -11 1883.23 250.660   1
   3   2 -11 2219.40 373.470   1
   4   5   7 -139.57 204.760   1
  -4  -5  -7 -133.59 228.330   1
   4  -3  10 140.920 231.110   1
   4  -3  10 25.6000 105.450   1
  -4   3 -10 336.280 218.200   1
   5   7  -2 1268.06 273.660   1
   5   7  -2 1723.52 197.970   1
  -5  -7   0 -29.030 142.440   1
   5   7   0 93.2500 107.600   1
  -2   8   6 1005.79 389.720   1
  -2   8   6 1082.18 360.960   1
   2  -8  -6 1913.30 331.500   1
   1   9  -3 -75.830 104.280   1
   1   9  -3 344.970 176.450   1
  -9   3   4 77.9600 111.730   1
  -9   3   4 81.5200 141.080   1
   9  -3  -4 -25.820 171.960   1
   6  -4   8 1567.79 252.330   1
  -6   4  -8 1074.99 277.970   1
  -9   4   3 18.8700 102.840   1
   9  -4  -3 32.7000 196.850   1
   3   8  -4 293.660 209.730   1
   3   8  -4 58.4400 110.730   1
   8  -5  -5 1534.41 324.910   1
  -8   5   5 1786.72 198.220   1
  -1  -2 -11 1608.45 316.440   1
   1   2  11 1845.11 296.190   1
   1   2  11 1204.37 353.510   1
   2   3 -11 86.8700 118.090   1
  -2  -3  11 -71.860 138.530   1
   2   3 -11 29.8800 195.200   1
  -8   4  -5 509.040 116.770   1
   8  -4   5 493.940 215.050   1
  -8   4  -5 319.660 133.300   1
   7   0   7 244.030 193.250   1
  -8   4   6 100.670 187.020   1
   8  -4  -6 -4.7000 189.170   1
  -8   4   6 -188.76 115.400   1
  -9   2  -3 1917.44 231.950   1
   9  -2   3 1517.56 303.260   1
   5   4   7 331.750 260.830   1
   5   4   7 231.640 179.460   1
  -5  -4  -7 372.380 237.360   1
   5   6   4 320.480 260.800   1
   5   6   4 128.870 99.6300   1
   7   5  -2 702.630 159.620   1
  -5   9   0 -24.230 130.040   1
   9   0  -4 1487.87 209.830   1
   6   6  -3 2053.53 266.430   1
  -2  -1 -11 1245.71 310.430   1
   2   1  11 878.560 282.050   1
   2   1  11 1442.67 291.170   1
   3   5   8 -97.460 236.100   1
  -3  -5  -8 653.990 279.430   1
  -2  -8  -4 4097.14 559.440   1
   2   8   4 1678.43 395.210   1
   8  -1  -7 3001.89 337.810   1
  -8   1   7 1673.50 317.340   1
   8  -1  -7 2313.39 421.820   1
  -1  -8  -5 2300.97 401.200   1
   1   8   5 2114.72 389.730   1
   7   5   0 2194.25 270.540   1
   5  -4   9 6.51000 154.670   1
  -5   4  -9 131.150 180.700   1
   9  -4   2 2830.84 360.190   1
  -9   4  -2 3455.10 324.120   1
   6   6   1 43.6300 108.090   1
   6   1   8 883.390 243.510   1
   6   1   8 1165.76 283.360   1
   1   4  10 497.290 283.310   1
  -1  -4 -10 116.980 299.370   1
   1   4  10 687.370 293.580   1
   1   4  10 312.600 206.570   1
   6   5   4 978.110 184.340   1
   6   5   4 2615.39 402.820   1
   8   3  -4 1254.78 239.230   1
   1  -8  -6 1433.01 353.430   1
  -1   8   6 893.320 308.450   1
   5  -9   1 -38.140 232.250   1
  -3   6  -9 171.740 201.240   1
  -3   6  -9 9.88000 203.560   1
   3  -6   9 626.590 174.420   1
   8   3   2 271.620 115.250   1
   8   3   2 527.870 289.200   1
   8   3   2 573.620 205.180   1
  -1   8  -7 232.700 152.590   1
  -1   8  -7 414.790 117.670   1
  -1   8  -7 23.8900 208.430   1
   6  -6  -7 636.680 285.280   1
  -6   6   7 415.040 142.070   1
   0   9   3 311.840 201.430   1
   0  -9  -3 11.3700 271.820   1
  -3   7  -8 2087.50 391.150   1
   3  -7   8 2343.07 296.560   1
  -3   7  -8 1329.68 359.960   1
   7  -7  -4 17.3500 282.470   1
  -7   7   4 89.0800 125.040   1
   8  -2  -7 2213.75 267.700   1
  -8   2   7 1974.10 215.610   1
  -8   2   7 1726.23 333.480   1
   8  -2  -7 1182.90 383.740   1
  -2   3 -11 1530.01 322.830   1
   2  -3  11 2348.10 275.290   1
   2  -3  11 1512.02 230.170   1
   9   1   1 389.700 196.860   1
   9   1   1 703.030 201.420   1
  -5   8  -5 224.060 193.830   1
  -5   8  -5 -181.02 241.610   1
   5  -8   5 181.730 136.320   1
  -3   8   6 1322.82 316.250   1
  -3   8   6 630.120 259.210   1
   3  -8  -6 1019.58 295.170   1
   5   6  -6 341.630 200.160   1
   5   6  -6 353.790 149.090   1
  -6   5   8 1588.34 225.470   1
  -6   5   8 1676.02 413.020   1
   6  -5  -8 1466.84 371.900   1
   9  -1   3 747.280 217.300   1
   9  -1   3 625.630 211.130   1
   6   5  -6 2335.20 239.430   1
   6   5  -6 1208.42 382.300   1
   9   1  -3 4245.68 449.880   1
  -1   3  11 699.170 292.530   1
  -1   3  11 564.590 229.390   1
   1  -3 -11 229.910 246.170   1
  -5   9   1 1879.51 276.450   1
   5  -9  -1 2939.20 351.810   1
   4  -8   6 367.100 146.550   1
  -4   8  -6 281.140 193.100   1
  -4   8  -6 335.930 214.360   1
   4   0 -11 249.110 134.790   1
  -4   0  11 282.210 159.510   1
   4   0 -11 385.770 204.830   1
   7   3   5 -247.51 249.420   1
   5   3   8 2165.43 349.040   1
  -5  -3  -8 2468.15 433.600   1
   5   3   8 2622.53 394.460   1
   6   2  -9 1524.11 330.730   1
  -6  -2   9 946.540 222.120   1
   6   2  -9 1153.59 220.090   1
   3   4   9 575.940 239.050   1
   3   4   9 562.630 307.890   1
   3   4   9 177.420 266.430   1
  -3  -4  -9 220.090 240.910   1
   7   2   6 2656.48 438.390   1
  -9   3  -3 -109.84 101.740   1
   9  -3   3 -17.950 165.530   1
   8  -6   3 4252.80 544.230   1
  -8   6  -3 3896.08 458.670   1
   8  -6   3 3419.32 419.060   1
  -4   9   3 180.380 165.480   1
   4  -9  -3 403.880 282.750   1
  -4   9   3 491.040 185.690   1
   1   9   2 -10.810 171.340   1
  -1  -9  -2 137.250 236.380   1
  -4   4  10 121.230 117.480   1
   4  -4 -10 130.390 240.060   1
  -4   4  10 160.410 263.910   1
  -2   8  -7 332.460 158.070   1
  -2   8  -7 417.290 219.790   1
  -2   3  11 567.540 254.340   1
  -2   3  11 688.750 248.540   1
   2  -3 -11 696.240 278.740   1
  -2   3  11 227.300 129.300   1
   2   6  -9 851.100 172.470   1
   2   6  -9 97.0700 241.950   1
   5   7  -3 1882.03 223.080   1
   5   7  -3 1746.37 321.030   1
  -9   5   1 767.630 160.160   1
   9  -5  -1 579.690 269.240   1
   9  -5  -1 317.620 141.940   1
   4  -1 -11 -13.290 208.380   1
  -4   1  11 251.470 184.600   1
   4  -1 -11 212.820 143.640   1
   9  -5   0 6310.77 641.590   1
   9  -5   0 4731.10 512.110   1
  -9   5   0 5979.15 525.270   1
  -4  -3  -9 493.940 252.740   1
   4   3   9 303.950 184.880   1
   4   3   9 276.340 247.590   1
   4   3   9 885.800 293.330   1
  -5  -7  -1 83.7400 213.240   1
   5   7   1 25.7600 110.200   1
   8   0  -7 691.580 254.980   1
  -8   0   7 477.360 163.440   1
   8   0  -7 727.350 204.150   1
  -1  -7  -7 1166.24 384.250   1
   1   7   7 1469.96 334.810   1
   1   7   7 119.640 253.600   1
   4   1  10 537.920 158.800   1
   4   1  10 463.870 214.140   1
  -4  -1 -10 717.890 248.320   1
   4   1  10 427.950 249.130   1
   7  -5  -7 1510.31 312.990   1
  -7   5   7 1993.39 250.970   1
  -7   5   7 1455.28 427.560   1
  -5   3  10 1227.83 238.550   1
   5  -3 -10 2128.10 288.140   1
  -5   3  10 1851.54 400.390   1
   5  -3 -10 1683.57 364.520   1
   5   2 -10 1061.61 274.310   1
   5   2 -10 831.730 167.790   1
  -5  -2  10 626.320 158.550   1
   0   8  -7 242.440 219.740   1
   0   8  -7 -65.720 126.360   1
   7   5  -3 -14.860 122.430   1
   5   5   6 3133.33 443.960   1
   0  -4  11 -109.20 125.580   1
   0  -4  11 45.2400 112.820   1
   0   4 -11 -74.070 108.890   1
   0   4 -11 -219.74 185.860   1
   5  -8  -5 1519.89 334.760   1
  -5   8   5 1614.42 294.270   1
  -7   4  -7 1094.43 270.310   1
   7  -4   7 2054.69 267.650   1
   2  -9  -4 1841.71 353.040   1
  -2   9   4 1112.96 314.370   1
  -2  -5  10 1180.76 210.540   1
   2   5 -10 1079.86 200.670   1
   2   5 -10 540.330 245.210   1
  -5   9  -2 132.360 144.370   1
   3   7  -7 948.500 356.450   1
   3   7  -7 1666.94 195.730   1
   7   5   1 1462.15 262.950   1
  -1   9  -5 579.020 222.350   1
  -1   9  -5 525.150 145.890   1
  -3  -6  -7 996.600 370.690   1
   3   6   7 1894.45 303.980   1
   3   6   7 1263.61 416.220   1
  -5   6   8 325.710 151.440   1
   5  -6  -8 -32.530 285.640   1
  -7  -3   7 204.040 103.040   1
   7   3  -7 492.420 146.910   1
   7   3  -7 524.330 249.540   1
   2  -6  -9 1114.87 331.180   1
  -2   6   9 552.100 240.170   1
  -2   6   9 930.540 331.650   1
  -2   9  -5 622.420 230.080   1
  -2   9  -5 418.270 180.700   1
   7  -6  -6 1573.35 420.220   1
  -7   6   6 1064.54 266.600   1
  -7   7  -4 388.720 175.990   1
   7  -7   4 692.180 189.780   1
  -7   7  -4 261.520 234.640   1
   0   3  11 484.100 268.800   1
   0   3  11 -54.730 227.250   1
   0  -3 -11 625.910 269.940   1
   8   2   4 253.420 119.930   1
   8   2   4 283.220 267.810   1
  -4  -1  11 524.170 175.350   1
   4   1 -11 658.840 232.870   1
   4   1 -11 356.510 147.170   1
   3  -1  11 511.920 184.780   1
   3  -1  11 611.990 165.560   1
   8  -6  -4 1767.11 439.820   1
  -8   6   4 1182.00 262.290   1
   9  -2  -5 240.800 212.360   1
  -9   2   5 1.06000 135.280   1
  -9   2   5 -20.720 98.7400   1
   9  -2  -5 451.770 178.030   1
   9  -1  -5 1629.07 350.110   1
   9  -5  -2 694.320 264.870   1
  -9   5   2 870.300 200.420   1
   4   7   4 170.500 124.460   1
   4   7   4 281.540 102.800   1
  -4  -7  -4 930.930 363.430   1
   2   9  -1 499.130 169.500   1
  -2  -9   1 1548.43 438.200   1
  -1   6   9 34.2500 273.470   1
   1  -6  -9 589.470 253.700   1
  -1   6   9 383.810 244.410   1
  -1   6   9 248.450 226.000   1
   9  -5   1 4661.42 893.150   1
   9  -5   1 3164.87 644.600   1
  -9   5  -1 4108.83 762.350   1
   2   8  -6 1820.09 365.330   1
   2   8  -6 1696.73 433.330   1
   1  -4  11 362.160 142.390   1
  -1   4 -11 277.150 153.580   1
   1  -4  11 98.3100 116.700   1
   8   1   5 2816.92 611.640   1
  -1   9   4 538.380 207.260   1
   1  -9  -4 704.680 341.630   1
   8  -2   6 978.120 332.190   1
   5  -9  -2 2515.47 514.800   1
  -5   9   2 1866.30 411.610   1
  -3   9   4 791.020 250.460   1
   3  -9  -4 1392.47 435.050   1
   4   6   6 1156.75 382.280   1
   4   6   6 316.600 188.940   1
   4   6   6 1074.35 380.820   1
  -4  -6  -6 897.540 336.430   1
   1   9  -4 288.250 118.310   1
   1   9  -4 208.230 202.350   1
  -3  -8  -3 605.290 244.740   1
   3   8   3 491.270 130.780   1
   3   8   3 499.430 178.490   1
   8  -3  -7 1686.58 465.560   1
  -8   3   7 1510.97 407.210   1
  -8   3   7 3477.19 640.000   1
  -1  -4  11 181.390 105.750   1
  -1  -4  11 43.3100 113.550   1
   1   4 -11 182.340 202.660   1
   1   4 -11 180.800 115.130   1
   8   2  -6 2869.06 561.810   1
   6   6  -4 912.050 209.370   1
   6   6  -4 498.100 234.940   1
   3  -2  11 841.730 184.190   1
   3  -2  11 1149.19 282.530   1
  -3   2 -11 1027.32 303.150   1
  -6   6  -7 825.770 250.330   1
  -6   6  -7 1003.98 345.960   1
   6  -6   7 1122.30 266.730   1
  -2  -9   0 829.840 279.560   1
   2   9   0 354.730 156.440   1
   2   9   0 360.180 128.480   1
   0   8   6 134.970 176.710   1
   0  -8  -6 -113.65 243.070   1
  -7   8   0 226.360 151.970   1
   7  -8   0 95.0200 207.050   1
   5  -6   8 1036.54 251.460   1
  -5   6  -8 876.550 277.380   1
  -5   6  -8 675.880 281.290   1
  -4   9  -4 1148.76 280.130   1
  -4   9  -4 902.420 273.410   1
  -9   4   4 1089.51 228.730   1
  -9   4   4 904.930 286.020   1
   9  -4  -4 423.160 230.710   1
   5  -5  -9 325.200 210.440   1
  -5   5   9 495.270 249.990   1
  -5   5   9 225.590 150.780   1
   6  -7  -6 3391.56 711.010   1
  -6   7   6 1975.12 450.670   1
   4   8  -1 643.290 154.850   1
  -4  -8   1 651.460 243.460   1
   6   6   2 297.190 130.120   1
  -6   8   4 2213.15 477.230   1
   6  -8  -4 2009.32 486.030   1
   9   0   3 1361.76 363.750   1
   9   0   3 1458.60 346.780   1
  -6   8  -4 1192.79 334.890   1
   6  -8   4 1294.20 299.190   1
  -6   8  -4 1280.17 292.530   1
   2   9  -2 42.5200 122.500   1
   2   9  -2 89.0500 170.610   1
   6   3   7 204.890 233.560   1
  -8   7   0 2653.64 537.280   1
   8  -7   0 3143.86 645.980   1
   3   0  11 454.910 205.540   1
   3   0  11 588.810 164.960   1
  -3   0 -11 341.930 275.910   1
  -5   7  -7 15.1700 228.460   1
   5  -7   7 217.850 167.320   1
  -5   7  -7 55.5400 221.640   1
   8  -1   6 579.270 239.720   1
   2   5   9 1649.91 536.340   1
   2   5   9 984.270 343.230   1
  -2  -5  -9 1556.96 460.240   1
  -7   8   1 717.220 199.430   1
   7  -8  -1 1239.77 367.300   1
   3  -3 -11 549.980 254.820   1
  -3   3  11 317.680 237.700   1
   3  -3 -11 175.150 121.880   1
  -3   3  11 68.7200 109.380   1
   3  -5  10 132.640 144.190   1
  -3   5 -10 39.5800 236.110   1
   9   1   2 115.670 126.630   1
   9   1   2 76.1600 205.630   1
   2  -7  -8 -35.430 222.960   1
  -2   7   8 -250.65 287.590   1
  -2   7   8 457.630 279.180   1
  -2   7   8 -719.70 218.730   1
   4   7  -6 56.5200 119.100   1
   4   7  -6 37.4700 186.970   1
  -4   4 -10 233.760 206.920   1
   4  -4  10 489.270 171.110   1
   2  -5 -10 267.460 239.410   1
  -2   5  10 868.520 269.990   1
  -2   5  10 -19.770 150.990   1
  -4   2  11 172.420 241.370   1
   4  -2 -11 -120.63 125.790   1
   7   2  -8 383.890 147.170   1
  -7  -2   8 203.020 158.650   1
   7   2  -8 227.870 225.890   1
  -3   6   9 890.650 287.170   1
   3  -6  -9 1148.53 353.410   1
  -3   6   9 1325.66 425.300   1
  -4   8   6 860.590 284.400   1
  -4   8   6 713.670 284.110   1
  -4   8   6 567.780 243.130   1
   4  -8  -6 1403.93 389.930   1
  -8   7   1 437.800 152.420   1
   8  -7  -1 777.010 272.200   1
   6   4   6 427.250 287.520   1
   7   4   4 1620.01 333.520   1
   7   4   4 3099.68 687.250   1
   7   4   4 2072.07 546.320   1
  -7   4   8 236.050 245.670   1
   7  -4  -8 382.790 211.240   1
  -7   4   8 646.260 146.790   1
  -6   4   9 -5.3100 112.450   1
   6  -4  -9 -47.570 238.710   1
  -6   4   9 45.1100 238.440   1
   2   7  -8 7.07000 123.690   1
   2   7  -8 -171.26 243.420   1
   0   9  -5 452.020 128.630   1
   0   9  -5 529.150 233.770   1
   0   9  -5 264.480 129.780   1
  -7   8  -1 12.5200 154.840   1
   7  -8   1 -91.230 217.070   1
   4   8   0 2918.49 570.190   1
  -4  -8   0 2084.36 505.090   1
   1  -5 -10 -17.080 221.260   1
  -1   5  10 161.230 209.530   1
   4   8  -2 208.050 112.560   1
   4   8  -2 64.9700 141.990   1
   9   1  -4 1303.36 313.640   1
   7   4  -6 754.710 318.600   1
   7   4  -6 1224.17 263.720   1
   7   1   7 650.220 270.860   1
  -3   8  -7 1680.18 443.110   1
  -3   8  -7 3165.39 671.590   1
  -5   7   7 1061.41 290.170   1
   5  -7  -7 1342.11 370.840   1
   9  -4   3 1668.94 382.720   1
  -9   4  -3 2248.78 436.810   1
   5   4  -9 1164.36 270.310   1
  -5  -4   9 1270.85 307.670   1
   5   4  -9 1811.08 409.690   1
   3   8  -5 365.310 227.460   1
   3   8  -5 866.310 123.390   1
   8  -3   6 4359.71 839.060   1
   4   5  -9 1104.20 257.590   1
   4   5  -9 980.910 378.230   1
   5   5  -8 1096.76 258.730   1
   5   5  -8 706.070 321.920   1
  -2  -6  -8 116.320 250.740   1
   2   6   8 72.2900 239.310   1
   2   6   8 272.510 242.990   1
   3   3 -11 164.430 144.490   1
  -3  -3  11 44.5900 131.880   1
   9  -3  -5 1150.00 331.070   1
  -9   3   5 705.790 216.280   1
  -9   3   5 1796.68 352.430   1
   9   2  -1 380.050 168.470   1
   9   2  -1 243.090 229.380   1
   8   4  -1 2585.19 511.860   1
   8   4  -1 2225.36 626.030   1
  -1   7   8 -40.870 198.090   1
  -1   7   8 89.3000 241.470   1
   1  -7  -8 -178.83 235.790   1
  -1   7   8 230.080 325.730   1
  -3   9  -5 414.450 207.120   1
  -3   9  -5 33.9500 172.510   1
  -6   7  -6 1766.20 453.270   1
  -6   7  -6 2529.59 548.180   1
   6  -7   6 2401.02 474.950   1
   5   7  -4 62.3600 187.410   1
   5   7  -4 51.5700 118.960   1
  -8   7  -1 1699.72 391.390   1
   8  -7   1 3006.70 605.750   1
   8  -7   1 1781.23 402.690   1
   9   0  -5 1808.11 392.920   1
  -1   0  12 788.270 183.070   1
  -1   0  12 908.460 246.880   1
   1   0 -12 553.600 223.000   1
   5   7   2 1.67000 112.190   1
   2   2  11 -219.53 202.630   1
   2   2  11 16.8600 155.390   1
  -2  -2 -11 -65.330 210.580   1
   8   3  -5 194.870 136.820   1
   1   8  -7 568.540 271.200   1
   1   8  -7 1192.27 281.710   1
   1   1 -12 273.430 197.360   1
  -1  -1  12 44.9400 174.560   1
  -1  -1  12 61.7500 130.150   1
  -8  -1   7 260.820 133.460   1
   8   1  -7 560.400 221.890   1
   8   1  -7 392.880 166.580   1
   7   5  -4 1301.84 272.950   1
  -2  -9  -1 98.6200 245.950   1
   2   9   1 156.660 154.670   1
   2   9   1 96.0600 112.010   1
   3   3  10 354.740 275.970   1
   3   3  10 192.480 156.050   1
  -3  -3 -10 257.910 219.490   1
   3   3  10 338.600 278.440   1
   8   3   3 201.480 111.910   1
   8   3   3 435.780 233.020   1
  -8   5  -5 835.250 197.610   1
   8  -5   5 608.300 189.750   1
  -8   5  -5 640.710 169.440   1
   0   1 -12 217.360 202.350   1
   0  -1  12 500.280 189.840   1
   0  -1  12 633.420 162.750   1
   8   4  -2 136.030 135.420   1
   8   4  -2 154.440 237.110   1
   9   2  -2 93.4900 162.790   1
  -5   9  -3 383.390 164.910   1
   5   2   9 238.370 239.430   1
   5   2   9 251.660 201.270   1
   5   2   9 102.290 145.060   1
  -5  -2  -9 17.3300 184.330   1
   3  -7  -8 723.440 267.260   1
  -3   7   8 508.260 240.920   1
  -3   7   8 309.580 280.230   1
   0   0  12 341.000 188.880   1
   0   0 -12 494.300 205.680   1
   0   0  12 760.280 183.030   1
  -6   1  10 284.960 210.720   1
   6  -1 -10 550.410 170.120   1
   6  -1 -10 629.540 315.900   1
   9   2   0 516.400 243.800   1
   9   2   0 759.720 179.730   1
   0   6   9 1237.94 430.100   1
   0   6   9 869.620 362.340   1
   0  -6  -9 1107.09 350.800   1
  -7   1   9 194.590 185.430   1
   7  -1  -9 596.550 265.700   1
   7  -1  -9 330.200 160.880   1
   9  -5  -3 188.800 218.510   1
  -9   5   3 114.280 108.830   1
   8   4   0 871.740 392.450   1
   8   4   0 1233.81 283.670   1
   8   4   0 1109.75 334.550   1
  -6   5  -8 52.4000 203.170   1
   6  -5   8 85.8200 166.730   1
  -9   5  -2 865.580 147.750   1
   9  -5   2 448.040 169.930   1
   9  -2   4 1014.62 289.280   1
  -6   2  -9 52.5100 176.170   1
   6  -2   9 -116.36 168.370   1
   1   9   3 -35.210 175.270   1
  -1  -9  -3 93.7000 262.520   1
   7   5   2 546.150 148.300   1
   7   5   2 1064.05 350.800   1
   8  -7  -2 1334.05 350.920   1
  -8   7   2 1278.22 276.260   1
  -7   8   2 1114.52 271.300   1
   7  -8  -2 1032.59 352.910   1
   6   0 -10 -3.4100 134.240   1
   6   0 -10 17.2500 221.370   1
  -6   0  10 -38.020 144.280   1
   6  -1   9 719.310 157.600   1
  -6   1  -9 704.710 249.480   1
   6  -1   9 1532.75 360.220   1
   2   9  -3 349.700 134.060   1
   2   9  -3 273.510 182.840   1
   2  -4  11 935.230 227.790   1
  -2   4 -11 923.740 280.000   1
   2  -4  11 743.690 158.060   1
  -3   5  10 289.180 227.420   1
  -3   5  10 8.46000 125.890   1
   4   2 -11 1319.60 347.690   1
  -4  -2  11 517.460 169.820   1
   4   2 -11 884.900 209.480   1
   3  -3  11 6.47000 125.090   1
  -3   3 -11 259.440 199.050   1
   3  -3  11 167.080 159.920   1
   4   6  -8 -349.75 223.640   1
   4   6  -8 -126.65 127.730   1
   0   9   4 364.380 210.460   1
   0  -9  -4 486.630 308.900   1
   6   4  -8 1459.51 308.540   1
  -6  -4   8 1707.23 352.540   1
   6   4  -8 925.080 369.650   1
  -4   7  -8 1690.98 441.750   1
   4  -7   8 1945.52 397.630   1
  -4   7  -8 1231.00 394.980   1
  -4  -8  -1 2368.47 499.500   1
   4   8   1 1937.41 406.690   1
  -1  -3 -11 190.550 338.170   1
   1   3  11 243.280 227.740   1
   1   3  11 231.880 171.940   1
   4   8  -3 -73.040 105.490   1
   4   8  -3 90.8300 191.130   1
  -8   6  -4 689.950 189.990   1
  -8   6  -4 877.700 234.670   1
   8  -6   4 383.180 188.040   1
   4   4 -10 431.320 235.640   1
  -4  -4  10 307.420 128.870   1
   4   4 -10 333.030 150.540   1
  -7   8  -2 123.390 191.750   1
   7  -8   2 228.580 252.810   1
   4  -9  -4 736.370 280.230   1
  -4   9   4 84.7900 155.940   1
  -4   9   4 222.590 160.750   1
   7   0  -9 -139.28 210.790   1
   7   0  -9 -50.800 141.600   1
  -7   0   9 -189.46 130.930   1
   2   4  10 393.010 269.620   1
   2   4  10 211.470 250.000   1
   2   4  10 320.620 300.180   1
  -2  -4 -10 269.460 313.060   1
   8  -5  -6 1787.19 431.590   1
  -8   5   6 2409.24 455.630   1
  -8   5   6 1745.36 446.530   1
   7  -7  -5 1187.79 400.690   1
  -7   7   5 1048.63 250.990   1
  -2   0  12 1574.29 359.920   1
   2   0 -12 1385.50 364.430   1
   7  -6   6 17.3800 164.210   1
  -7   6  -6 101.930 243.180   1
  -7   6  -6 462.770 194.480   1
   5  -5   9 1374.75 309.630   1
  -5   5  -9 809.130 297.700   1
   0   5  10 52.2200 289.240   1
   0  -5 -10 -242.84 246.420   1
   0   5  10 -193.76 215.180   1
   6   2   8 527.740 238.740   1
  -2  -4  11 2020.15 398.880   1
   2   4 -11 2140.52 437.070   1
   2   4 -11 1473.66 378.030   1
   9  -1   4 1302.61 290.260   1
   9  -1   4 731.490 243.530   1
  -1   7  -9 32.8100 116.940   1
  -1   7  -9 191.790 215.200   1
  -1   7  -9 162.230 136.400   1
  -7   2   9 39.5100 179.600   1
  -7   2   9 255.990 128.990   1
   7  -2  -9 182.900 165.430   1
   7  -2  -9 -48.940 220.310   1
   4  -6   9 -165.32 175.970   1
  -4   6  -9 -66.900 194.500   1
   8   0   6 1401.85 350.930   1
   9  -3   4 97.3900 193.200   1
  -9   3  -4 432.830 132.510   1
  -1   1  12 -122.32 175.760   1
  -1   1  12 -7.1300 175.470   1
   1  -1 -12 -267.90 227.320   1
   5  -9  -3 4015.87 813.660   1
  -5   9   3 2681.12 574.910   1
  -1   6 -10 544.520 214.530   1
  -1   6 -10 1900.33 385.730   1
   1  -6  10 1757.82 353.810   1
  -1   6 -10 1480.94 432.740   1
  -5   1 -10 -16.330 194.820   1
   5  -1  10 209.470 131.560   1
   5  -1  10 73.6900 175.280   1
   0  -6  10 1387.70 293.900   1
   0   6 -10 1568.96 341.420   1
   0   6 -10 534.490 278.180   1
   5  -2  10 3034.51 595.670   1
   5  -2  10 1887.45 387.960   1
  -5   2 -10 2334.69 546.160   1
  -6   2  10 736.480 240.780   1
   6  -2 -10 427.260 155.890   1
   6  -2 -10 988.870 332.050   1
  -6   2  10 360.050 118.220   1
   2   1 -12 147.960 127.110   1
  -2  -1  12 -17.610 138.910   1
   2   1 -12 129.040 214.760   1
   0   2 -12 297.430 212.060   1
   0  -2  12 -5.6100 138.470   1
   0  -2  12 109.680 149.970   1
   0   7  -9 -201.14 136.350   1
   0   7  -9 -472.35 241.400   1
   8   4  -3 -290.20 127.000   1
   3   1  11 1369.74 360.920   1
   3   1  11 770.810 194.740   1
  -3  -1 -11 1302.58 363.480   1
   2   8   5 1080.62 381.050   1
  -2  -8  -5 1787.88 461.530   1
   8  -7   2 2141.43 496.620   1
   8  -7   2 1311.66 315.020   1
  -8   7  -2 1956.26 451.350   1
   5   6   5 -38.360 101.080   1
   5   6   5 4.05000 286.330   1
   9   2  -3 -14.050 150.880   1
   4   2  10 133.720 284.020   1
  -4  -2 -10 37.0700 272.930   1
   4   2  10 209.690 157.040   1
   4   2  10 258.140 223.840   1
  -1  -2  12 1243.79 279.010   1
  -1  -2  12 1310.60 300.270   1
   1   2 -12 1789.68 426.660   1
  -2  10  -1 533.920 190.880   1
   2 -10   1 777.760 377.450   1
  -6   3  -9 1642.21 418.730   1
   6  -3   9 4008.21 755.090   1
   9   2   1 908.390 243.900   1
   9   2   1 947.310 347.040   1
  -1   1 -12 514.290 254.510   1
   1  -1  12 460.440 158.130   1
   1  -1  12 131.570 168.450   1
  -2  10   0 5247.24 1024.32   1
   2 -10   0 7639.30 730.680   1
   0   7   8 2460.55 633.120   1
   0   7   8 1830.05 505.740   1
   0   7   8 890.580 354.740   1
   0  -7  -8 2844.34 612.400   1
   7  -2   8 1690.59 369.910   1
   8   4   1 430.820 323.290   1
   8   4   1 979.130 304.040   1
   8   4   1 1042.23 248.080   1
   0   1  12 423.700 182.050   1
   0   1  12 96.8400 193.470   1
   0  -1 -12 99.9600 211.230   1
   6   5   5 1753.04 541.290   1
   6   5   5 894.220 358.830   1
   6   3  -9 -23.560 125.450   1
  -6  -3   9 2.72000 149.400   1
   6   3  -9 -64.250 258.500   1
  -3  -7  -6 -9.7000 259.360   1
   3   7   6 14.4700 164.600   1
   3   7   6 175.830 231.760   1
  -7   5  -7 219.510 219.860   1
   7  -5   7 59.7100 167.310   1
  -8   4  -6 279.510 166.850   1
   8  -4   6 506.970 212.880   1
   4  -6  -9 -389.81 244.380   1
  -4   6   9 -28.610 147.270   1
  -4   6   9 -274.46 239.830   1
   2  -1 -12 -82.340 235.140   1
  -2   1  12 -148.74 164.990   1
   3   6  -9 -97.050 133.900   1
   3   6  -9 -499.86 242.180   1
  -8   4   7 210.440 226.240   1
   8  -4  -7 357.790 210.470   1
  -8   4   7 488.370 130.030   1
  -5   4  10 -45.670 239.910   1
   5  -4 -10 145.850 256.440   1
  -5   4  10 133.310 124.650   1
   5   3 -10 317.320 134.580   1
   5   3 -10 790.880 241.840   1
  -5  -3  10 150.140 125.770   1
   6  -9   0 3351.79 685.620   1
  -6   9   0 2246.81 464.190   1
  -5   8  -6 19.2300 208.380   1
   5  -8   6 144.780 136.140   1
  -5   8  -6 107.840 204.140   1
   6   6  -5 203.450 135.480   1
   6   6  -5 416.660 199.590   1
  -1   0 -12 21.2000 200.230   1
   1   0  12 182.060 171.540   1
   1   0  12 413.910 165.170   1
   2  -7   9 797.580 178.380   1
  -2   7  -9 909.450 354.340   1
  -2   7  -9 457.770 184.310   1
  -3  -5  10 828.070 182.590   1
   3   5 -10 1189.42 269.120   1
   3   5 -10 751.030 329.210   1
  -8   6   5 199.130 120.440   1
   8  -6  -5 249.130 231.500   1
   7  -1   8 320.270 184.790   1
   7  -1   8 141.060 198.830   1
   1 -10   1 277.560 355.330   1
  -1  10  -1 -221.81 154.080   1
   6   0   9 166.770 214.720   1
   6   0   9 -317.31 182.570   1
   6   0   9 -76.980 106.420   1
  -6   0  -9 -69.390 148.240   1
   1   9  -5 940.250 356.890   1
   1   9  -5 1183.50 250.050   1
   5   6  -7 168.220 127.620   1
   5   6  -7 180.550 199.380   1
   6   5  -7 346.780 234.020   1
   6   5  -7 805.510 192.940   1
   6   1 -10 1286.68 383.550   1
  -6  -1  10 812.530 195.100   1
   6   1 -10 734.600 204.360   1
   2   9   2 118.320 171.280   1
  -2  -9  -2 203.800 235.530   1
   6   6   3 648.900 146.660   1
   6   6   3 1572.96 402.840   1
   1 -10   0 1343.25 402.350   1
  -1  10   0 188.850 190.980   1
  -1  -8  -6 1116.48 327.460   1
   1   8   6 1139.39 267.310   1
   1   8   6 597.540 270.250   1
   6  -9   1 1751.58 371.850   1
  -6   9  -1 923.470 261.140   1
   2   7   7 653.520 276.320   1
  -2  -7  -7 357.020 399.820   1
   2   7   7 323.550 167.340   1
   9   1   3 2141.49 460.590   1
   9   1   3 2122.07 376.230   1
  -4   3  11 2235.11 458.570   1
   4  -3 -11 1432.96 300.880   1
  -4   3  11 808.510 226.770   1
   4  -3 -11 1221.47 384.440   1
   9  -4  -5 120.960 243.980   1
  -9   4   5 215.590 113.060   1
  -9   4   5 342.400 208.070   1
  -3  10   0 5.81000 152.550   1
   3 -10   0 158.370 307.120   1
   6  -9  -1 1862.01 402.100   1
  -6   9   1 1471.29 287.200   1
  -2  10  -2 78.3400 159.300   1
  -2  10  -2 -146.79 153.660   1
  -8   7   3 1011.98 229.550   1
   8  -7  -3 1376.44 339.040   1
   2  -9  -5 679.870 338.960   1
  -2   9   5 527.790 245.770   1
  -1   4  11 647.740 251.690   1
  -1   4  11 350.740 292.450   1
   1  -4 -11 646.460 325.270   1
  -7   7  -5 2785.37 500.780   1
  -7   7  -5 2014.10 457.620   1
   7  -7   5 2945.40 500.960   1
  -2   8   7 899.600 368.890   1
  -2   8   7 1079.39 412.220   1
   2  -8  -7 2182.04 465.380   1
  -2   8   7 2244.82 483.780   1
   3 -10   1 3436.50 658.180   1
  -3  10  -1 1541.32 340.240   1
   2  -4 -11 -198.54 270.240   1
  -2   4  11 -90.330 216.300   1
  -2   4  11 107.140 239.090   1
   5   0  10 484.160 210.810   1
  -5   0 -10 401.160 246.240   1
   5   0  10 288.840 153.850   1
   4  -7  -8 1614.59 357.370   1
  -4   7   8 918.570 301.140   1
   2  -6  10 551.830 175.090   1
  -2   6 -10 300.340 208.130   1
  -2   6 -10 318.340 190.710   1
  -1   9  -6 -25.810 138.370   1
  -1   9  -6 54.6800 202.860   1
   2 -10  -1 3116.40 599.420   1
  -2  10   1 2428.53 494.610   1
   1  -2  12 479.900 187.560   1
   1  -2  12 415.390 135.220   1
  -1   2 -12 347.360 258.110   1
   5   0 -11 233.360 233.690   1
  -5   0  11 171.360 166.200   1
   5   0 -11 345.970 137.200   1
   1   6 -10 163.190 132.280   1
   1   6 -10 -29.810 248.870   1
   9   1  -5 3.49000 159.170   1
  -7   8   3 551.380 171.440   1
   7  -8  -3 -6.3000 237.820   1
  -5   3 -10 741.460 295.490   1
   5  -3  10 1271.75 274.640   1
   9  -1  -6 752.790 208.770   1
  -9   2   6 205.510 106.010   1
   9  -2  -6 -135.59 164.290   1
  -9   2   6 41.5800 138.240   1
   9  -2  -6 200.540 207.300   1
   7  -3   8 413.150 213.630   1
  -7   3  -8 288.640 186.270   1
   5  -1 -11 781.290 202.730   1
   5  -1 -11 1243.04 367.830   1
  -5   1  11 1645.53 320.480   1
   3   8   4 737.560 255.050   1
  -3  -8  -4 2397.01 503.850   1
  -4   9  -5 -114.12 181.810   1
  -4   9  -5 146.970 198.830   1
   9  -6   0 2209.69 426.170   1
  -9   6   0 3040.84 474.510   1
   9  -6   0 1642.37 337.960   1
  -2   9  -6 393.620 212.490   1
  -2   9  -6 82.9900 149.180   1
  -8   1   8 604.910 199.600   1
   8  -1  -8 1258.48 253.510   1
   8  -1  -8 940.590 310.940   1
   9  -6  -1 1730.33 455.430   1
  -9   6   1 2129.23 366.630   1
   7   1  -9 350.220 147.920   1
   7   1  -9 246.160 229.590   1
  -7  -1   9 126.560 123.180   1
  -1  10  -2 293.530 150.240   1
  -1  10  -2 749.610 238.010   1
  -4   8  -7 2561.69 565.830   1
  -4   8  -7 4137.58 446.170   1
   4  -8   7 3610.21 587.510   1
   2   9  -4 1491.78 334.860   1
   2   9  -4 1443.59 250.880   1
  -9   5   4 260.960 116.180   1
   9  -5  -4 214.080 260.210   1
   5   7  -5 -30.990 117.070   1
   5   7  -5 -169.62 194.350   1
  -5   8   6 26.2700 187.570   1
  -5   8   6 134.610 213.700   1
   5  -8  -6 527.110 278.220   1
   4   8   2 880.400 228.560   1
   9   0   4 71.6500 144.910   1
   9   0   4 352.980 217.570   1
   7   3   6 234.780 218.550   1
  10  -2  -1 25.0300 220.120   1
  10  -2  -1 165.530 143.000   1
 -10   2   1 -59.230 116.630   1
   5   7   3 1171.47 226.240   1
   9  -5   3 632.670 206.400   1
  -9   5  -3 690.060 192.890   1
   4   8  -4 302.900 266.850   1
   4   8  -4 124.650 110.050   1
   3  -9  -5 757.100 352.080   1
  -3   9   5 -4.1800 192.760   1
  -3   9   5 166.300 194.360   1
   6  -8  -5 2300.69 460.040   1
  -6   8   5 1411.96 343.210   1
   6  -8   5 461.460 181.800   1
  -6   8  -5 -62.950 216.000   1
  -6   8  -5 641.250 218.030   1
  -1   8   7 -31.680 230.080   1
  -1   8   7 202.300 267.320   1
   1  -8  -7 933.360 281.410   1
   2   2 -12 642.490 163.930   1
  -2  -2  12 465.110 153.360   1
   2   2 -12 203.000 199.520   1
   7  -3  -9 1039.73 307.610   1
  -7   3   9 875.800 282.080   1
  -7   3   9 1521.28 259.560   1
   7  -3  -9 1123.97 254.490   1
   8   2   5 657.250 351.280   1
   7   5  -5 1808.19 313.400   1
  -5   9  -4 4077.88 647.300   1
  -5   9  -4 1963.13 450.830   1
   7  -8   3 405.430 158.890   1
  -7   8  -3 626.500 216.730   1
   1   7  -9 97.4700 215.060   1
   1   7  -9 -81.110 134.910   1
   9  -4   4 651.930 228.860   1
  -9   4  -4 679.980 162.620   1
   8  -2  -8 554.630 539.850   1
  -8   2   8 51.3300 101.710   1
   8  -2  -8 88.1500 256.700   1
  -8   2   8 -12.230 158.010   1
  -3   8   7 491.390 253.680   1
  -3   8   7 714.950 315.390   1
  -3   8   7 847.110 288.920   1
   3  -8  -7 1172.91 367.510   1
   1  -9  -5 1825.05 415.650   1
  -1   9   5 821.230 275.730   1
  -1   8  -8 -2.4800 147.410   1
  -1   8  -8 168.400 120.390   1
  -1   8  -8 108.410 227.540   1
   1 -10  -1 4360.60 559.670   1
  -1  10   1 2534.99 495.330   1
  -4   5  10 369.390 150.570   1
  -4   5  10 -43.200 267.880   1
  -3  10   1 631.120 189.790   1
   3 -10  -1 212.580 278.850   1
  10  -2   0 139.470 173.910   1
 -10   2   0 12.1700 105.720   1
  10  -2   0 74.2000 167.580   1
   1   6   9 640.920 359.140   1
  -1  -6  -9 770.440 292.510   1
   1   6   9 448.150 252.090   1
   4   7   5 -99.600 119.610   1
   4   7   5 -179.74 219.610   1
  -4  -7  -5 -50.050 290.310   1
   3   0 -12 173.330 214.470   1
  -3   0  12 326.700 165.530   1
   3   0 -12 210.190 120.230   1
   0   5 -11 452.620 150.540   1
   0   5 -11 214.570 228.550   1
   0  -5  11 289.130 116.810   1
   0  -5  11 486.770 155.650   1
  -3  10  -2 2578.23 469.660   1
   8   4  -4 141.500 127.970   1
  -6   6   8 344.960 284.730   1
   6  -6  -8 440.310 225.900   1
  -6   6   8 177.160 145.490   1
   9  -6   1 -67.870 246.710   1
  -9   6  -1 -8.9000 151.410   1
   9  -6   1 79.9100 153.080   1
   6  -9   2 1512.70 417.040   1
  -6   9  -2 465.570 227.120   1
   7   5   3 -4.4700 246.540   1
   7   5   3 -23.360 99.7700   1
   7   5   3 228.010 261.960   1
  10  -1  -1 797.010 218.080   1
  10  -1  -1 539.670 202.700   1
 -10   2   2 2118.87 338.640   1
  10  -2  -2 1986.61 373.530   1
   4   5   8 177.400 369.750   1
   4   5   8 -271.12 205.210   1
  -4  -5  -8 -42.190 278.560   1
  -1   2  12 209.730 224.260   1
  -1   2  12 396.860 177.920   1
   1  -2 -12 208.720 230.590   1
   2   8  -7 1560.29 284.560   1
   2   8  -7 1070.38 307.130   1
   9   2  -4 1179.93 239.230   1
   3   8  -6 1898.07 455.720   1
   3   8  -6 1670.35 293.550   1
   8   0  -8 -12.410 195.600   1
   8   0  -8 188.700 152.640   1
  -8   0   8 32.3800 141.250   1
   4  -5  10 168.870 166.460   1
  -4   5 -10 217.490 208.310   1
   9  -6  -2 1505.25 396.280   1
  -9   6   2 1942.56 335.170   1
   1  -5  11 457.820 143.920   1
  -1   5 -11 443.690 112.870   1
  -1   5 -11 17.7600 238.440   1
   0   9  -6 393.510 142.590   1
   0   9  -6 721.880 263.160   1
   0   9  -6 730.810 164.090   1
  -1  -1 -12 -112.52 242.300   1
   1   1  12 125.290 222.420   1
   1   1  12 201.090 149.150   1
   7   0   8 993.330 314.450   1
   7   0   8 813.710 299.240   1
  -6   3  10 2868.62 474.920   1
   6  -3 -10 2685.54 456.640   1
  -6   3  10 2717.50 558.080   1
   6  -3 -10 2152.78 523.850   1
   0  -4 -11 2409.48 534.920   1
   0   4  11 1888.94 458.180   1
   0   4  11 1635.57 425.640   1
   8   2  -7 366.080 144.820   1
  10  -3  -1 472.870 169.730   1
 -10   3   1 908.160 191.300   1
   6  -9  -2 891.690 319.000   1
  -6   9   2 690.300 199.130   1
  -7   6   7 -120.17 127.680   1
   7  -6  -7 -233.29 223.700   1
  -2   8  -8 -63.120 241.140   1
  -2   8  -8 -90.350 172.790   1
   9   2   2 1431.85 381.270   1
   9   2   2 1201.84 255.950   1
   7   2   7 665.970 300.910   1
   1   5  10 133.810 237.130   1
  -1  -5 -10 195.000 284.420   1
   1   5  10 103.430 327.250   1
  -8   7  -3 751.560 262.160   1
   8  -7   3 710.660 249.960   1
   8  -7   3 1136.80 358.280   1
   5   1 -11 385.490 207.640   1
  -5  -1  11 240.040 140.780   1
   5   1 -11 226.440 132.430   1
   4  -1  11 324.600 137.520   1
  -4   1 -11 100.190 191.010   1
   4  -1  11 247.950 195.990   1
   3  -4 -11 202.790 294.200   1
  -3   4  11 292.650 253.000   1
  -3   4  11 38.1700 110.380   1
   0   8  -8 554.250 186.960   1
   0   8  -8 232.950 232.880   1
   3  -4  11 1169.51 241.380   1
  -3   4 -11 898.840 317.750   1
   5   4   8 570.120 283.470   1
  10  -1   0 2324.30 414.720   1
  10  -1   0 2057.87 407.790   1
   0  10  -1 193.100 153.550   1
   0 -10   1 -408.92 383.100   1
   9   0  -6 248.020 180.900   1
   0  -3  12 76.7300 130.870   1
   0  -3  12 -50.860 116.610   1
   0   3 -12 -19.830 185.090   1
   8   3  -6 46.6100 140.030   1
   8   4   2 12.0000 111.830   1
   8   4   2 189.650 297.350   1
   8   4   2 200.860 203.610   1
  -3   1  12 718.030 255.660   1
   3  -1 -12 827.110 313.220   1
   9  -3  -6 1554.02 421.970   1
  -9   3   6 977.870 331.200   1
  -9   3   6 2517.04 394.520   1
 -10   3   0 2052.66 345.360   1
  10  -3   0 1963.90 385.640   1
   3   1 -12 1053.71 285.540   1
   3   1 -12 507.590 153.530   1
  -3  -1  12 480.600 160.850   1
   3   7  -8 1545.66 280.190   1
   3   7  -8 956.330 372.570   1
   4   4   9 1267.00 311.040   1
  -4  -4  -9 1337.70 381.170   1
   7   3  -8 173.500 193.850   1
  -7  -3   8 21.7400 138.930   1
   7   3  -8 -105.51 127.020   1
  -5   2  11 -82.640 208.190   1
   5  -2 -11 90.5200 147.030   1
   5  -2 -11 97.7500 243.180   1
   8   3   4 524.360 297.860   1
  10  -1  -2 980.870 255.360   1
  -2   2  12 308.270 197.050   1
   2  -2 -12 433.360 238.410   1
  -6   4  -9 -68.130 183.050   1
   6  -4   9 137.480 168.970   1
  -2  10  -3 237.550 184.870   1
  -2  10  -3 212.410 159.680   1
  -4   2 -11 469.360 240.740   1
   4  -2  11 521.730 175.080   1
   4  -2  11 1272.13 280.810   1
  -7   5   8 537.540 313.980   1
   7  -5  -8 946.200 291.940   1
  -7   5   8 1061.52 214.360   1
   0 -10   0 1618.48 468.230   1
   0  10   0 415.110 190.870   1
   1   9   4 -84.640 197.590   1
  -1  -9  -4 117.170 225.740   1
   7   4   5 851.310 380.090   1
   4   7  -7 243.930 133.840   1
   4   7  -7 265.250 208.100   1
   8   1   6 36.4700 253.800   1
  -3   9  -6 -28.970 187.420   1
  -3   9  -6 644.640 258.770   1
   2 -10  -2 2327.28 511.360   1
  -2  10   2 1603.65 394.430   1
   3   9  -1 -134.79 124.380   1
  -3  -9   1 -178.37 224.740   1
   5  -9  -4 -220.11 273.970   1
  -5   9   4 15.9300 157.740   1
   7   4  -7 2186.18 364.380   1
   7   4  -7 1123.80 360.270   1
   3  -7   9 2249.72 376.380   1
  -3   7  -9 1781.25 410.780   1
  -3   7  -9 858.130 358.610   1
  -1  -3  12 16.5800 121.440   1
   1   3 -12 106.170 207.420   1
   1   3 -12 196.020 119.410   1
   1   5 -11 1386.59 274.360   1
  -1  -5  11 1194.15 227.380   1
  -1  -5  11 948.300 223.260   1
   1   5 -11 500.880 291.860   1
 -10   3   2 -315.83 111.450   1
   4   3 -11 345.190 148.220   1
  -4  -3  11 251.800 124.410   1
   4   3 -11 6.43000 247.090   1
  -1  10  -3 197.520 139.810   1
  -1  10  -3 570.980 205.950   1
   2  -1  12 990.490 257.560   1
   2  -1  12 419.930 159.300   1
  -2   1 -12 655.060 309.310   1
   5   5   7 421.300 304.540   1
  -6   5   9 1223.69 388.920   1
  -6   5   9 621.970 197.680   1
   6  -5  -9 816.150 308.200   1
  10  -2   1 976.060 261.540   1
  10  -2   1 1093.62 245.250   1
 -10   2  -1 952.230 203.780   1
   0   2  12 599.790 270.650   1
   0   2  12 11.7600 183.140   1
   0  -2 -12 918.210 304.430   1
  -3  -4  11 649.170 175.640   1
   3   4 -11 866.590 275.800   1
   3   4 -11 1190.18 235.150   1
  -4  10   0 696.160 223.960   1
  -2  -3 -11 1096.05 392.300   1
   2   3  11 454.340 230.530   1
   2   3  11 572.530 205.410   1
   0  10  -2 58.4100 144.020   1
   0  10  -2 297.250 184.260   1
  -6   7   7 1217.53 299.430   1
   6  -7  -7 1542.75 372.090   1
  -4  10  -1 100.970 145.870   1
   4 -10   1 803.930 313.160   1
  -3  -9   0 383.020 221.380   1
   3   9   0 539.980 160.610   1
   3   9  -2 209.400 125.290   1
   3   9  -2 231.710 155.790   1
   3   5   9 508.380 352.270   1
   3   5   9 498.540 262.620   1
  -3  -5  -9 848.150 390.830   1
  -1   3 -12 1253.41 317.300   1
   1  -3  12 1641.28 291.120   1
   1  -3  12 1152.28 238.540   1
   1   7   8 1200.04 427.290   1
  -1  -7  -8 1297.48 390.810   1
   1   7   8 1342.19 350.170   1
   8  -3  -8 399.050 287.340   1
   8  -3  -8 783.600 203.090   1
  -8   3   8 720.680 164.720   1
  -8   3   8 493.540 222.070   1
   6   1   9 3773.75 670.400   1
   6   1   9 4330.61 480.410   1
   3   2  11 177.890 216.780   1
   3   2  11 -24.960 157.080   1
  -3  -2 -11 -92.080 223.890   1
  -3  10   2 265.770 170.580   1
   3 -10  -2 540.910 309.960   1
   9  -2   5 844.790 261.610   1
   9  -2   5 950.580 217.620   1
   7  -4   8 864.260 225.920   1
  -7   4  -8 201.730 197.200   1
  -4   0 -11 742.960 274.650   1
   4   0  11 876.160 240.090   1
   4   0  11 847.380 284.510   1
   8  -2   7 821.040 267.430   1
  10  -2  -3 1939.55 392.760   1
 -10   2   3 2573.36 396.480   1
   4  -9  -5 1264.31 360.920   1
  -4   9   5 459.180 224.630   1
  -4   9   5 384.050 214.650   1
  -1  10   2 982.390 321.790   1
   1 -10  -2 1850.46 453.020   1
  -8   6  -5 1279.47 302.770   1
  -8   6  -5 1024.48 237.420   1
   8  -6   5 1001.06 237.610   1
   6   2 -10 656.710 174.210   1
   6   2 -10 960.810 320.350   1
  -6  -2  10 550.530 176.720   1
   2   0  12 340.290 235.220   1
  -2   0 -12 459.960 248.500   1
   2   0  12 468.410 159.810   1
  10  -3   1 3609.88 605.430   1
 -10   3  -1 4614.59 291.400   1
  -2  -9  -3 300.420 215.820   1
   2   9   3 -107.25 165.100   1
  -5  -1 -10 374.450 290.800   1
   5   1  10 120.810 220.210   1
   5   1  10 132.610 141.750   1
   5   1  10 313.130 255.900   1
   0   8   7 69.1000 211.930   1
   0   8   7 -19.360 218.330   1
   0  -8  -7 231.130 277.450   1
   2  -2  12 105.230 192.240   1
   2  -2  12 24.1000 121.970   1
  -2   2 -12 -217.14 216.960   1
  10  -1   1 93.6500 219.070   1
  10  -1   1 220.130 164.010   1
  -3  10  -3 825.290 240.100   1
  -3  10  -3 589.180 204.550   1
   4   6   7 1212.93 367.760   1
   4   6   7 1280.27 380.700   1
   0 -10  -1 2307.36 526.090   1
   0  10   1 1315.90 335.100   1
  -3   6 -10 652.350 234.070   1
   3  -6  10 610.130 170.010   1
   9  -6   2 293.050 267.320   1
  -9   6  -2 16.9700 167.860   1
   9  -6   2 209.020 156.200   1
   8  -7  -4 2959.18 561.870   1
  -8   7   4 2715.36 434.700   1
   4  -8  -7 524.760 288.340   1
  -4   8   7 245.490 211.920   1
  -4   8   7 -183.39 267.410   1
   6   7  -1 2517.46 403.240   1
   0   9   5 -157.52 255.020   1
   0  -9  -5 515.260 264.010   1
  -4  10   1 65.4700 149.550   1
   4 -10  -1 -29.490 247.280   1
  -8   5  -6 869.040 275.210   1
   8  -5   6 1195.67 285.390   1
   5  -4  10 212.500 183.350   1
  -5   4 -10 107.700 205.760   1
   2  -5  11 756.790 186.020   1
  -2   5 -11 437.150 253.530   1
   2   6 -10 -24.540 272.770   1
   2   6 -10 105.210 127.860   1
   3   6   8 568.390 306.670   1
   9   3  -1 234.060 146.100   1
   9   3  -1 -278.26 220.720   1
  10  -1  -3 102.550 177.090   1
  10   0  -1 233.570 172.050   1
  -9   6   3 1864.82 311.370   1
   9  -6  -3 1664.14 353.460   1
   5   3   9 205.260 208.050   1
   5   3   9 -375.58 255.510   1
   7   6  -1 197.840 127.020   1
  -6   7  -7 3971.60 698.420   1
   6  -7   7 4048.66 668.280   1
  -6   7  -7 2771.54 590.290   1
   8  -1   7 124.770 164.230   1
   8  -1   7 -65.470 192.750   1
   7  -8  -4 252.380 270.520   1
  -7   8   4 325.300 150.160   1
   7  -7  -6 628.820 286.980   1
  -7   7   6 511.850 164.700   1
  -6   6  -8 267.940 211.020   1
   6  -6   8 340.580 175.020   1
   6   7  -2 1121.32 214.510   1
   9  -3   5 1133.04 275.840   1
  -5   6   9 274.990 264.960   1
  -5   6   9 746.260 229.800   1
   5  -6  -9 274.610 220.460   1
   9  -1   5 1544.33 377.260   1
  -6   9  -3 80.3000 161.470   1
  -6   9  -3 241.950 173.600   1
   4  -3  11 237.330 199.510   1
   4  -3  11 251.170 112.190   1
  -4   3 -11 49.9300 205.150   1
   4 -10   2 2690.51 604.800   1
  -4  10  -2 1247.60 278.810   1
   9   3  -2 926.650 228.820   1
   7   6  -2 575.580 177.360   1
  -5   7  -8 -137.79 225.430   1
   5  -7   8 210.270 166.430   1
  -5   7  -8 86.6100 204.840   1
   8  -3   7 1396.85 303.320   1
   6   7   0 740.650 186.150   1
   6   6  -6 102.340 183.920   1
   6   6  -6 -18.280 130.090   1
  -3   8  -8 1289.30 342.750   1
   3  -8   8 1776.32 333.030   1
  -3   8  -8 927.980 370.730   1
   6   4   7 302.980 257.050   1
  10  -4  -1 451.850 158.320   1
 -10   4   1 589.610 158.870   1
  10   0   0 40.2300 184.380   1
  10   0   0 -42.410 183.870   1
  -8  -1   8 302.820 140.050   1
   8   1  -8 208.440 218.670   1
   8   1  -8 345.470 167.860   1
  10   0  -2 476.970 200.670   1
 -10   3   3 421.990 120.330   1
   3  -2 -12 580.640 238.380   1
  -3   2  12 386.020 243.860   1
   9   3   0 175.870 138.270   1
   9   3   0 18.3100 218.000   1
  -3  -9  -1 2602.09 491.600   1
   3   9   1 1030.01 248.530   1
   3   9   1 2786.59 455.300   1
   4   8   3 167.390 109.420   1
   4   8   3 144.340 132.510   1
  -4  -8  -3 329.090 236.990   1
   1   8  -8 1007.82 340.230   1
   1   8  -8 1411.66 277.320   1
   3   2 -12 769.320 194.760   1
  -3  -2  12 498.120 158.730   1
   3   2 -12 828.850 296.840   1
   7   6   0 411.710 126.910   1
  -6   9   3 134.630 134.040   1
   6  -9  -3 91.1300 241.000   1
  10  -4   0 160.020 154.720   1
 -10   4   0 528.080 155.680   1
   2   9  -5 811.930 188.780   1
   2   9  -5 664.040 286.990   1
   7   2  -9 1109.39 328.760   1
  -7  -2   9 581.310 200.930   1
   7   2  -9 1047.79 223.970   1
   4   8  -5 608.010 284.760   1
   4   8  -5 408.460 117.360   1
   3   9  -3 688.170 240.890   1
   3   9  -3 708.730 166.480   1
   0  10  -3 532.440 169.230   1
   0  10  -3 1427.87 304.920   1
   5  -7  -8 1335.02 343.230   1
  -5   7   8 1303.55 314.400   1
   6   6   4 2030.66 502.460   1
   2   3 -12 91.0000 119.660   1
  -2  -3  12 168.970 122.650   1
   2   3 -12 -46.730 186.820   1
   1   9  -6 1499.17 279.550   1
   1   9  -6 1978.77 453.090   1
  -8   5   7 1418.99 376.780   1
  -8   5   7 1522.77 272.810   1
   8  -5  -7 1786.12 359.500   1
   3   4  10 228.210 181.030   1
  -3  -4 -10 363.320 299.080   1
   3   4  10 231.830 321.060   1
   3   4  10 36.3700 264.960   1
   9   1   4 2694.04 527.790   1
   2   7  -9 642.110 366.560   1
   2   7  -9 1948.24 335.060   1
  -7   8  -4 685.150 261.170   1
   7  -8   4 620.710 192.490   1
  -7   8  -4 958.900 261.890   1
   5   5  -9 1078.49 213.090   1
   5   5  -9 634.640 402.740   1
   9  -5  -5 1035.61 278.280   1
  -9   5   5 1440.74 212.030   1
  -9   5   5 1016.46 264.920   1
  -5   6  -9 661.860 227.840   1
   5  -6   9 791.810 187.730   1
   6   3   8 573.630 265.770   1
   1   4  11 857.120 276.270   1
   1   4  11 935.910 357.940   1
  -1  -4 -11 855.020 339.840   1
  -5  -2  11 460.260 149.650   1
   5   2 -11 352.850 157.990   1
   5   2 -11 862.720 251.490   1
   8   4  -5 250.480 134.960   1
  10  -2   2 4828.93 628.840   1
  10  -2   2 4830.70 689.020   1
   9  -5   4 126.780 192.470   1
  -7   4   9 504.790 144.090   1
  -7   4   9 1152.75 283.260   1
   7  -4  -9 322.030 240.880   1
  -8   6   6 13.6700 129.260   1
   8  -6  -6 -285.76 224.250   1
   4   3  10 795.980 345.210   1
   4   3  10 999.350 248.210   1
   4   3  10 1108.76 289.370   1
  -4  -3 -10 1009.85 315.170   1
   9   1  -6 1618.59 281.160   1
 -10   4   2 3256.81 409.490   1
   9   2  -5 3043.68 444.660   1
   9  -4  -6 336.930 205.350   1
  -9   4   6 99.1200 189.990   1
  -9   4   6 143.350 105.380   1
   4  -4 -11 266.750 271.900   1
  -4   4  11 336.310 245.180   1
   4  -4 -11 350.170 148.650   1
  -4   4  11 219.200 132.880   1
  -2  10  -4 -132.27 150.050   1
  -2  10  -4 371.830 181.580   1
   1   2  12 1614.85 397.570   1
  -1  -2 -12 2074.52 402.200   1
   1   2  12 1460.08 280.890   1
   7   1   8 1681.72 383.600   1
  -5   3  11 579.560 169.070   1
   5  -3 -11 970.750 213.360   1
   5  -3 -11 1316.68 366.150   1
  -5   3  11 954.390 296.130   1
   6   7  -3 -108.06 123.880   1
  -2   6  10 513.670 241.850   1
  -2   6  10 26.2500 135.210   1
   2   5 -11 552.190 164.110   1
   2   5 -11 -9.2500 271.110   1
  -2  -5  11 500.420 141.720   1
   5   7  -6 6.88000 203.320   1
   5   7  -6 135.770 125.180   1
  -7   6  -7 500.740 265.370   1
   7  -6   7 955.670 211.380   1
  -5   9  -5 3833.04 547.890   1
  -5   9  -5 1990.81 460.820   1
   2   8   6 311.290 185.380   1
  -2  -8  -6 476.890 245.180   1
   2   8   6 169.310 212.590   1
   9   2   3 512.790 263.760   1
   9   2   3 63.2100 116.920   1
   4 -10  -2 165.210 247.240   1
  -4  10   2 86.6200 152.060   1
  -1  10  -4 506.570 173.030   1
  -1  10  -4 849.990 238.500   1
   5   7   4 577.750 151.870   1
  -2  10   3 178.310 191.210   1
   2 -10  -3 26.7100 366.080   1
   7   6  -3 295.890 138.060   1
   9   3  -3 1093.90 217.410   1
   7   5  -6 1197.74 207.700   1
   2  -7  -9 610.160 250.990   1
  -2   7   9 9.67000 283.220   1
  -2   7   9 648.960 274.070   1
  -2   7   9 259.880 213.220   1
   2   1  12 221.590 256.850   1
  -2  -1 -12 408.400 207.490   1
   2   1  12 -80.530 131.080   1
   5   6   6 188.310 294.760   1
   4   0 -12 107.210 145.450   1
  -4   0  12 370.930 177.320   1
   4   0 -12 201.770 234.890   1
  10  -4   1 52.8200 160.300   1
 -10   4  -1 36.3200 122.140   1
 -10   3  -2 4738.28 595.050   1
  10  -3   2 3584.43 509.710   1
   8   4   3 -76.730 118.670   1
   8   4   3 231.770 247.440   1
   8   4   3 330.950 215.570   1
  -8   8   0 -28.510 165.540   1
   8  -8   0 -120.37 233.990   1
   8  -7   4 -167.51 164.970   1
  -8   7  -4 -294.72 224.550   1
   1  10  -1 270.360 154.460   1
  -1 -10   1 1499.39 418.130   1
   0 -10  -2 1104.92 377.280   1
   0  10   2 1119.89 256.790   1
  -2   3 -12 1496.78 315.880   1
   2  -3  12 2255.84 341.860   1
   2  -3  12 2136.37 300.850   1
  10   0   1 446.790 168.720   1
  10   0   1 396.040 193.840   1
   6   7   1 880.040 175.410   1
  -1   6  10 411.660 360.720   1
  -1   6  10 810.120 329.220   1
   1  -6 -10 961.180 301.910   1
  -5   5  10 345.070 179.930   1
  -5   5  10 742.350 320.290   1
   5  -5 -10 779.180 270.500   1
  -5  -4  10 456.040 162.800   1
   5   4 -10 538.760 236.650   1
   5   4 -10 723.130 169.550   1
  10   0  -3 544.500 215.690   1
   5   8  -1 991.430 181.190   1
  -4   9  -6 207.110 189.670   1
  -4   9  -6 212.990 210.560   1
  10  -1   2 1.16000 155.890   1
  10  -1   2 164.960 188.920   1
   4   5 -10 392.440 269.740   1
   4   5 -10 258.320 148.790   1
 -10   2   4 1314.13 228.090   1
  10  -2  -4 763.480 209.270   1
   8  -8  -1 159.560 276.020   1
  -8   8   1 150.580 151.170   1
  -3  -8  -5 1558.71 585.820   1
   3   8   5 404.750 211.700   1
   9   3   1 480.440 284.100   1
   9   3   1 -97.460 126.320   1
   6   5   6 683.860 387.860   1
  -7   7  -6 1979.41 482.780   1
  -7   7  -6 2982.17 467.670   1
   7  -7   6 2701.10 442.990   1
   4   1  11 689.190 246.790   1
   4   1  11 580.070 178.470   1
   6   4  -9 879.160 178.810   1
   6   4  -9 727.710 287.730   1
  -6  -4   9 451.250 149.580   1
  -1 -10   0 202.950 500.290   1
   1  10   0 -87.900 166.720   1
   7   6   1 -182.98 123.480   1
   4   6  -9 166.860 245.240   1
   4   6  -9 -48.450 128.190   1
  -1   3  12 761.840 260.610   1
  -1   3  12 311.870 253.960   1
   1  -3 -12 277.320 255.670   1
   4  -1 -12 661.670 178.510   1
  -4   1  12 818.570 242.400   1
   4  -1 -12 1210.36 290.740   1
  -6   4  10 386.070 147.140   1
   6  -4 -10 579.440 176.590   1
  -6   4  10 433.010 271.310   1
   6  -4 -10 -52.910 273.130   1
   3 -10  -3 407.900 289.300   1
  -3  10   3 -54.870 190.510   1
  -5   8  -7 866.090 297.090   1
  -5   8  -7 719.240 306.290   1
   5  -8   7 1012.77 205.860   1
   7   5   4 53.8300 243.780   1
   7   5   4 452.320 346.320   1
   9  -1  -7 152.250 163.930   1
   9  -4   5 393.210 181.620   1
   5   8  -2 -148.51 107.920   1
  -4  10  -3 1512.39 262.360   1
  -4  10  -3 275.810 201.740   1
  -1   7   9 625.890 309.480   1
   1  -7  -9 161.930 260.530   1
  -1   7   9 85.3400 183.410   1
  -1   7   9 313.330 376.960   1
  -2   9   6 1637.64 368.490   1
  -2   9   6 1081.97 339.730   1
   2  -9  -6 1830.24 408.730   1
   9   0   5 -340.16 196.330   1
   9  -2  -7 73.1900 170.110   1
  -9   2   7 9.94000 169.120   1
   9  -2  -7 -78.370 211.320   1
  -9   2   7 12.4900 99.3600   1
  -2   3  12 709.200 261.730   1
   2  -3 -12 721.990 284.060   1
  -1   9  -7 823.800 273.640   1
  -1   9  -7 398.690 183.250   1
  10  -1  -4 -23.840 191.200   1
  -8   8  -1 -8.0700 191.040   1
   8  -8   1 -51.390 242.590   1
   2   6   9 -363.72 240.370   1
  -2  -6  -9 -289.45 282.920   1
   2   6   9 -171.13 312.960   1
   1  10  -2 390.160 118.580   1
   1  10  -2 -179.43 133.680   1
   5   8   0 954.130 172.480   1
   9  -6   3 3955.07 561.320   1
   9  -6   3 2640.14 419.420   1
  -9   6  -3 4273.53 575.080   1
   1 -10  -3 672.140 382.330   1
  -1  10   3 448.860 214.380   1
  -3   6  10 153.270 154.660   1
  -3   6  10 479.610 238.800   1
   3  -6 -10 188.270 229.560   1
   5   6  -8 116.730 135.180   1
   5   6  -8 -273.88 183.820   1
   6   5  -8 219.570 128.650   1
   6   5  -8 314.350 204.480   1
   0   4 -12 -153.69 226.490   1
   0  -4  12 175.170 140.870   1
   0  -4  12 -110.38 115.330   1
  -3  10  -4 -113.31 170.990   1
  -3  10  -4 162.300 183.290   1
  -3   7   9 522.170 258.690   1
  -3   7   9 1343.03 319.760   1
   3  -7  -9 710.840 290.060   1
   8   5  -1 -127.23 132.300   1
   8   5  -1 327.950 322.250   1
   6  -8  -6 290.700 307.710   1
  -6   8   6 299.220 217.660   1
  -6   8  -6 191.490 207.750   1
   6  -8   6 19.1200 139.520   1
  -6   8  -6 69.9900 211.110   1
   8  -4   7 116.090 171.780   1
  -6   5  -9 824.600 268.620   1
   6  -5   9 1061.39 213.080   1
   8  -4  -8 850.980 328.190   1
  -8   4   8 1140.02 322.750   1
  -8   4   8 1617.12 242.540   1
  -2   9  -7 552.060 242.260   1
  -2   9  -7 1078.62 295.450   1
  -4  -1  12 1182.70 227.930   1
   4   1 -12 904.070 282.810   1
   4   1 -12 1259.20 231.920   1
  -7   1  10 1702.28 331.470   1
   7  -1 -10 2204.81 421.550   1
   7  -1 -10 2259.30 358.290   1
   2   5  10 1443.65 408.160   1
   2   5  10 568.100 348.120   1
   2   5  10 315.290 278.330   1
  -2  -5 -10 829.420 381.090   1
   4  -7   9 1232.61 230.170   1
  -4   7  -9 1219.20 309.990   1
  -5  10   0 -168.95 134.510   1
   5 -10   0 462.640 251.090   1
  -9   6   4 1744.63 261.470   1
   9  -6  -4 1219.75 308.150   1
   3   9   2 1405.30 239.120   1
   3   9   2 671.720 236.660   1
  -3  -9  -2 1689.66 336.860   1
   8   5  -2 194.170 276.970   1
   8   5  -2 180.840 132.960   1
   3   7   7 598.660 373.420   1
  -3  -7  -7 1045.58 380.810   1
   3   7   7 803.530 343.380   1
 -10   4   3 4088.41 512.290   1
  -3   9   6 -170.57 216.220   1
   3  -9  -6 -106.31 286.310   1
  -3   9   6 114.790 190.060   1
 -10   3   4 2370.60 313.930   1
  -5  10  -1 478.950 182.760   1
   5 -10   1 887.950 275.680   1
   3   9  -4 631.890 284.910   1
   3   9  -4 1242.42 206.560   1
  -5   9   5 445.240 198.020   1
   3  -5  11 318.080 168.710   1
  -3   5 -11 689.230 295.860   1
   8   5   0 502.130 158.500   1
   8   5   0 672.770 357.200   1
   7  -9   0 1664.77 335.090   1
  -7   9   0 1086.04 329.280   1
   1  -9  -6 631.990 293.460   1
  -1   9   6 353.290 212.840   1
  -1   4 -12 -182.27 182.290   1
   1  -4  12 -62.330 115.900   1
   1  -4  12 -201.44 121.630   1
  -8   8   2 1209.79 229.520   1
   8  -8  -2 1448.61 362.830   1
   1   8   7 648.300 272.320   1
   1   8   7 243.430 244.650   1
  -1  -8  -7 409.820 260.070   1
   0  10  -4 749.660 222.510   1
   0  10  -4 2516.91 396.630   1
  -1  -4  12 472.490 138.470   1
   1   4 -12 199.300 210.930   1
   1   4 -12 448.890 147.220   1
   3   8  -7 1496.92 358.910   1
   3   8  -7 2048.89 293.620   1
   7   0 -10 210.010 208.190   1
   7   0 -10 390.040 166.340   1
  -7   0  10 506.950 190.670   1
   0  -3 -12 -142.78 252.860   1
   0   3  12 -169.43 225.800   1
   0   3  12 148.030 211.920   1
   4  -4  11 795.330 186.520   1
  -4   4 -11 532.430 283.920   1
   1  10   1 293.240 178.030   1
  -1 -10  -1 124.820 434.930   1
  -7   5  -8 144.390 184.010   1
   7  -5   8 -124.50 187.280   1
  -3   1 -12 2964.51 516.350   1
   3  -1  12 1988.56 323.880   1
   3  -1  12 2388.14 393.720   1
  -6   9  -4 1883.54 322.900   1
  -6   9  -4 1496.82 337.700   1
  -2   5  11 -158.82 311.290   1
  -2   5  11 261.010 273.220   1
   2  -5 -11 416.330 259.700   1
  10   1  -1 1571.04 282.200   1
   5  -8  -7 365.890 253.760   1
  -5   8   7 446.450 212.060   1
   8   2   6 978.730 315.740   1
   8   3  -7 -62.120 143.450   1
  -5  10   1 -43.510 139.630   1
   5 -10  -1 133.470 214.130   1
  -1  -9  -5 554.870 308.760   1
   1   9   5 307.230 217.330   1
   0   9  -7 152.650 143.800   1
   0   9  -7 325.870 135.960   1
   0   9  -7 -3.2300 246.820   1
   9   0  -7 206.570 167.980   1
   5   8  -3 264.910 154.010   1
   5   8  -3 458.030 131.820   1
   7  -2 -10 -201.98 244.280   1
   7  -2 -10 7.68000 146.920   1
  -7   2  10 411.320 205.200   1
  -7   2  10 96.0200 105.580   1
   7  -9  -1 1798.68 327.640   1
  -7   9   1 1001.07 223.660   1
   8   3   5 769.390 312.300   1
  -1   5  11 -80.460 273.480   1
   1  -5 -11 -15.850 264.100   1
  -1   5  11 231.090 283.290   1
   6   7  -4 -78.480 119.350   1
  -7   9  -1 1377.76 286.550   1
   7  -9   1 1944.22 368.340   1
   4   7   6 738.240 327.820   1
   2   9   4 -48.000 172.390   1
  -2  -9  -4 99.6500 200.780   1
   8  -7  -5 3584.71 583.790   1
  -8   7   5 2795.79 388.830   1
  -1   7 -10 270.980 224.350   1
  -1   7 -10 150.310 142.590   1
  -1   7 -10 80.2600 120.750   1
   0   6  10 2381.14 478.180   1
   0   6  10 3337.85 621.730   1
   6  -1 -11 413.260 264.410   1
  -6   1  11 387.890 220.060   1
   6  -1 -11 648.530 191.690   1
 -10   4  -2 45.8100 117.700   1
  10  -4   2 133.330 191.890   1
  -9   7   0 653.350 179.600   1
   9  -7   0 395.230 302.490   1
   7   6  -4 558.370 172.060   1
   6   2   9 405.040 282.170   1
   6   2   9 525.660 243.790   1
  10   1  -2 289.830 185.940   1
   3  -2  12 594.400 298.010   1
   3  -2  12 -14.580 137.920   1
   9   3  -4 687.760 179.290   1
   5   2  10 1047.36 321.000   1
   5   2  10 1256.73 292.260   1
   5   2  10 599.550 235.850   1
  -5  -2 -10 592.770 327.200   1
  -9   3   7 1693.31 244.140   1
   9  -3  -7 1723.89 288.780   1
  -9   3   7 637.270 242.320   1
   9  -3  -7 1292.25 342.040   1
  -6   2 -10 10.9000 293.760   1
   6  -2  10 61.4600 176.820   1
   9  -7  -1 82.9100 284.960   1
  -9   7   1 -364.57 131.810   1
   5   8   1 2031.48 297.050   1
   6  -9  -4 -223.86 269.220   1
  -6   9   4 -158.75 155.090   1
   1  10  -3 920.140 198.560   1
   1  10  -3 1299.14 325.320   1
   1  10  -3 1321.92 214.130   1
  10   1   0 1769.41 341.110   1
  10   1   0 1931.72 379.650   1
   6   0 -11 319.140 240.240   1
  -6   0  11 -156.28 154.250   1
   6   0 -11 225.540 138.710   1
  -4   2  12 191.450 204.670   1
   4  -2 -12 -40.060 228.100   1
   4  -2 -12 7.42000 140.140   1
  -8   8  -2 248.960 200.700   1
   8  -8   2 261.300 244.870   1
  -4   8  -8 752.780 335.370   1
   4  -8   8 1901.02 302.290   1
  -4   8  -8 1482.73 354.440   1
   0   7 -10 372.030 230.310   1
   0   7 -10 707.500 193.990   1
   3  -3 -12 1016.61 305.220   1
  -3   3  12 1736.18 357.960   1
  -4   6 -10 460.940 224.040   1
   4  -6  10 258.120 172.570   1
   8   5  -3 501.490 154.750   1
 -10   5   1 1139.06 201.010   1
  10  -5  -1 842.670 171.620   1
  -6  -3  10 592.260 169.410   1
   6   3 -10 214.530 237.280   1
   6   3 -10 198.570 131.920   1
   6  -1  10 496.040 210.560   1
  -6   1 -10 323.550 196.390   1
   6  -1  10 39.5600 116.940   1
   2  -8  -8 2000.48 422.720   1
  -2   8   8 1951.13 398.250   1
  -2   8   8 1821.45 424.560   1
  -2   8   8 922.190 351.310   1
  10   0   2 2822.06 429.270   1
  10   0   2 2573.79 449.780   1
   3   3 -12 126.450 131.310   1
  -3  -3  12 119.380 123.970   1
   3   3 -12 176.430 216.200   1
   5  -5  10 2461.96 366.390   1
  -5   5 -10 1409.57 353.950   1
  -4  10   3 728.430 256.240   1
   4 -10  -3 1440.58 393.340   1
  10   0  -4 1346.44 270.330   1
  10  -5   0 1834.50 297.420   1
 -10   5   0 2296.70 321.870   1
  10  -2   3 481.200 237.870   1
  10  -2   3 370.380 164.330   1
   4   4 -11 615.220 231.980   1
  -4  -4  11 748.020 205.240   1
   4   4 -11 627.830 164.860   1
   7  -8  -5 486.180 255.430   1
  -7   8   5 583.770 168.210   1
   5 -10   2 3032.86 529.520   1
  -5  10  -2 1338.50 283.970   1
   7   3   7 323.060 258.860   1
   2   7   8 883.250 325.820   1
  -2  -7  -8 150.050 274.790   1
   2   7   8 -41.960 253.080   1
   2   8  -8 202.290 250.960   1
   2   8  -8 366.160 143.460   1
   6   7   2 113.760 111.270   1
  -8  -2   8 569.870 219.090   1
   8   2  -8 976.300 194.930   1
   8   2  -8 438.180 247.580   1
   3   6 -10 515.080 260.420   1
   3   6 -10 256.340 142.940   1
  -8   1   9 1451.86 305.410   1
   8  -1  -9 1557.30 412.960   1
   8  -1  -9 2580.16 389.570   1
   0   7   9 110.260 335.030   1
   0  -7  -9 -68.730 236.540   1
   0   7   9 127.960 238.030   1
  -3   0 -12 -13.420 281.290   1
   3   0  12 321.470 163.250   1
   3   0  12 -152.42 204.190   1
   7  -2   9 308.570 195.160   1
  -3   9  -7 -73.320 214.230   1
  -3   9  -7 200.530 213.030   1
   9   3   2 1585.36 273.610   1
   9   3   2 1616.57 413.760   1
  -3  -3 -11 974.990 361.380   1
   3   3  11 1089.91 267.010   1
   3   3  11 992.450 326.940   1
   3   3  11 1599.20 447.030   1
   7   6   2 283.280 124.740   1
   9  -7   1 3954.52 554.590   1
   9  -7   1 2848.83 445.910   1
  -9   7  -1 3656.62 547.080   1
  -3   5  11 1115.59 347.720   1
   3  -5 -11 1384.47 408.630   1
   8   5   1 2657.88 376.410   1
   8   5   1 1950.64 507.700   1
   8   5   1 2297.89 490.650   1
   7   4   6 660.170 366.860   1
   4   8   4 -15.180 135.150   1
 -10   3  -3 1273.82 221.750   1
  10  -3   3 621.380 219.750   1
  -3   8   8 329.610 295.580   1
  -3   8   8 418.230 280.660   1
   3  -8  -8 1465.06 343.330   1
  -3   8   8 898.990 300.990   1
   4   7  -8 1006.03 187.410   1
   4   7  -8 408.130 348.660   1
   0   6 -11 -339.73 229.000   1
   0   6 -11 249.060 132.880   1
   0  -6  11 -61.700 111.060   1
   7  -1   9 834.440 221.220   1
   0 -10  -3 535.080 326.640   1
   0  10   3 89.0400 228.420   1
   8  -2  -9 336.710 261.680   1
  -8   2   9 -47.730 168.180   1
   8  -2  -9 62.8800 152.220   1
  -8   2   9 205.400 111.220   1
  -2   7 -10 227.770 229.320   1
   2  -7  10 209.880 131.850   1
  -2   7 -10 271.050 186.240   1
   4   8  -6 948.550 260.430   1
   4   8  -6 740.470 197.120   1
   4  -7  -9 550.720 259.270   1
  -4   7   9 730.980 313.870   1
  -4   7   9 124.750 211.030   1
   7   4  -8 181.760 300.920   1
   7   4  -8 707.910 164.970   1
   1  -6  11 473.020 142.800   1
  -1   6 -11 331.830 124.490   1
  -1   6 -11 503.920 234.350   1
  -1   8   8 245.630 232.540   1
  -1   8   8 441.600 272.700   1
   1  -8  -8 804.060 291.310   1
  -1   8   8 843.000 335.060   1
   4  -9  -6 65.6500 252.910   1
  -4   9   6 154.180 200.030   1
  -4   9   6 16.2700 171.250   1
 -10   5   2 164.710 118.570   1
  -9   7   2 -97.600 127.040   1
   9  -7  -2 -330.21 289.100   1
   2   9  -6 601.440 152.850   1
   2   9  -6 465.350 244.430   1
   6  -2 -11 437.840 164.640   1
  -6   2  11 -32.800 209.660   1
   6  -2 -11 553.150 287.120   1
   7  -9  -2 -5.3700 257.840   1
  -7   9   2 -105.55 141.840   1
   7  -6  -8 -46.770 251.170   1
  -7   6   8 641.180 313.750   1
  -7   6   8 45.0100 133.100   1
  -4   6  10 -13.210 177.430   1
   4  -6 -10 -198.64 231.040   1
  -4   6  10 51.8800 240.930   1
  -2  10  -5 803.600 239.000   1
  -2  10  -5 454.710 192.190   1
   8  -6   6 30.6800 168.150   1
  -8   6  -6 230.160 180.500   1
  -1   8  -9 494.990 170.080   1
  -1   8  -9 695.390 278.840   1
  -1   8  -9 98.3400 123.720   1
   6  -3  10 1153.70 257.690   1
  -6   3 -10 524.470 231.270   1
   7  -9   2 685.390 293.160   1
  -7   9  -2 118.650 184.210   1
  10  -1   3 463.750 146.130   1
  10  -1   3 938.760 259.820   1
  -5  10   2 130.150 146.960   1
   5 -10  -2 649.640 247.340   1
  -7   8  -5 618.790 207.410   1
  -7   8  -5 698.730 273.370   1
   7  -8   5 753.180 223.920   1
   4   2 -12 394.770 247.200   1
   4   2 -12 103.760 134.830   1
  -4  -2  12 218.660 145.060   1
  -1  10  -5 1095.61 278.910   1
  -1  10  -5 493.570 197.150   1
  10   1  -3 -89.960 177.230   1
   8   4  -6 1464.87 255.910   1
   2   2  12 8.85000 252.510   1
   2   2  12 0.72000 156.110   1
  -2  -2 -12 397.260 243.190   1
  -4  10  -4 40.4500 165.070   1
  -4  10  -4 68.7700 206.160   1
   8   0  -9 57.5400 156.330   1
   8   0  -9 5.82000 216.630   1
  -8   0   9 93.8500 137.570   1
 -10   5  -1 6327.15 1303.42   1
  10  -5   1 4937.56 682.440   1
   9  -2   6 316.630 213.870   1
  -5  -3  11 50.4500 126.100   1
   5   3 -11 -32.300 122.770   1
   5   3 -11 -12.970 230.790   1
  -7  -1  10 595.790 186.950   1
   7   1 -10 916.990 201.310   1
   7   1 -10 799.460 241.950   1
   0  -5 -11 -510.50 278.870   1
   0   5  11 184.060 233.770   1
   0   5  11 38.4800 305.350   1
  -2  -4 -11 310.920 347.870   1
   2   4  11 348.920 325.670   1
   2   4  11 650.660 252.470   1
   2   4  11 -93.290 214.340   1
   7  -3   9 957.940 233.360   1
  -2  10   4 465.960 205.060   1
   2 -10  -4 624.280 305.190   1
   8  -8  -3 2792.33 497.250   1
  -8   8   3 1703.29 295.000   1
 -10   2   5 771.340 116.870   1
  10  -2  -5 423.090 184.080   1
  10   1   1 847.950 204.290   1
  10   1   1 1003.87 272.530   1
  -2   4 -12 280.120 208.030   1
   2  -4  12 195.210 120.470   1
   2  -4  12 -43.280 133.810   1
   9   2  -6 891.740 186.170   1
   6   6  -7 290.300 130.860   1
   6   6  -7 73.8300 209.480   1
   3   5 -11 208.230 235.600   1
   3   5 -11 641.070 147.250   1
  -3  -5  11 206.300 141.410   1
   2   4 -12 1742.68 282.760   1
  -2  -4  12 1787.86 271.530   1
   2   4 -12 1710.54 332.660   1
 -10   4   4 87.2900 123.080   1
   1  10   2 1271.16 324.710   1
  -1 -10  -2 1623.54 352.930   1
  -7  -3   9 232.250 119.760   1
   7   3  -9 286.090 130.500   1
   7   3  -9 114.400 218.390   1
   0   9   6 380.750 207.450   1
   0  -9  -6 456.090 255.070   1
   8   1   7 1124.93 306.160   1
   5  -2  11 910.590 151.840   1
   5  -2  11 1675.64 303.380   1
  -5   2 -11 1082.36 315.290   1
  -6  -1  11 661.100 171.510   1
   6   1 -11 1701.13 339.660   1
   6   1 -11 1163.46 243.210   1
  -9   5   6 1059.73 333.150   1
  -9   5   6 1789.44 249.950   1
   9  -5  -6 923.410 259.320   1
   5  -1  11 3.90000 193.560   1
  -5   1 -11 89.2400 219.990   1
   5  -1  11 65.3500 138.360   1
   3   7  -9 456.630 136.900   1
   3   7  -9 203.860 268.390   1
   1   0 -13 686.780 215.500   1
  -1   0  13 763.690 153.780   1
  -6   6   9 818.960 171.710   1
   6  -6  -9 784.560 253.550   1
  -6   6   9 1098.69 316.970   1
   0   8  -9 2595.72 392.980   1
   0   8  -9 2080.48 486.700   1
   1   1 -13 28.0400 204.630   1
  -1  -1  13 134.080 132.270   1
  10  -1  -5 799.750 190.730   1
   3  -3  12 930.120 228.610   1
   3  -3  12 411.040 153.340   1
  -3   3 -12 365.430 197.790   1
  -5   4  11 352.140 132.300   1
   5  -4 -11 519.220 153.540   1
   5  -4 -11 12.7500 304.410   1
  -5   4  11 187.340 260.910   1
   9   2   4 -81.480 295.700   1
   6   0  10 456.610 246.310   1
   1   7 -10 382.650 282.970   1
   1   7 -10 650.500 152.450   1
  -2   8  -9 -172.30 153.150   1
  -2   8  -9 138.050 216.810   1
   9  -5   5 433.000 168.980   1
   5   8  -4 1277.74 302.620   1
   5   8  -4 1771.88 261.250   1
   3 -10  -4 2064.73 483.900   1
  -3  10   4 907.960 266.700   1
   6   6   5 773.650 357.720   1
   9  -3   6 1420.19 297.330   1
  -7   3  10 1029.64 209.120   1
   7  -3 -10 1186.14 252.530   1
  -7   3  10 979.270 347.450   1
   7  -3 -10 1586.23 437.000   1
   0  -1  13 102.700 168.890   1
   0  -1  13 178.110 142.260   1
   0   1 -13 30.7900 225.990   1
   9   1   5 1088.70 301.310   1
   8   4   4 47.6400 298.190   1
   7  -7  -7 1102.52 319.170   1
  -7   7   7 1370.73 261.780   1
   1   3  12 71.0700 244.220   1
   1   3  12 122.540 191.360   1
  -1  -3 -12 -124.69 270.290   1
   7   2   8 76.6000 246.510   1
  -6   7   8 730.770 190.560   1
   6  -7  -8 954.010 307.760   1
   9  -1   6 1194.93 275.750   1
   3   9   3 846.440 217.560   1
  -3  -9  -3 1905.40 406.430   1
   4   2  11 -110.00 237.330   1
   4   2  11 162.720 140.040   1
  -4  -2 -11 188.460 221.960   1
   4   2  11 -74.260 253.770   1
   0   0  13 494.030 157.900   1
   0   0 -13 870.980 220.190   1
   0   0  13 495.600 270.570   1
   1   9  -7 483.100 143.650   1
   1   9  -7 179.050 263.500   1
   9  -6   4 2828.93 428.030   1
  -9   6  -4 2545.15 431.180   1
  -7   5   9 1020.91 215.020   1
  -7   5   9 1098.33 332.770   1
   7  -5  -9 850.850 290.250   1
   1   6 -11 139.200 233.140   1
   1   6 -11 -79.480 133.030   1
  -8   7  -5 287.420 186.820   1
   8  -7   5 312.630 173.180   1
  -8   7  -5 482.260 257.480   1
   8  -5   7 292.070 184.600   1
  -8   5  -7 -79.770 209.800   1
   8   5  -4 770.130 141.620   1
  -4  -9   1 250.510 208.850   1
   4   9  -1 56.1900 138.630   1
  -3  10  -5 632.110 201.830   1
  -3  10  -5 926.920 222.310   1
   5   8   2 932.070 196.070   1
  -5  10  -3 581.560 214.060   1
  -5  10  -3 1736.54 282.770   1
  -9   7  -2 2960.43 445.370   1
   9  -7   2 2552.13 464.350   1
   9  -7   2 1909.28 302.700   1
   9   1  -7 1068.90 223.610   1
  -1  10   4 46.0900 196.920   1
   1 -10  -4 -268.09 324.560   1
   3   9  -5 1277.83 286.600   1
   3   9  -5 1016.63 186.140   1
   2  -6  11 2065.96 323.500   1
  -2   6 -11 1297.99 355.860   1
   1  10  -4 953.120 259.720   1
   1  10  -4 437.640 111.140   1
   1  10  -4 521.730 135.030   1
  -5   9  -6 979.050 308.210   1
  -5   9  -6 1051.77 291.820   1
   8  -8   3 1682.33 331.270   1
  -8   8  -3 2037.21 431.330   1
   8  -8   3 3583.08 581.670   1
  10  -3  -5 4133.43 579.220   1
 -10   3   5 4467.22 247.750   1
   5   7  -7 258.090 236.470   1
   5   7  -7 444.510 131.750   1
  -9   6   5 30.2400 116.220   1
   9  -6  -5 -21.020 224.390   1
   2   0 -13 -129.17 189.900   1
  -2   0  13 57.7600 166.180   1
   4   5   9 97.6000 198.440   1
  -4  -5  -9 206.120 277.440   1
   4   5   9 -14.850 340.220   1
 -10   5   3 3309.04 424.110   1
   7   5  -7 515.160 137.620   1
   2  10  -1 912.010 160.960   1
   2  10  -1 813.310 201.390   1
  -2 -10   1 2440.95 517.540   1
   7   0   9 -45.390 203.250   1
   7   0   9 -240.88 203.820   1
   5   5   8 324.200 296.140   1
   5   7   5 2158.21 482.120   1
   5   7   5 236.320 171.730   1
   4   9  -2 564.870 133.710   1
  -4  -9   2 988.610 331.160   1
   3   1  12 733.860 197.650   1
   3   1  12 862.450 296.170   1
  -3  -1 -12 1025.62 303.790   1
 -10   4  -3 1841.84 295.140   1
  10  -4   3 1499.85 271.850   1
   0  10  -5 124.030 142.140   1
   0  10  -5 773.380 222.460   1
   8  -3  -9 698.980 287.200   1
  -8   3   9 721.770 241.030   1
   8  -3  -9 1572.62 266.940   1
  -8   3   9 1437.46 236.280   1
  -9   4   7 32.1400 110.400   1
  -9   4   7 119.800 196.030   1
   9  -4  -7 -175.03 245.140   1
   6   7  -5 544.680 132.360   1
  -4  -9   0 129.330 201.180   1
   4   9   0 170.430 139.630   1
  -8   6   7 33.7800 125.230   1
  -8   6   7 307.290 344.920   1
   8  -6  -7 412.550 260.780   1
   9  -7  -3 2959.85 514.880   1
  -9   7   3 3268.78 438.610   1
  -4   8   8 138.580 278.870   1
  -4   8   8 6.97000 217.560   1
   4  -8  -8 478.100 264.790   1
   7   6  -5 156.170 139.610   1
  -1   1  13 -170.32 159.970   1
   1  -1 -13 622.150 215.470   1
   5  -3  11 81.8500 177.070   1
  -5   3 -11 -103.14 219.720   1
  -2  -1  13 451.950 148.180   1
   2   1 -13 -125.73 223.680   1
   5   4   9 306.980 264.930   1
   9   3  -5 132.980 151.790   1
  -1  -6 -10 105.740 274.950   1
   1   6  10 553.020 256.160   1
   1   6  10 1180.31 396.420   1
   5   0  11 997.750 251.790   1
  -5   0 -11 557.610 207.890   1
   5   0  11 509.150 155.060   1
   8  -2   8 852.250 214.930   1
   2  10   0 36.1400 160.280   1
  -2 -10   0 156.700 300.160   1
   0  -2  13 2135.91 331.890   1
   0   2 -13 2730.45 495.400   1
   0  -2  13 2030.85 332.890   1
   6  -7   8 414.930 164.400   1
  -6   7  -8 339.830 231.080   1
   0   8   8 159.910 217.420   1
   0   8   8 486.810 284.960   1
   0  -8  -8 468.170 277.220   1
   0   8   8 152.930 308.850   1
   8   5   2 1452.11 483.240   1
   8   5   2 1439.01 265.680   1
   8   5   2 2600.14 495.520   1
  -5   0  12 238.750 167.720   1
   5   0 -12 81.5000 132.820   1
   5   0 -12 68.2900 233.550   1
   2  10  -2 542.230 162.570   1
   2  10  -2 1238.21 217.910   1
  10  -5   2 1893.60 327.520   1
 -10   5  -2 2319.59 328.930   1
   1   2 -13 971.780 284.000   1
  -1  -2  13 495.720 162.410   1
   4  -3 -12 1100.15 309.900   1
  -4   3  12 966.660 261.340   1
  -4   3  12 67.2300 108.830   1
   7  -9  -3 213.200 279.370   1
  -7   9   3 133.700 145.380   1
   5  -1 -12 853.180 287.940   1
  -5   1  12 835.220 212.360   1
   5  -1 -12 1018.02 212.220   1
  -4   5  11 685.200 303.180   1
   4  -5 -11 1006.60 317.200   1
  -4   5  11 311.480 161.950   1
   7   5   5 1239.12 409.760   1
   7   5   5 2524.75 545.010   1
  10   0   3 554.320 177.970   1
  10   0   3 176.200 208.620   1
  -8   5   8 1178.96 297.140   1
  -8   5   8 1551.42 237.670   1
   9   4  -1 193.300 159.330   1
  -7   9  -3 -47.090 182.300   1
   7  -9   3 110.010 335.040   1
  10   1  -4 38.1400 171.700   1
  -3   7 -10 939.630 315.380   1
   3  -7  10 1311.98 239.080   1
  10   0  -5 779.440 204.770   1
  -6   9  -5 3790.14 554.460   1
  -6   9  -5 2655.13 546.540   1
  -1   1 -13 166.080 233.650   1
   1  -1  13 239.600 172.040   1
   1  -1  13 150.690 150.500   1
  -6   5  10 597.810 159.530   1
   6  -5 -10 527.270 283.710   1
  -6   5  10 849.460 349.400   1
  -8  -1   9 277.170 162.680   1
   8   1  -9 637.640 195.920   1
   8   1  -9 593.720 319.130   1
   6  -3 -11 392.690 176.520   1
   6  -3 -11 554.150 255.120   1
  -6   3  11 701.810 168.980   1
  -6   3  11 631.200 262.480   1
  -2   4  12 399.610 237.150   1
   2  -4 -12 210.340 296.040   1
   6   7   3 32.2300 112.380   1
  -1   4  12 -8.9300 229.360   1
   1  -4 -12 -10.960 233.170   1
  -1   4  12 -31.040 219.080   1
  -2   1  13 1624.74 290.610   1
   2  -1 -13 1760.20 350.330   1
  -6   4 -10 -118.24 166.970   1
   6  -4  10 33.5100 173.790   1
  -4   9  -7 -80.830 199.190   1
  -4   9  -7 -62.020 215.770   1
  -5  10   3 1343.38 297.560   1
   5 -10  -3 2913.17 539.040   1
   9   4  -2 418.130 146.970   1
   0   1  13 127.110 212.110   1
   0  -1 -13 388.030 216.240   1
   8  -1   8 481.220 237.660   1
  -7   4  -9 329.630 184.690   1
   7  -4   9 928.250 223.550   1
   4 -10  -4 1140.37 352.960   1
  -4  10   4 958.140 224.150   1
  10   1   2 5.92000 211.640   1
  10   1   2 -47.490 141.380   1
   9   3   3 1261.06 389.150   1
   1   8  -9 -194.11 144.660   1
   1   8  -9 -38.920 229.680   1
   8  -3   8 -178.32 210.630   1
  -1  -7  -9 995.000 343.820   1
   1   7   9 -449.37 319.810   1
   1   7   9 371.960 309.330   1
  -4   5 -11 164.720 249.630   1
   4  -5  11 551.500 165.350   1
   9  -4   6 380.680 171.100   1
   7   6   3 1096.98 330.100   1
   4   4  10 -124.26 279.350   1
   4   4  10 348.460 249.610   1
   4   4  10 101.030 166.210   1
  -4  -4 -10 345.480 325.850   1
   3   8   6 1805.97 394.600   1
   3   8   6 270.470 210.370   1
   1   0  13 561.860 158.950   1
   1   0  13 913.100 252.530   1
  -1   0 -13 293.420 286.620   1
  -3   8  -9 161.420 257.940   1
   3  -8   9 125.670 125.310   1
  -3   8  -9 275.480 196.870   1
   9   4   0 707.040 152.520   1
   9   4   0 531.910 276.620   1
  -6  10   0 5.57000 132.510   1
   6 -10   0 -13.220 206.890   1
   4   9  -3 2059.51 298.100   1
   4   9  -3 1484.18 313.450   1
   0   5 -12 253.370 329.080   1
   0  -5  12 169.350 119.430   1
   0  -5  12 201.570 114.120   1
   0   5 -12 478.510 137.790   1
   6  -6   9 2234.31 342.360   1
  -6   6  -9 1655.32 384.860   1
   6  -9  -5 467.440 235.540   1
  -6   9   5 1023.77 273.720   1
  -5   7  -9 802.430 239.160   1
   5  -7   9 691.920 193.130   1
   6   4   8 437.610 292.500   1
  10  -2   4 122.230 146.920   1
  10  -2   4 203.940 230.790   1
   7  -7   7 530.070 199.750   1
  -7   7  -7 521.900 233.390   1
  -4  -9  -1 663.460 198.150   1
   4   9   1 577.650 141.880   1
   9   0   6 564.160 233.490   1
  10   2  -1 228.390 198.120   1
  -2  -8  -7 138.910 306.970   1
  -6  10  -1 261.660 145.710   1
   6 -10   1 197.490 224.800   1
  -5   9   6 296.460 211.030   1
   5  -9  -6 676.250 316.200   1
  -2 -10  -1 55.6500 237.590   1
   2  10   1 35.1700 176.190   1
   8  -8  -4 448.980 312.710   1
  -8   8   4 280.340 159.290   1
  -1  -5 -11 84.2400 317.450   1
   1   5  11 72.8100 329.600   1
   1   5  11 92.0300 338.170   1
   1   5  11 237.360 249.440   1
   5   1 -12 1593.51 278.250   1
  -5  -1  12 889.780 200.330   1
   5   1 -12 1941.68 376.760   1
   9  -1  -8 644.550 179.530   1
  -9   1   8 372.590 137.290   1
  -1   2 -13 -50.280 247.410   1
   1  -2  13 -245.44 127.030   1
   1  -2  13 -36.880 149.170   1
  -1   5 -12 -259.77 249.960   1
   1  -5  12 568.490 149.610   1
  -8   7   6 440.800 140.640   1
   8  -7  -6 718.150 263.590   1
   3   6   9 221.320 304.830   1
  -3  -6  -9 253.980 302.680   1
   6  -8  -7 297.260 256.170   1
  -6   8   7 675.070 194.530   1
  -6   8  -7 -75.170 217.550   1
   6  -8   7 -200.83 143.020   1
  -6   8  -7 185.160 227.130   1
   5   6   7 2244.37 456.710   1
   9  -2  -8 -97.910 270.490   1
  -9   2   8 -120.87 141.430   1
   9  -2  -8 -66.240 152.080   1
  -9   2   8 184.210 102.470   1
  10   2  -2 102.320 173.970   1
   5  -7  -9 1886.43 434.270   1
  -5   7   9 1333.19 298.440   1
  -5   7   9 1359.65 441.970   1
  -1 -10  -3 1556.06 390.750   1
   1  10   3 806.340 268.470   1
   6 -10  -1 219.780 196.400   1
  -6  10   1 156.270 133.820   1
   6   2 -11 25.4400 238.070   1
   6   2 -11 7.53000 123.390   1
   2  10  -3 277.930 119.440   1
   2  10  -3 670.540 260.320   1
  -7   6  -8 1348.90 342.030   1
   7  -6   8 2224.01 352.020   1
   2   9   5 198.980 230.540   1
  -2  -9  -5 859.520 234.750   1
   7   2 -10 -197.56 136.000   1
   7   2 -10 -80.400 253.870   1
  -7  -2  10 -49.120 122.480   1
  10  -3   4 -39.510 181.730   1
   3   5  10 269.610 322.980   1
   3   5  10 349.950 276.620   1
  -3  -5 -10 542.960 316.890   1
   3   5  10 444.840 325.960   1
   0 -10  -4 406.710 325.600   1
   0  10   4 286.740 214.570   1
  -2  -2  13 557.340 147.930   1
   2   2 -13 740.950 251.480   1
  -2   9   7 -9.6000 204.570   1
  -2   9   7 -85.530 229.540   1
  -2   9   7 668.430 323.800   1
   2  -9  -7 -221.89 330.080   1
  -1   9  -8 265.920 183.520   1
  -1   9  -8 1139.20 326.530   1
   6   1  10 16.7600 212.200   1
   6   1  10 137.930 239.510   1
  -5   2  12 1192.75 260.810   1
   5  -2 -12 580.820 173.600   1
   5  -2 -12 605.090 246.060   1
  10   2   0 -41.000 154.810   1
   9   4  -3 -161.78 136.910   1
  -5   6  10 75.8300 159.150   1
  -5   6  10 569.380 343.610   1
   5   5 -10 488.060 303.820   1
   5   5 -10 106.640 136.340   1
   6   5   7 47.6400 322.730   1
   9  -7   3 2114.78 348.070   1
   9  -7   3 2580.42 759.290   1
  -9   7  -3 2764.61 437.100   1
  -4  -3  12 566.480 140.240   1
   4   3 -12 600.680 226.610   1
   4   3 -12 359.170 149.890   1
   5   8  -5 601.270 235.400   1
   5   8  -5 821.690 142.640   1
   2   7 -10 578.120 150.520   1
   2   7 -10 333.730 256.140   1
 -10   4   5 237.560 110.540   1
  -3   4  12 215.660 250.540   1
   3  -4 -12 437.560 261.450   1
  -3   4 -12 208.400 243.550   1
   3  -4  12 1016.76 204.810   1
  -5   8  -8 840.320 230.670   1
   5  -8   8 1171.42 241.320   1
  -5   8  -8 965.440 280.870   1
   2   6 -11 317.770 137.430   1
   2   6 -11 662.710 255.110   1
   3   0 -13 -28.650 286.520   1
  -3   0  13 -202.84 149.850   1
  -4  10  -5 478.030 189.670   1
  -4  10  -5 278.800 191.480   1
   1   5 -12 526.780 136.670   1
  -1  -5  12 168.390 133.450   1
   1   5 -12 451.610 247.160   1
   0   4  12 -417.38 213.700   1
   0  -4 -12 378.790 361.940   1
   0   4  12 -336.20 261.330   1
   3   4 -12 1559.59 323.400   1
   3   4 -12 1554.14 245.540   1
  -3  -4  12 948.760 183.910   1
 -10   6   1 1695.79 256.310   1
  10  -1   4 23.3500 201.010   1
  -2   9  -8 311.720 193.990   1
  -2   9  -8 486.590 276.720   1
 -10   6   0 1528.33 267.480   1
  10  -6   0 671.610 171.210   1
   7  -8  -6 151.080 272.760   1
  -7   8   6 179.480 152.550   1
   3  -9  -7 308.630 313.840   1
  -3   9   7 97.3300 226.660   1
  -3   9   7 216.130 234.530   1
  -3   9   7 -323.86 195.910   1
   4  -1  12 82.6000 226.050   1
   4  -1  12 407.560 145.260   1
  -4   1 -12 535.670 231.740   1
  -1  -9  -6 670.470 283.150   1
   1   9   6 218.180 191.410   1
  -5  10  -4 118.660 210.930   1
  -5  10  -4 896.530 195.530   1
 -10   5   4 1248.24 202.600   1
   3  -6  11 696.720 173.430   1
  -3   6 -11 -70.420 249.200   1
   8   5  -5 1896.43 292.580   1
   3   8  -8 618.730 145.070   1
   3   8  -8 560.140 282.450   1
   4  -2  12 371.390 136.570   1
  -4   2 -12 292.750 249.850   1
   4  -2  12 735.640 236.570   1
   5   3  10 352.870 299.050   1
   5   3  10 335.310 238.830   1
   8   3  -8 91.7800 136.930   1
   6   5  -9 338.520 291.940   1
   6   5  -9 135.780 139.720   1
   5   6  -9 242.870 255.660   1
   5   6  -9 873.930 153.260   1
  -7   4  10 641.730 150.760   1
   7  -4 -10 586.940 325.020   1
  -7   4  10 297.160 312.810   1
   7  -4 -10 567.760 194.750   1
   9   4   1 427.260 138.890   1
   9   4   1 476.380 201.040   1
   9   4   1 277.090 297.700   1
  -2  10  -6 1998.30 405.420   1
  -2  10  -6 1228.11 299.860   1
  -6  10  -2 242.640 160.810   1
   6 -10   2 197.150 289.900   1
   5   8   3 803.820 168.830   1
  -1  10  -6 1007.60 288.470   1
  -1  10  -6 363.280 173.750   1
   6   3   9 445.240 264.620   1
   8   3   6 242.580 257.250   1
  -1   2  13 113.280 179.030   1
   1  -2 -13 423.830 293.140   1
   3   1 -13 968.410 281.330   1
  -3  -1  13 357.730 150.220   1
   9   0  -8 27.8300 192.920   1
  10  -2  -6 215.950 191.120   1
 -10   2   6 -5.1100 100.700   1
   1  -9  -7 -149.46 317.590   1
  -1   9   7 360.250 310.370   1
  -1   9   7 164.320 196.290   1
   0   3 -13 -41.070 219.790   1
   0  -3  13 -197.18 124.210   1
   5  -4  11 -177.39 167.330   1
  -5   4 -11 160.820 216.440   1
   8   0   8 686.440 215.270   1
   8   0   8 851.560 347.970   1
  -9   7   4 1689.04 263.370   1
   9  -7  -4 1743.00 397.470   1
   1  10  -5 168.660 217.850   1
   1  10  -5 41.2500 113.930   1
   1  10  -5 26.7600 130.110   1
   3  -1 -13 398.190 249.950   1
  -3   1  13 744.100 214.860   1
   4   8   5 106.020 142.020   1
   4   8   5 -295.14 273.800   1
   0   9  -8 634.580 242.170   1
   0   9  -8 128.680 151.650   1
   0   9  -8 194.310 128.480   1
  -5   6 -10 83.1700 220.350   1
   5  -6  10 -155.23 146.250   1
   1   1  13 52.5800 236.380   1
  -1  -1 -13 364.750 212.730   1
   1   1  13 315.940 142.190   1
  10   2  -3 80.2700 164.300   1
  -5  -1 -11 19.7300 231.270   1
   5   1  11 36.9500 138.710   1
   5   1  11 -144.44 221.850   1
   8  -8   4 887.220 180.220   1
  -8   8  -4 1278.44 379.440   1
   4   8  -7 1324.11 215.170   1
   4   8  -7 372.500 255.250   1
   7   1   9 1625.01 343.290   1
   7   1   9 1210.69 369.360   1
  10  -1  -6 935.460 258.130   1
   8  -4   8 1552.99 302.480   1
  -2  10   5 562.870 245.330   1
   2 -10  -5 948.470 339.460   1
 -10   6   2 3052.47 414.270   1
   6   4 -10 1258.84 326.250   1
   6   4 -10 1530.72 235.800   1
  -6  -4  10 737.080 168.830   1
 -10   5  -3 1573.06 272.230   1
  10  -5   3 1535.60 277.940   1
  -8   4   9 -25.410 254.050   1
  -8   4   9 122.800 121.230   1
   8  -4  -9 -61.830 146.890   1
   8  -4  -9 327.860 268.050   1
   2  -2 -13 -126.83 253.860   1
  -2   2  13 100.580 208.490   1
   2   3  12 -99.530 230.120   1
   2   3  12 35.8500 167.610   1
  -2  -3 -12 -190.91 299.500   1
   2 -11   1 329.130 370.020   1
  -2  11  -1 -274.88 200.890   1
   4   6 -10 412.250 267.030   1
   4   6 -10 448.890 160.630   1
   1   3 -13 -155.92 251.720   1
  -1  -3  13 -126.29 122.360   1
   6 -10  -2 726.590 277.630   1
  -6  10   2 426.790 185.990   1
   2   9  -7 237.730 237.180   1
   2   9  -7 205.820 140.700   1
  10  -6   1 -28.750 200.190   1
 -10   6  -1 105.560 154.320   1
  -9   3   8 1436.82 188.990   1
   9  -3  -8 667.640 299.590   1
   9  -3  -8 1062.74 210.370   1
  -9   3   8 193.220 202.510   1
   3   9   4 -7.6900 145.340   1
  -3  -9  -4 35.8400 225.420   1
   8   4  -7 24.2800 137.960   1
   2 -11   0 618.590 322.130   1
  -2  11   0 -186.69 177.850   1
   4   9  -4 896.070 241.670   1
   4   9  -4 1309.43 200.390   1
  -7   8  -6 -83.720 222.070   1
   7  -8   6 30.8000 173.600   1
  -7   8  -6 -161.45 217.970   1
   8   2   7 -206.47 274.920   1
  10   2   1 2081.78 410.920   1
  10   2   1 2028.42 318.760   1
   2  -5  12 347.180 139.250   1
  -2   5 -12 494.180 255.410   1
  -3  10   5 403.470 251.870   1
  -3  10   5 489.290 281.230   1
   3 -10  -5 1171.44 344.090   1
   9   2  -7 31.9600 151.420   1
   3   2  12 250.480 271.930   1
   3   2  12 165.700 147.180   1
  -3  -2 -12 47.5700 249.530   1
  -5   8   8 -212.10 187.090   1
   5  -8  -8 274.500 292.420   1
   7  -9  -4 1011.00 301.040   1
  -7   9   4 485.420 200.590   1
   4   0  12 19.0800 203.360   1
  -4   0 -12 259.600 255.830   1
   4   0  12 160.900 143.900   1
   3   9  -6 55.4200 207.890   1
   3   9  -6 354.670 158.310   1
   4   7   7 30.8000 287.600   1
   8   5   3 357.040 317.980   1
   8   5   3 1605.29 378.240   1
   3   7   8 -328.17 262.560   1
   3   7   8 -44.390 330.130   1
  -3  -7  -8 37.2000 298.650   1
  10  -4   4 1313.79 237.370   1
  10   1  -5 -252.53 162.840   1
   2  -1  13 387.880 214.340   1
  -2   1 -13 529.290 292.670   1
   2  -1  13 328.170 143.660   1
   4   9   2 711.400 194.510   1
   4   9   2 279.030 158.950   1
   2  10   2 165.010 181.040   1
  -2 -10  -2 313.930 253.940   1
  -7   9  -4 80.5500 235.330   1
  -7   9  -4 45.5500 180.150   1
   0  -2 -13 -29.490 231.710   1
   0   2  13 349.630 234.840   1
   0   2  13 213.410 173.610   1
   9  -6   5 786.230 207.120   1
   2  -7 -10 592.680 279.980   1
  -2   7  10 392.340 272.500   1
  -3  11  -1 -20.410 159.210   1
   3 -11   1 300.330 312.810   1
   3 -11   0 -366.10 307.160   1
  -3  11   0 475.200 202.810   1
   1   8   8 529.940 277.160   1
  -1  -8  -8 626.980 361.520   1
   1  -3  13 -114.51 118.790   1
  -1   3 -13 136.910 199.830   1
   6   7  -6 318.820 134.070   1
   5   4 -11 352.660 240.410   1
  -5  -4  11 405.750 140.270   1
   5   4 -11 227.370 174.460   1
  10  -3  -6 1154.93 240.600   1
   9   2   5 580.360 312.480   1
   1 -11   1 1486.62 499.700   1
  -1  11  -1 1051.86 263.510   1
  -4  -5  11 261.440 118.860   1
   4   5 -11 285.820 276.950   1
   4   5 -11 352.780 156.130   1
  -2  11  -2 707.730 289.810   1
   2 -11   2 2818.26 598.370   1
   7   6  -6 7.66000 139.110   1
  -3  10  -6 1461.85 373.090   1
  -3  10  -6 546.490 267.900   1
   2  10  -4 177.810 120.820   1
   2  10  -4 216.780 206.050   1
   9   4  -4 -32.150 139.210   1
   9   3  -6 -13.240 142.570   1
  -3   9  -8 692.330 328.770   1
  -3   9  -8 1056.67 295.050   1
   4  -3  12 209.240 118.340   1
   4  -3  12 315.890 173.050   1
  -4   3 -12 484.290 263.510   1
  10   1   3 378.050 382.020   1
  -1  10   5 352.120 246.610   1
   1 -10  -5 765.140 344.050   1
   3   4  11 381.950 248.580   1
   3   4  11 196.240 218.760   1
   3   4  11 33.9000 317.480   1
  -3  -4 -11 -197.56 244.870   1
   7   7  -1 1036.84 184.650   1
   1 -11   0 141.740 346.280   1
  -1  11   0 -467.35 195.210   1
  -9   5   7 916.670 361.240   1
  -9   5   7 2575.34 308.190   1
   5   2 -12 24.9100 136.650   1
  -5  -2  12 240.030 155.610   1
   5   2 -12 82.1000 263.870   1
  -5  10   4 363.680 187.590   1
   5 -10  -4 1049.98 301.530   1
   0  10  -6 462.050 230.390   1
   0  10  -6 234.710 150.500   1
   0  10  -6 15.2000 108.740   1
   8   4   5 856.400 331.270   1
   4  -9  -7 855.540 402.110   1
  -4   9   7 318.970 224.770   1
   2 -11  -1 684.080 342.450   1
  -2  11   1 -275.98 224.340   1
   9  -6  -6 357.590 254.940   1
  -9   6   6 178.010 121.650   1
   8   2  -9 60.7900 144.420   1
  -8  -2   9 127.630 121.480   1
   8   2  -9 -358.06 209.980   1
  -2   2 -13 131.010 219.220   1
   2  -2  13 506.680 212.660   1
   2  -2  13 360.980 158.610   1
   8  -6   7 48.9100 180.670   1
  -8   6  -7 229.290 200.720   1
   9  -5   6 1754.34 267.880   1
  -2   0 -13 663.660 296.740   1
   2   0  13 790.230 180.590   1
   2   0  13 786.010 249.630   1
   7   7  -2 657.960 175.770   1
  -2   6  11 107.830 233.710   1
   2   8  -9 1359.44 401.990   1
   2   8  -9 1965.41 276.120   1
   6   6  -8 306.540 139.120   1
   6   6  -8 356.190 248.670   1
  -1   7  10 468.470 311.730   1
   1  -7 -10 720.120 362.410   1
  -1   7  10 99.2600 263.920   1
   5  -5 -11 294.410 142.230   1
   5  -5 -11 858.220 297.900   1
  -5   5  11 597.340 292.960   1
  -5   5  11 381.340 156.020   1
  -4  -3 -11 728.810 281.420   1
   4   3  11 875.450 256.140   1
   4   3  11 766.910 364.750   1
   4   3  11 283.690 205.760   1
  -4   7 -10 865.640 281.860   1
   4  -7  10 692.710 194.190   1
  10   0   4 403.910 268.140   1
   7  -5   9 233.460 179.400   1
   3  -7 -10 805.460 273.930   1
  -3   7  10 1279.16 371.500   1
  -8   7  -6 2686.89 391.970   1
   8  -7   6 2260.00 368.470   1
  -8   9   0 533.930 243.090   1
   8  -9   0 944.950 272.200   1
   2   5 -12 471.500 254.420   1
  -2  -5  12 270.470 121.750   1
   2   5 -12 174.820 131.240   1
   6  -4 -11 1094.92 406.680   1
  -6   4  11 137.500 244.940   1
   6  -4 -11 240.260 160.140   1
  -6   4  11 258.340 131.180   1
  10   0  -6 760.620 212.400   1
   7   4   7 -226.60 237.840   1
   1 -11   2 985.860 507.460   1
  -1  11  -2 570.570 210.390   1
  -6   5 -10 625.880 276.570   1
   6  -5  10 1717.12 247.050   1
   4  -8   9 255.190 129.060   1
  -4   8  -9 611.670 245.720   1
  -3  11  -2 -200.22 156.840   1
   3 -11   2 426.020 383.570   1
  -3  11   1 542.010 202.070   1
   3 -11  -1 1398.03 384.020   1
   7   7   0 800.520 173.740   1
   3   2 -13 102.720 242.190   1
  -3  -2  13 158.610 144.170   1
  -6  10  -3 492.730 196.690   1
   6 -10   3 630.030 376.230   1
  -2  -6 -10 131.280 346.910   1
   2   6  10 1086.83 383.930   1
   2   6  10 63.5400 280.230   1
   7   4  -9 216.510 131.850   1
   7   4  -9 -20.400 250.460   1
   4   7  -9 541.190 317.170   1
   4   7  -9 988.550 176.020   1
  -5   3  12 151.580 132.740   1
   5  -3 -12 267.570 158.680   1
  -5   3  12 288.280 241.470   1
   5  -3 -12 561.150 280.070   1
 -10   6   3 406.760 153.100   1
  -9   8   0 740.530 218.930   1
   9  -8   0 627.900 327.180   1
  -4   4  12 175.310 337.100   1
   4  -4 -12 269.040 298.480   1
   6   7   4 942.610 348.930   1
   9   1   6 1067.55 351.570   1
  -7   1  11 165.720 187.570   1
   7  -1 -11 3.51000 150.640   1
   7  -1 -11 -77.740 237.790   1
   1  -6 -11 438.480 285.040   1
  -1   6  11 459.110 294.280   1
   8  -9  -1 -84.520 244.490   1
  -8   9   1 70.8600 156.020   1
   6   6   6 -290.01 320.320   1
   6   6   6 -397.11 345.750   1
   9  -2   7 382.170 230.610   1
  -2  -3  13 250.450 159.220   1
   2   3 -13 153.810 220.310   1
  -3   2  13 61.7200 226.700   1
   3  -2 -13 33.5400 313.530   1
  11  -2  -1 569.710 204.340   1
   6   8  -1 325.520 123.340   1
   7   3   8 845.190 293.080   1
   1   4  12 736.200 256.240   1
  -1  -4 -12 800.440 336.350   1
   1   4  12 432.870 314.260   1
  10   2  -4 1100.35 212.530   1
 -10   6  -2 33.6000 168.250   1
  10  -6   2 -214.37 213.010   1
   9  -8  -1 4180.25 476.130   1
  -9   8   1 3342.34 458.910   1
   9   4   2 361.680 256.020   1
   9   4   2 830.850 292.750   1
   9   4   2 632.420 186.150   1
   9   3   4 1111.20 333.750   1
  -8   9  -1 2281.31 386.660   1
   8  -9   1 2493.44 440.310   1
   0  -9  -7 1308.25 293.260   1
   0   9   7 396.160 281.300   1
   0   9   7 553.590 296.890   1
   7   6   4 1929.38 434.050   1
   7   6   4 350.660 306.610   1
   4 -10  -5 1151.18 357.270   1
  -4  10   5 197.550 223.790   1
   1 -11  -1 478.820 378.630   1
  -1  11   1 -35.680 220.410   1
   6   8  -2 245.590 123.490   1
  -5   9  -7 468.670 258.270   1
  -5   9  -7 228.070 266.040   1
   1   9  -8 530.280 181.640   1
   1   9  -8 356.820 288.950   1
  -3   6  11 -68.570 235.400   1
   3  -6 -11 -248.42 236.250   1
  -2   8   9 37.2700 217.270   1
   2  -8  -9 -190.71 250.160   1
  -2   8   9 8.04000 291.020   1
   9   1  -8 795.140 191.730   1
   7   0 -11 98.9900 283.390   1
  -7   0  11 397.640 183.390   1
   7   0 -11 111.590 174.310   1
  -8   8   5 54.2500 134.040   1
   8  -8  -5 -116.42 265.250   1
   8  -1 -10 153.070 254.160   1
  -8   1  10 177.080 168.540   1
   8  -1 -10 266.900 160.080   1
   8   6  -1 473.600 168.870   1
  -6   9  -6 918.420 262.030   1
  -6   9  -6 500.730 302.650   1
   9  -3   7 1787.62 331.180   1
  11  -2  -2 1615.46 293.840   1
 -11   3   1 -30.260 111.540   1
  -9   7  -4 1213.40 270.960   1
   9  -7   4 1143.77 239.290   1
   5   7  -8 74.8200 137.650   1
   5   7  -8 490.580 288.000   1
   7   7  -3 213.440 133.140   1
  -6  10   3 -53.850 151.500   1
   6 -10  -3 -135.21 242.200   1
  -9   8  -1 135.220 180.880   1
   9  -8   1 28.0800 237.630   1
  -7   6   9 900.840 331.840   1
   7  -6  -9 944.100 283.980   1
  -7   6   9 512.010 239.270   1
   7   5  -8 108.370 144.560   1
  -1 -10  -4 1585.70 351.370   1
   1  10   4 1312.34 351.440   1
   6   8   0 102.970 126.100   1
  -2  11  -3 3060.53 411.860   1
  -2  11  -3 1271.20 267.530   1
   5   7   6 487.940 314.520   1
   8   6  -2 541.030 168.520   1
  -7   7   8 1172.33 273.720   1
   7  -7  -8 1304.09 354.980   1
   2   7   9 2253.85 522.540   1
   4 -11   0 1150.68 298.890   1
  -4  11   0 491.700 204.290   1
  10   2   2 1270.41 338.810   1
  10   2   2 1584.85 266.630   1
   9  -1   7 709.110 286.280   1
   7  -2 -11 -72.660 221.180   1
  -7   2  11 262.130 186.520   1
   7  -2 -11 376.100 167.270   1
  11  -1  -1 1634.58 266.860   1
 -11   3   0 66.4300 122.290   1
   4 -11   1 361.840 268.710   1
  -4  11  -1 103.720 149.380   1
 -10   5   5 1087.59 174.640   1
   4   0 -13 262.940 238.630   1
  -4   0  13 417.450 182.830   1
  -3   8   9 -3.3800 209.300   1
   3  -8  -9 34.3900 252.690   1
   3  10  -1 1301.70 228.650   1
  -3 -10   1 1454.89 364.290   1
  -2  -5 -11 -78.540 338.370   1
   2   5  11 -299.07 256.000   1
   2   5  11 -102.83 275.710   1
   2   5  11 -51.250 333.380   1
   8  -2 -10 1117.43 330.840   1
  -8   2  10 843.770 286.270   1
   8  -2 -10 1777.26 289.690   1
  -1   7 -11 -44.000 283.880   1
   5   8  -6 501.480 264.890   1
   5   8  -6 579.820 161.700   1
   6   3 -11 -153.98 242.780   1
   6   3 -11 59.6900 130.750   1
  -6  -3  11 -19.820 120.140   1
  11  -3  -2 398.890 201.890   1
 -11   3   2 329.190 113.730   1
   4   1  12 146.330 171.290   1
   4   1  12 442.300 240.530   1
  -4  -1 -12 300.400 292.610   1
   1   2  13 355.490 264.910   1
  -1  -2 -13 718.420 310.710   1
   1   2  13 384.120 181.710   1
   8   6   0 370.200 145.980   1
   0  11  -1 729.900 215.860   1
   0 -11   1 2778.09 526.140   1
  10  -2   5 538.490 259.280   1
  -9   8   2 646.200 193.250   1
   9  -8  -2 1061.60 358.350   1
   9  -4  -8 133.580 151.800   1
   9  -4  -8 97.7100 257.380   1
  -9   4   8 199.950 116.940   1
  -9   4   8 27.1800 236.840   1
  -8   9   2 217.860 172.240   1
   8  -9  -2 308.150 253.950   1
  -2  11   2 1430.36 289.340   1
   2 -11  -2 1219.58 388.060   1
   1  -8  -9 765.810 272.300   1
  -1   8   9 -118.78 321.850   1
  -1   8   9 517.390 354.350   1
   0   7 -11 105.110 256.710   1
   0   7 -11 352.330 151.010   1
  -5  10  -5 162.830 191.400   1
  -5  10  -5 73.8900 188.710   1
   8   1   8 272.780 218.640   1
   8   0 -10 782.780 187.420   1
  -8   0  10 500.050 177.740   1
   8   0 -10 689.000 332.380   1
  -1  11  -3 495.260 193.620   1
  -1  11  -3 1431.23 260.660   1
   6   2  10 340.420 266.830   1
   6   2  10 25.5800 275.210   1
   6  -9  -6 1719.93 419.410   1
  -6   9   6 1699.95 375.220   1
  11  -1  -2 481.020 199.010   1
   3   6 -11 211.930 157.260   1
   3   6 -11 -157.87 261.120   1
   7   7   1 302.400 121.870   1
  -1   8 -10 375.710 192.780   1
  -1   8 -10 912.730 299.120   1
  11  -1   0 1259.11 290.460   1
   8   5  -6 778.750 160.990   1
   2  -3  13 900.130 188.120   1
  -2   3 -13 1504.40 302.480   1
   2  -3  13 1237.14 223.670   1
  -4   1  13 792.690 203.210   1
   4  -1 -13 240.110 215.300   1
  -3 -10   2 1618.08 470.030   1
   3  10  -2 1094.66 193.860   1
   7   5   6 396.730 308.610   1
 -10   4   6 160.990 112.210   1
   0  11   0 -200.03 196.130   1
   0 -11   0 368.310 314.990   1
   4   9  -5 172.190 121.990   1
   4   9  -5 277.430 193.110   1
   8  -6  -8 351.210 240.210   1
  -8   6   8 238.670 146.020   1
  -8   6   8 543.120 306.050   1
  -7  -3  10 608.870 196.410   1
   7   3 -10 1146.20 315.310   1
   7   3 -10 748.160 182.590   1
   3  10   0 294.780 159.990   1
   3  10   0 319.400 130.970   1
   2   1  13 25.3800 247.400   1
   2   1  13 -183.17 147.100   1
  -2  -1 -13 32.3400 215.190   1
   6   8  -3 716.620 181.770   1
  -3  11  -3 1239.14 252.180   1
  -3  11  -3 2478.05 334.660   1
  10  -3   5 620.210 226.700   1
   8  -5   8 622.570 216.590   1
   0  10   5 -74.040 196.240   1
   0 -10  -5 -149.51 332.910   1
   0   7  10 60.8100 316.200   1
   0   7  10 -17.660 328.720   1
   3 -11  -2 381.850 316.440   1
  -3  11   2 382.570 205.920   1
   9  -7  -5 1840.14 388.060   1
  -9   7   5 1996.36 271.890   1
   8  -9   2 2563.63 415.140   1
  -8   9  -2 1249.02 336.760   1
   3   7 -10 454.160 285.840   1
   3   7 -10 311.960 139.170   1
   4 -11  -1 1406.28 320.040   1
  -4  11   1 900.250 203.550   1
   7  -2  10 -30.130 199.320   1
   3  -5  12 385.090 165.500   1
  11  -2   1 159.630 190.170   1
  11  -2   1 479.260 196.490   1
  -4   6 -11 178.030 229.950   1
   4  -6  11 224.020 153.740   1
  -4   7  10 192.480 194.520   1
  -4   7  10 109.100 263.250   1
   4  -7 -10 847.130 270.590   1
   0 -11   2 1196.13 507.220   1
   0  11  -2 147.930 152.960   1
  -4  10  -6 1081.20 252.200   1
  -4  10  -6 469.010 236.160   1
   1  -3 -13 814.080 286.020   1
  -1   3  13 459.100 250.190   1
  -6   7   9 847.710 376.270   1
   6  -7  -9 517.130 281.840   1
  -6   7   9 182.910 197.770   1
   0   4 -13 893.680 260.180   1
   0  -4  13 419.000 151.040   1
   0  -6 -11 730.340 365.900   1
   0   6  11 1672.46 918.600   1
   0   6  11 938.920 348.920   1
  -2 -10  -3 776.120 260.600   1
   2  10   3 53.9900 186.690   1
   5   8   4 15.6900 124.740   1
  -4  -1  13 602.670 190.400   1
   4   1 -13 806.840 255.250   1
  -4  11  -2 146.590 156.350   1
   4 -11   2 578.600 298.250   1
 -10   5  -4 -100.36 129.960   1
  10  -5   4 22.5600 228.390   1
   8   6  -3 1559.53 235.890   1
   6  -1 -12 -8.9900 138.050   1
  -6   1  12 -33.900 181.790   1
   6  -1 -12 -302.51 219.710   1
   4   9   3 103.440 147.780   1
   0   8 -10 1111.48 213.170   1
   0   8 -10 660.870 311.140   1
  11  -2  -3 1331.39 247.150   1
  -2   3  13 1089.44 249.430   1
   2  -3 -13 1060.74 340.820   1
  -5   5 -11 192.100 250.780   1
   5  -5  11 893.350 194.340   1
   6  -2  11 93.3800 212.270   1
  -6   2 -11 -55.770 231.850   1
   6   0 -12 238.860 156.980   1
   6   0 -12 -55.620 240.450   1
  -4   4 -12 1299.98 380.910   1
   4  -4  12 2293.60 299.920   1
   9   4  -5 349.550 152.120   1
   1  10  -6 280.760 135.980   1
   1  10  -6 145.770 119.760   1
   1  10  -6 145.460 222.770   1
  11  -3   1 2493.50 394.950   1
 -11   3  -1 3051.14 364.250   1
   5   2  11 217.210 220.980   1
   5   2  11 700.250 302.450   1
  10  -1   5 1480.65 293.010   1
   7  -1  10 1423.65 268.150   1
  -2   8 -10 460.140 251.630   1
  -2   8 -10 322.610 187.280   1
   6   8   1 1041.28 187.400   1
   4   4 -12 1104.79 200.370   1
   4   4 -12 738.090 293.990   1
  -4  -4  12 1032.00 192.900   1
  -2   5  12 488.400 256.500   1
   2  -5 -12 121.040 278.720   1
   8  -8   5 906.060 195.320   1
  -8   8  -5 1054.63 225.180   1
  -8   8  -5 933.550 396.310   1
  -2   7 -11 -418.84 253.310   1
   2  -7  11 -16.240 167.510   1
  -9   8  -2 -199.47 200.650   1
   9  -8   2 -154.77 154.420   1
   9  -8   2 299.480 244.460   1
  -7  -1  11 485.810 186.970   1
   7   1 -11 378.810 158.380   1
   7   1 -11 742.250 282.600   1
   8  -7  -7 600.980 323.060   1
  -8   7   7 606.590 189.740   1
  -1  11   2 671.270 270.690   1
   1 -11  -2 1400.52 382.410   1
   2  10  -5 -42.910 121.250   1
   2  10  -5 -37.640 229.180   1
   6  -1  11 658.880 248.010   1
  -6   6  10 883.610 305.100   1
  -6   6  10 432.230 193.170   1
  -4   9  -8 23.6900 209.530   1
  -4   9  -8 133.670 235.470   1
   9  -4   7 -16.110 217.790   1
   1   4 -13 1551.79 337.760   1
  -1  -4  13 1750.43 237.490   1
 -11   4   1 1692.41 239.600   1
  10   3  -1 1000.23 212.290   1
  -1   5  12 146.900 260.480   1
   1  -5 -12 150.800 282.170   1
  -1   5  12 -195.15 288.740   1
   2   9   6 255.330 173.400   1
  -2  -9  -6 514.290 265.080   1
   2   9   6 -82.830 224.870   1
  -5   9   7 347.540 221.560   1
   5  -9  -7 468.470 343.420   1
   7  -3  10 793.500 240.400   1
 -10   6   4 473.710 150.120   1
   1  -4  13 315.910 129.860   1
  -1   4 -13 566.150 253.420   1
   7  -9  -5 1343.89 345.900   1
  -7   9   5 1102.26 250.710   1
 -11   3   3 1265.00 177.890   1
  11  -3  -3 1125.61 242.090   1
   7   2   9 765.650 282.920   1
   7   2   9 110.570 216.850   1
  -7  10   0 369.320 148.320   1
   7 -10   0 248.160 231.690   1
   7  -5 -10 368.070 296.650   1
  -7   5  10 971.910 300.140   1
  -7   5  10 -38.930 146.030   1
   7   7  -4 199.930 132.560   1
   0  11   1 182.740 210.020   1
   0 -11  -1 462.260 313.670   1
  11  -1  -3 40.4300 203.810   1
  10   1  -6 987.610 210.240   1
  11  -1   1 1886.07 309.990   1
  11  -1   1 2356.03 434.510   1
   4  -6 -11 49.5200 236.240   1
  -4   6  11 74.9500 191.390   1
  -4   6  11 487.360 316.470   1
 -11   4   0 407.080 153.740   1
   8   6   1 685.190 285.150   1
   8   6   1 301.900 284.710   1
   8   6   1 105.150 127.000   1
   3  10  -3 1414.23 287.110   1
   3  10  -3 1302.54 219.450   1
  10   3  -2 761.530 215.360   1
  -3  -8  -7 1794.49 402.720   1
   3   8   7 1015.59 335.160   1
  -8   5   9 251.130 134.280   1
  -8   5   9 33.1900 298.010   1
   8  -5  -9 221.430 266.090   1
   8   5   4 -115.10 284.950   1
   8   5   4 629.420 338.590   1
  -7   9  -5 1158.91 370.420   1
  -7   9  -5 2217.46 342.540   1
  -6  10  -4 3431.69 420.340   1
  -6  10  -4 1733.45 379.620   1
 -10   6  -3 224.450 173.510   1
  10  -6   3 154.810 185.330   1
   1   7 -11 226.600 210.410   1
   1   7 -11 487.160 254.770   1
   3  10   1 113.060 121.830   1
  -3 -10  -1 306.590 207.830   1
   3  10   1 191.960 166.870   1
  10  -2  -7 401.020 219.490   1
  -4   8   9 40.0800 211.830   1
   4  -8  -9 241.150 271.820   1
   8  -3 -10 391.350 260.660   1
  -8   3  10 34.0300 221.540   1
   8  -3 -10 485.570 185.010   1
  -8   3  10 183.370 115.710   1
   0   6 -12 -133.13 143.620   1
   0   6 -12 103.380 252.200   1
  -1  10  -7 292.090 236.430   1
  -1  10  -7 6.77000 153.670   1
   6  -7   9 1887.06 209.860   1
  -6   7  -9 1312.17 339.910   1
   7 -10   1 169.710 249.130   1
  -7  10  -1 230.500 156.540   1
  -2  10  -7 1493.54 325.420   1
  -2  10  -7 792.540 184.450   1
   9   0   7 120.620 294.000   1
   0   3  13 -139.04 204.520   1
   0   3  13 104.260 396.910   1
   0  -3 -13 246.230 289.960   1
   6  -3  11 98.6400 182.060   1
  -6   3 -11 156.820 264.890   1
  10  -1  -7 406.840 199.770   1
   7  -8  -7 -66.590 280.910   1
  -7   8   7 433.080 180.880   1
 -11   4   2 1175.82 154.230   1
  -3   1 -13 1088.97 367.860   1
   3  -1  13 508.620 162.550   1
   3  -1  13 547.870 287.910   1
  11   0  -1 386.770 236.430   1
  -7   3  11 170.390 118.920   1
  -7   3  11 123.820 266.120   1
   7  -3 -11 21.5600 322.070   1
  10   2  -5 51.1000 167.130   1
   7 -10  -1 1293.25 258.720   1
  -7  10   1 149.580 151.220   1
   6  -2 -12 526.120 251.360   1
  -6   2  12 477.580 262.060   1
   6  -2 -12 467.960 188.020   1
  10   3   0 116.530 141.310   1
   1  -6  12 715.110 155.970   1
  -1   6 -12 -94.020 267.750   1
  -9   8   3 160.010 154.090   1
   9  -8  -3 159.370 268.320   1
   5   9  -1 -68.920 128.140   1
   3   3 -13 155.020 205.340   1
  -3  -3  13 404.110 149.560   1
   3   3 -13 350.750 154.930   1
   5   3 -12 436.160 277.990   1
   5   3 -12 185.030 137.480   1
  -5  -3  12 318.100 151.980   1
  -3  -9  -5 -57.470 267.230   1
   3   9   5 -46.660 148.500   1
  10   1   4 188.260 250.960   1
  -4   2  13 209.750 219.050   1
   4  -2 -13 171.530 251.170   1
  -7   7  -8 1433.79 322.340   1
   7  -7   8 1731.10 266.910   1
   5   5   9 635.280 348.430   1
  -2  11  -4 1154.18 250.360   1
  -2  11  -4 351.190 212.500   1
   0  11  -3 350.050 165.210   1
   0  11  -3 521.390 204.340   1
   3  -5 -12 129.060 354.820   1
  -3   5  12 153.850 251.980   1
   8  -9  -3 1036.74 297.660   1
  -8   9   3 580.710 152.480   1
  10  -4   5 1047.54 226.360   1
  -4  11   2 839.360 205.940   1
   4 -11  -2 805.390 302.730   1
   9   4   3 294.180 262.790   1
   3   5 -12 -168.32 284.560   1
  -3  -5  12 107.480 115.050   1
   3   5 -12 31.7200 128.720   1
   6  -8  -8 54.5000 279.120   1
  -6   8   8 -69.580 183.240   1
  -6   8  -8 -159.13 199.850   1
   6  -8   8 329.890 193.860   1
   5 -10  -5 989.590 311.440   1
  -5  10   5 591.670 232.220   1
   8  -2   9 1355.54 249.190   1
   8   1 -10 504.610 284.610   1
  -8  -1  10 373.810 190.470   1
   8   1 -10 777.410 165.390   1
  11   0  -2 1353.21 246.010   1
   3  -2  13 64.1900 221.230   1
  -3   2 -13 312.230 231.000   1
   3  -2  13 119.190 134.740   1
   5   9  -2 628.440 138.480   1
   9  -1  -9 743.260 187.120   1
   0   8   9 1538.63 361.100   1
   0   8   9 1195.21 397.650   1
   0  -8  -9 1663.51 322.060   1
   0   8   9 1408.06 522.700   1
   3  -3 -13 686.660 289.730   1
  -3   3  13 888.710 238.140   1
   6   1 -12 164.490 152.230   1
  -6  -1  12 528.740 148.040   1
  -2  10   6 690.420 262.650   1
   2 -10  -6 476.880 348.310   1
  -2  10   6 -204.86 206.250   1
 -10   7   0 -221.66 155.270   1
 -10   7   1 119.560 150.120   1
   3   9  -7 -31.050 242.760   1
   3   9  -7 175.970 141.510   1
   6   8  -4 287.180 134.390   1
   3   3  12 -65.010 173.510   1
  -3  -3 -12 -254.16 290.660   1
   3   3  12 -92.370 246.750   1
  11   0   0 42.3300 175.190   1
   9  -2  -9 178.050 268.020   1
   9  -2  -9 719.340 171.820   1
  -9   2   9 375.920 200.450   1
  -4  11  -3 63.5000 158.920   1
   4   8   6 2285.62 405.780   1
   6   7  -7 685.500 139.940   1
   7   7   2 316.560 134.350   1
   5   9   0 112.050 147.720   1
  -1  11  -4 -116.34 202.030   1
  -1  11  -4 79.9700 148.190   1
  -3  10   6 1293.61 307.180   1
   3 -10  -6 1727.54 362.630   1
  -3  10   6 614.810 306.710   1
   7   6  -7 -18.580 125.460   1
  11  -4   1 253.740 292.720   1
 -11   4  -1 425.770 151.400   1
  -6  10   4 523.980 179.280   1
   6 -10  -4 714.490 255.660   1
  -2  -8  -8 391.620 344.600   1
   2   8   8 29.2700 252.680   1
   2   8   8 386.920 339.190   1
   1   8 -10 794.450 176.450   1
   1   8 -10 985.920 330.210   1
   4   8  -8 346.180 244.330   1
   4   8  -8 442.180 154.930   1
  10   3  -3 1382.09 212.490   1
  11  -2   2 348.620 252.360   1
  11  -2   2 37.2000 139.430   1
   8   6  -4 150.850 149.790   1
   9   3  -7 304.070 155.150   1
   6   0  11 2401.94 346.660   1
   1   9   7 329.000 235.610   1
  -8   9  -3 -144.05 273.790   1
   8  -9   3 604.840 306.870   1
   4   5  10 3.50000 309.270   1
   4   5  10 742.400 339.560   1
   2 -11  -3 1968.00 477.030   1
  -2  11   3 631.680 209.790   1
   4   6   9 -110.57 385.350   1
   7   0  10 -288.08 195.920   1
   7   0  10 -103.46 206.450   1
   8   4  -8 137.780 131.190   1
  -1   9  -9 637.400 228.560   1
  -1   9  -9 55.9400 177.100   1
  -2   9   8 145.140 208.670   1
  -2   9   8 -86.490 280.160   1
   2  -9  -8 192.740 313.900   1
  -2   9   8 330.220 344.540   1
   3   0  13 330.390 157.390   1
  -3   0 -13 84.3900 267.170   1
   3   0  13 486.580 235.920   1
 -10   3   7 911.800 130.290   1
  10  -3  -7 779.420 238.730   1
  10   2   3 281.750 255.140   1
   9   5  -1 542.230 176.060   1
  -5   4  12 542.350 279.540   1
   5  -4 -12 696.470 340.610   1
  -5   4  12 264.380 171.120   1
   4   2 -13 59.5900 136.610   1
  -4  -2  13 171.500 135.750   1
   4   2 -13 -108.24 240.810   1
   9  -6   6 292.610 194.770   1
   8  -3   9 314.120 211.360   1
   8  -1   9 655.680 221.380   1
   5 -11   0 3553.33 396.480   1
  -5  11   0 1443.53 283.790   1
  -3  11  -4 976.860 281.100   1
  -3  11  -4 2112.26 301.160   1
   2   9  -8 -147.75 232.880   1
   2   9  -8 57.1700 141.600   1
   0  -5 -12 244.940 291.310   1
   0   5  12 282.730 266.630   1
   0   5  12 259.910 336.030   1
 -11   3  -2 2038.27 208.860   1
  11  -3   2 1827.86 272.650   1
  11  -2  -4 553.320 207.420   1
   1   6 -12 517.000 146.730   1
   1   6 -12 -147.42 238.760   1
   3 -11  -3 1912.08 373.520   1
  -3  11   3 541.490 247.140   1
   5   6   8 227.960 374.630   1
   9   5  -2 570.450 187.490   1
  -7   8  -7 605.130 248.170   1
   7  -8   7 469.450 209.070   1
   8   3  -9 268.360 149.430   1
  -7  10  -2 25.2500 204.870   1
   7 -10   2 559.370 266.010   1
   3   8  -9 472.440 184.860   1
   3   8  -9 46.9100 252.370   1
   2   4  12 1493.93 283.890   1
  -2  -4 -12 1132.11 387.120   1
   2   4  12 1084.64 319.980   1
   9   2  -8 122.770 155.150   1
   5 -11   1 2444.19 392.320   1
  -5  11  -1 1155.23 212.620   1
   0  10  -7 -179.87 229.160   1
   0  10  -7 -86.230 113.370   1
   0  10  -7 37.3100 146.300   1
   5   4  10 491.740 281.650   1
   5   4  10 742.240 292.740   1
  10  -7   1 117.140 159.810   1
 -10   7  -1 490.140 208.360   1
   3  -8  10 -143.07 141.860   1
  -3   8 -10 442.560 244.050   1
  -3   9   8 46.4100 269.630   1
  -3   9   8 416.680 261.830   1
   3  -9  -8 776.890 286.960   1
  -3   9   8 860.310 349.220   1
  -5   2 -12 245.830 306.470   1
   5  -2  12 487.560 184.400   1
   5  -2  12 378.420 217.020   1
  -3  10  -7 295.420 232.030   1
  -3  10  -7 1021.01 272.830   1
  -2  -4  13 346.580 143.720   1
 -10   7   2 1078.97 161.880   1
  10   0   5 241.000 247.690   1
  -7  10   2 263.420 155.680   1
   7 -10  -2 488.480 269.970   1
   8   3   7 851.650 286.480   1
  -2   9  -9 231.210 214.070   1
  -2   9  -9 518.570 236.480   1
   5  -1  12 -219.33 185.710   1
   5  -1  12 -42.490 135.670   1
  -5   1 -12 -53.680 232.530   1
   6   8   2 1247.09 173.250   1
 -11   4   3 127.580 115.300   1
  10   0  -7 192.270 193.680   1
   9   0  -9 327.270 183.840   1
  -7   6  -9 461.070 245.930   1
   7  -6   9 967.170 192.650   1
  10   3   1 47.5200 148.870   1
  10   3   1 -150.36 267.430   1
  -1  10   6 273.100 244.620   1
   1 -10  -6 247.280 312.060   1
   2  -6  12 835.820 181.000   1
  -2   6 -12 334.720 239.040   1
   6   5   8 26.7000 317.540   1
   5   9  -3 1314.99 159.250   1
   5  -8   9 748.300 158.260   1
  -5   8  -9 444.460 264.600   1
   0 -11  -2 279.010 343.920   1
   0  11   2 -298.60 212.550   1
  11   0  -3 1674.03 252.640   1
   9  -8   3 303.960 317.180   1
   9  -8   3 -49.480 168.270   1
  -9   8  -3 110.310 215.670   1
   1  11  -1 1096.30 242.140   1
  -1 -11   1 4157.46 585.790   1
  -9   6   7 1695.53 366.650   1
  -9   6   7 2501.14 194.580   1
   9  -6  -7 1336.38 309.780   1
  -2   4 -13 213.670 229.260   1
   2  -4  13 -55.310 110.920   1
   2  -4  13 -92.710 166.600   1
   7  -4  10 252.250 220.450   1
   9   5   0 249.030 152.230   1
   9   5   0 28.9600 347.020   1
   6   4   9 477.150 263.810   1
   9   2   6 909.350 279.140   1
   3  -7  11 -103.07 136.840   1
  -3   7 -11 -168.52 220.100   1
   5  -7  10 1263.02 241.020   1
  -5   7 -10 570.970 258.450   1
  11  -1  -4 1914.32 256.730   1
  -5  11   1 981.630 180.040   1
   5 -11  -1 1280.78 298.240   1
   6  -5 -11 563.340 290.480   1
   6  -5 -11 246.920 158.200   1
  -6   5  11 60.7500 138.350   1
  -6   5  11 276.780 296.770   1
   9  -7   5 138.770 168.770   1
   3  10  -4 -91.080 131.000   1
   3  10  -4 133.430 188.660   1
  11  -1   2 394.190 269.440   1
  11  -1   2 795.500 196.690   1
  11  -3  -4 2242.09 265.260   1
 -11   3   4 2180.79 157.570   1
   6   7   5 1161.78 418.650   1
  -2  -2 -13 1009.77 285.870   1
   2   2  13 1039.91 197.360   1
   2   2  13 901.930 290.850   1
  -6   6 -10 90.7400 211.290   1
   6  -6  10 32.7700 174.360   1
   0   9  -9 1397.74 378.570   1
   0   9  -9 1722.58 202.250   1
   0   9  -9 506.490 252.690   1
  11   0   1 1.43000 154.530   1
   1   7  10 -368.88 332.960   1
   1   7  10 -514.76 286.290   1
  -1   9   8 145.860 196.570   1
   1  -9  -8 327.330 328.080   1
  -1   9   8 -225.68 280.100   1
  -1   9   8 142.260 267.840   1
   4   2  12 -173.30 250.230   1
   4   2  12 25.2400 132.120   1
  -4  -2 -12 259.640 279.230   1
  -1 -11   0 2964.82 421.970   1
   1  11   0 908.490 252.530   1
   1   6  11 658.490 343.980   1
  -1  -6 -11 886.200 341.410   1
   1   6  11 456.920 401.040   1
   1   6  11 1375.87 375.030   1
   8   4   6 752.100 246.460   1
   3  10   2 313.010 184.040   1
  -3 -10  -2 255.550 235.220   1
   9   3   5 560.370 273.940   1
   1 -11  -3 906.970 377.950   1
  -1  11   3 168.730 210.610   1
   8   6   2 -245.97 304.110   1
   8   6   2 -307.24 241.400   1
  -8   8   6 596.750 155.520   1
   8  -8  -6 353.760 311.020   1
   3  -3  13 511.490 193.300   1
   3  -3  13 414.680 171.800   1
  -3   3 -13 602.290 244.610   1
   5   9   1 -14.010 140.380   1
   6   5 -10 144.190 282.620   1
   6   5 -10 12.5700 131.860   1
   1  11  -2 8.73000 156.600   1
  -1 -11   2 886.080 480.360   1
  -5   7  10 139.570 184.470   1
  -5   7  10 114.220 342.440   1
   5  -7 -10 199.240 278.520   1
   5   6 -10 1046.13 150.330   1
   5   6 -10 906.310 313.400   1
  -9   3   9 -8.5800 185.660   1
   9  -3  -9 69.4800 173.120   1
  -9   3   9 -6.7800 106.480   1
   9  -3  -9 -169.80 311.140   1
   7   6   5 162.560 401.440   1
   7   6   5 1328.68 409.480   1
 -10   5   6 605.080 122.100   1
  -5  11  -2 29.8000 150.880   1
   9   5  -3 794.120 166.740   1
   1  10   5 688.600 243.170   1
  -1 -10  -5 1989.22 307.750   1
   4   9  -6 126.810 124.000   1
   4   9  -6 115.970 235.120   1
  -9   5   8 243.590 239.820   1
   9  -5  -8 549.590 241.640   1
  -9   5   8 707.800 136.760   1
   7   2 -11 260.180 244.320   1
   7   2 -11 323.040 179.190   1
  -6   4 -11 371.180 248.780   1
   6  -4  11 156.660 166.510   1
   4 -10  -6 705.790 305.510   1
  -4  10   6 970.750 243.510   1
   7   7  -5 405.380 154.360   1
   8  -7   7 2018.56 279.510   1
  -8   7  -7 2011.19 307.750   1
   0  11  -4 391.320 202.750   1
   0  11  -4 102.110 155.250   1
   9  -5   7 1878.70 253.200   1
 -11   5   1 182.360 134.520   1
   5   5 -11 7.32000 300.040   1
   5   5 -11 76.9400 150.340   1
   5  -3  12 41.3300 191.620   1
  -5   3 -12 -417.51 252.110   1
   1   3  13 -278.53 246.660   1
   1   3  13 354.000 201.700   1
  -1  -3 -13 -396.25 258.470   1
   6  -3 -12 -203.45 224.510   1
  -6   3  12 97.2100 122.340   1
  -6   3  12 55.3800 235.150   1
   6  -3 -12 170.350 256.830   1
   4  -5 -12 467.340 345.960   1
  -4   5  12 547.790 300.980   1
   2  10   4 683.740 244.950   1
  -2 -10  -4 1570.46 284.420   1
  -1   0  14 181.140 152.040   1
   1   0 -14 -29.430 209.500   1
   3   6  10 557.250 481.060   1
  -3  -6 -10 72.7100 353.820   1
   3   6  10 -91.130 280.740   1
   3   6  10 27.8200 447.270   1
   2   7 -11 765.860 272.710   1
   2   7 -11 891.540 166.790   1
  -1  -1  14 771.210 170.330   1
   1   1 -14 481.140 303.170   1
 -11   5   0 464.150 165.210   1
   5   8  -7 292.090 138.390   1
   5   8  -7 534.170 224.690   1
  11  -4   2 -73.610 209.200   1
 -11   4  -2 45.0700 149.310   1
   9   4  -6 458.410 164.890   1
  10   3  -4 376.720 176.860   1
  -5  10  -6 222.960 228.090   1
  -5  10  -6 381.000 212.110   1
   5   0  12 733.260 256.250   1
   5   0  12 289.650 200.770   1
   4 -11  -3 2140.56 375.390   1
  -4  11   3 583.550 254.640   1
   4   9   4 437.150 267.740   1
  -9   8   4 416.640 153.210   1
   9  -8  -4 -130.87 300.320   1
   8   2   8 6.88000 245.240   1
 -10   6   5 389.370 142.850   1
  10  -6  -5 160.130 230.650   1
   5   0 -13 375.400 163.380   1
   5   0 -13 334.010 267.560   1
  -5   0  13 314.930 194.760   1
   4   4  11 -217.25 252.730   1
   4   4  11 475.450 292.250   1
   8   5  -7 -15.010 131.430   1
   0  -1  14 154.870 148.330   1
   8  -4   9 892.930 205.530   1
 -10   7  -2 1463.75 276.840   1
  10  -7   2 1034.63 206.480   1
   6   6  -9 270.900 147.370   1
   6   6  -9 338.600 255.620   1
  -9   7   6 1022.61 162.910   1
   9  -7  -6 883.160 336.640   1
  -4   9   8 1178.87 333.120   1
  -4   9   8 775.540 408.760   1
   4  -9  -8 330.640 285.010   1
   8   0   9 165.100 218.760   1
  -8   4  10 448.810 254.650   1
   8  -4 -10 571.860 303.200   1
  -8   4  10 506.930 172.840   1
   8  -4 -10 121.450 158.580   1
  -5   8   9 -193.29 198.440   1
   5  -8  -9 -134.43 263.430   1
   6  -9   7 529.410 157.280   1
  -6   9  -7 136.030 225.340   1
  -6   9  -7 22.1600 226.900   1
 -10   7   3 3126.01 238.610   1
  10  -7  -3 2856.39 380.100   1
   5  -1 -13 -9.7000 216.060   1
  -5   1  13 18.7200 189.310   1
  -8   9   4 810.970 179.160   1
   8  -9  -4 1655.17 337.620   1
  -4   5 -12 87.6300 241.130   1
   4  -5  12 -83.020 159.370   1
   9   5   1 680.830 161.040   1
   9   5   1 903.270 284.880   1
   9   5   1 434.560 345.000   1
   2  10  -6 -56.410 135.140   1
   2  10  -6 -54.830 209.060   1
  -1 -11  -1 2289.95 392.010   1
   1  11   1 867.450 213.200   1
   0   0  14 229.200 158.060   1
   0   0 -14 302.150 252.200   1
  -3   9  -9 441.460 234.210   1
  -3   9  -9 196.270 225.090   1
   6   2 -12 -140.18 237.140   1
  -6  -2  12 230.300 143.120   1
   6   2 -12 171.260 135.190   1
 -11   5   2 427.140 156.190   1
   8  -6   8 663.230 190.800   1
  -5   6  11 348.860 345.960   1
  -5   6  11 173.950 158.240   1
   5  -6 -11 -81.440 261.090   1
   3   1  13 184.160 240.400   1
  -3  -1 -13 -21.680 277.500   1
   3   1  13 -11.280 152.080   1
  10  -6   4 639.160 185.770   1
 -10   6  -4 707.930 184.770   1
   4  -3 -13 -234.89 262.340   1
  -4   3  13 119.920 225.370   1
  10  -5   5 180.790 195.220   1
  -4  11  -4 1057.17 231.230   1
  -4  11  -4 1505.53 215.360   1
   7 -10   3 1531.80 438.360   1
  -7  10  -3 877.570 255.910   1
   5 -11  -2 -18.630 229.520   1
  -5  11   2 143.640 156.440   1
   6   8  -5 2455.58 214.970   1
   9   1   7 180.910 238.850   1
 -10   4   7 -3.2100 107.380   1
  10  -4  -7 162.330 162.030   1
  11   1  -1 967.710 238.630   1
   1  11  -3 441.690 217.450   1
   1  11  -3 -55.490 144.260   1
  -6  10  -5 584.690 227.610   1
  -6  10  -5 654.430 187.880   1
   2   0 -14 22.3100 215.150   1
  -2   0  14 22.3300 163.030   1
  -7   4  11 529.990 169.350   1
   7  -4 -11 881.270 336.050   1
   7  -4 -11 1109.20 213.450   1
  -2  11  -5 543.820 189.010   1
  -2  11  -5 514.950 187.830   1
   6   4 -11 215.330 148.960   1
  -6  -4  11 158.930 123.630   1
   6   4 -11 -268.95 281.370   1
   5   9  -4 757.410 133.710   1
   7 -10  -3 814.070 271.710   1
  -7  10   3 866.270 192.410   1
   8   6  -5 -180.75 133.070   1
   5   8   5 398.800 319.470   1
  10  -2   6 -133.99 243.910   1
   3   5  11 -159.93 247.240   1
  -3  -5 -11 -305.46 311.630   1
   3   5  11 246.130 366.650   1
   4   6 -11 362.860 162.870   1
   4   6 -11 -59.810 309.490   1
  11   0  -4 336.000 204.630   1
   2   6 -12 569.240 144.240   1
   2   6 -12 -242.76 282.320   1
  -5   9  -8 -17.270 222.930   1
   5  -9   8 0.81000 140.420   1
  -5   9  -8 351.170 223.440   1
   6   1  11 -396.67 224.300   1
  11  -2   3 4000.37 319.080   1
  11  -2   3 3905.74 372.040   1
  11   1  -2 240.710 179.050   1
  -3  -7  -9 458.040 426.920   1
   3   7   9 638.380 310.230   1
   8   2 -10 83.8500 160.840   1
   6   3  10 -281.57 241.430   1
  10   2  -6 -247.88 169.680   1
   2   1 -14 327.470 265.160   1
 -11   4   4 84.4000 111.230   1
   2  -4 -13 406.910 292.830   1
   7   7   3 -36.750 328.040   1
   0   5 -13 33.4000 253.080   1
   0  -5  13 7.08000 117.760   1
   1   8   9 -53.370 280.930   1
  -1  -8  -9 480.380 310.070   1
   1   8   9 735.540 331.700   1
   1   8   9 -73.280 326.440   1
   9   1  -9 993.050 192.000   1
   1  10  -7 223.990 147.710   1
   1  10  -7 212.790 256.410   1
  -1  11  -5 115.220 147.150   1
   0  10   6 90.5400 190.700   1
  -6   9   7 48.3500 223.740   1
   1  -1 -14 355.770 276.990   1
   8  -9   4 -356.72 351.120   1
  -8   9  -4 153.980 241.390   1
  11  -3   3 2256.69 228.130   1
   7   1  10 1219.76 343.960   1
  11   1   0 717.760 228.240   1
  -4  10  -7 2260.74 302.010   1
  -4  10  -7 679.320 289.030   1
  -8   8  -6 -41.170 168.400   1
  11   0   2 861.350 199.560   1
  -5   6 -11 20.8200 239.730   1
  11  -2  -5 293.590 187.350   1
;
_shelx_hkl_checksum              97433
_olex2_date_sample_data_collection 08/11/2014
_olex2_date_sample_submission    08/11/2014
_olex2_submission_original_sample_id '2014lhb127, lhb3_093_02'
_olex2_submission_special_instructions 'No special instructions were received'
loop_
_space_group_symop_operation_xyz
'x, y, z'
'-x, -y, -z'
loop_
_atom_site_label
_atom_site_type_symbol
_atom_site_fract_x
_atom_site_fract_y
_atom_site_fract_z
_atom_site_U_iso_or_equiv
_atom_site_adp_type
_atom_site_occupancy
_atom_site_site_symmetry_order
_atom_site_calc_flag
_atom_site_refinement_flags_posn
_atom_site_refinement_flags_adp
_atom_site_refinement_flags_occupancy
_atom_site_disorder_assembly
_atom_site_disorder_group
Sr1 Sr 0.42979(7) 0.28371(7) 0.58036(6) 0.0276(2) Uani 1 1 d . . . . .
F1 F 0.3014(5) 0.8715(5) 0.8149(4) 0.0364(10) Uani 1 1 d . . . . .
F2 F 0.0725(5) 0.8239(5) 0.9674(4) 0.0420(11) Uani 1 1 d . . . . .
F3 F -0.1541(5) 0.5735(5) 0.9291(4) 0.0395(10) Uani 1 1 d . . . . .
F4 F 0.0820(4) 0.4117(5) 0.5858(4) 0.0341(9) Uani 1 1 d . . . . .
O1 O 0.3930(5) 0.5529(5) 0.5851(4) 0.0291(11) Uani 1 1 d . . . . .
O1S O 0.3026(6) 0.2973(7) 0.7780(5) 0.0381(12) Uani 1 1 d . . . . .
O1W O 0.2705(6) 0.2858(6) 0.3742(5) 0.0348(12) Uani 1 1 d . . . . .
H1WA H 0.2485 0.3778 0.3644 0.052 Uiso 1 1 d GR . . . .
H1WB H 0.1822 0.2182 0.3727 0.052 Uiso 1 1 d GR . . . .
O2 O 0.3778(5) 0.7968(6) 0.5781(4) 0.0299(11) Uani 1 1 d . . . . .
O2W O 0.2260(5) 0.0294(6) 0.5431(5) 0.0339(11) Uani 1 1 d . . . . .
H2WA H 0.2717 -0.0541 0.5501 0.051 Uiso 1 1 d GR . . . .
H2WB H 0.1756 0.0213 0.4657 0.051 Uiso 1 1 d GR . . . .
O3 O -0.3024(5) 0.4062(6) 0.6891(4) 0.0312(11) Uani 1 1 d . . . . .
O3W O 0.5350(5) 0.0783(6) 0.6948(4) 0.0330(11) Uani 1 1 d . . . . .
H3WA H 0.6367 0.1071 0.7137 0.049 Uiso 1 1 d GR . . . .
H3WB H 0.5182 -0.0088 0.6480 0.049 Uiso 1 1 d GR . . . .
O4 O -0.1672(5) 0.2271(6) 0.7412(5) 0.0402(13) Uani 1 1 d . . . . .
N1S N 0.3817(7) 0.2286(8) 0.9663(6) 0.0356(14) Uani 1 1 d . . . . .
C1 C 0.3329(7) 0.6651(8) 0.6138(6) 0.0259(14) Uani 1 1 d . . . . .
C1S C 0.2777(9) 0.2302(9) 0.8724(7) 0.0364(17) Uani 1 1 d . . . . .
H1S H 0.1757 0.1748 0.8791 0.044 Uiso 1 1 calc R . . . .
C2 C 0.2016(8) 0.6395(8) 0.6976(6) 0.0299(15) Uani 1 1 d . . . . .
C2S C 0.3439(9) 0.1443(10) 1.0752(7) 0.0433(19) Uani 1 1 d . . . . .
H2SA H 0.2343 0.0949 1.0667 0.065 Uiso 1 1 calc GR . . . .
H2SB H 0.3641 0.2149 1.1488 0.065 Uiso 1 1 calc GR . . . .
H2SC H 0.4079 0.0664 1.0835 0.065 Uiso 1 1 calc GR . . . .
C3 C 0.1931(8) 0.7440(9) 0.7934(6) 0.0313(15) Uani 1 1 d . . . . .
C3S C 0.5392(8) 0.3102(10) 0.9632(8) 0.0414(19) Uani 1 1 d . . . . .
H3SA H 0.5699 0.3746 1.0397 0.062 Uiso 1 1 calc GR . . . .
H3SB H 0.5465 0.3745 0.8923 0.062 Uiso 1 1 calc GR . . . .
H3SC H 0.6082 0.2368 0.9555 0.062 Uiso 1 1 calc GR . . . .
C4 C 0.0750(8) 0.7199(9) 0.8723(7) 0.0342(16) Uani 1 1 d . . . . .
C5 C -0.0385(8) 0.5926(9) 0.8511(6) 0.0318(16) Uani 1 1 d . . . . .
C6 C -0.0416(7) 0.4878(8) 0.7562(6) 0.0292(15) Uani 1 1 d . . . . .
C7 C -0.1804(8) 0.3606(9) 0.7259(7) 0.0323(16) Uani 1 1 d . . . . .
C8 C 0.0838(8) 0.5127(8) 0.6815(6) 0.0293(15) Uani 1 1 d . . . . .
O101 O -0.0367(6) -0.0178(6) 0.6806(5) 0.0386(12) Uani 1 1 d . . . . .
H10A H -0.0641 0.0656 0.7076 0.058 Uiso 1 1 d G . . . .
H10B H 0.0528 0.0051 0.6501 0.058 Uiso 1 1 d G . . . .
loop_
_atom_site_aniso_label
_atom_site_aniso_U_11
_atom_site_aniso_U_22
_atom_site_aniso_U_33
_atom_site_aniso_U_23
_atom_site_aniso_U_13
_atom_site_aniso_U_12
Sr1 0.0190(3) 0.0280(4) 0.0389(4) 0.0044(3) 0.0004(2) 0.0127(2)
F1 0.031(2) 0.029(2) 0.049(2) -0.0032(19) 0.0037(18) 0.0066(18)
F2 0.031(2) 0.049(3) 0.047(2) -0.011(2) 0.0087(19) 0.012(2)
F3 0.028(2) 0.044(3) 0.048(2) 0.001(2) 0.0087(18) 0.0084(19)
F4 0.026(2) 0.032(2) 0.046(2) -0.0026(19) -0.0018(17) 0.0128(17)
O1 0.025(2) 0.029(3) 0.039(3) 0.005(2) 0.0055(19) 0.016(2)
O1S 0.035(3) 0.051(3) 0.037(3) 0.008(2) 0.004(2) 0.026(3)
O1W 0.027(3) 0.031(3) 0.048(3) 0.006(2) -0.002(2) 0.011(2)
O2 0.022(2) 0.026(3) 0.045(3) 0.003(2) 0.0017(19) 0.0133(19)
O2W 0.020(2) 0.035(3) 0.049(3) 0.003(2) -0.002(2) 0.012(2)
O3 0.022(2) 0.034(3) 0.042(3) 0.005(2) -0.001(2) 0.015(2)
O3W 0.027(3) 0.033(3) 0.042(3) 0.002(2) -0.004(2) 0.016(2)
O4 0.021(2) 0.033(3) 0.070(4) 0.007(3) 0.001(2) 0.013(2)
N1S 0.028(3) 0.044(4) 0.037(3) 0.003(3) 0.001(2) 0.012(3)
C1 0.016(3) 0.029(4) 0.035(3) 0.001(3) -0.001(2) 0.012(3)
C1S 0.036(4) 0.042(5) 0.037(4) 0.004(3) 0.003(3) 0.023(3)
C2 0.024(3) 0.036(4) 0.034(3) 0.006(3) -0.002(3) 0.018(3)
C2S 0.035(4) 0.049(5) 0.047(4) 0.010(4) -0.004(3) 0.012(4)
C3 0.023(3) 0.035(4) 0.037(4) -0.001(3) -0.004(3) 0.010(3)
C3S 0.030(4) 0.048(5) 0.050(4) 0.008(4) 0.002(3) 0.016(3)
C4 0.031(4) 0.034(4) 0.040(4) 0.002(3) -0.002(3) 0.013(3)
C5 0.023(3) 0.038(4) 0.038(4) 0.006(3) 0.002(3) 0.013(3)
C6 0.019(3) 0.031(4) 0.040(4) 0.007(3) -0.002(3) 0.013(3)
C7 0.023(3) 0.033(4) 0.045(4) 0.005(3) 0.004(3) 0.014(3)
C8 0.024(3) 0.030(4) 0.039(4) 0.003(3) 0.000(3) 0.016(3)
O101 0.028(3) 0.036(3) 0.056(3) 0.002(3) 0.003(2) 0.015(2)
loop_
_atom_type_symbol
_atom_type_description
_atom_type_scat_dispersion_real
_atom_type_scat_dispersion_imag
_atom_type_scat_source
C C 0.0033 0.0016 'International Tables Vol C Tables 4.2.6.8 and 6.1.1.4'
H H 0.0000 0.0000 'International Tables Vol C Tables 4.2.6.8 and 6.1.1.4'
F F 0.0171 0.0103 'International Tables Vol C Tables 4.2.6.8 and 6.1.1.4'
N N 0.0061 0.0033 'International Tables Vol C Tables 4.2.6.8 and 6.1.1.4'
O O 0.0106 0.0060 'International Tables Vol C Tables 4.2.6.8 and 6.1.1.4'
Sr Sr -1.5307 3.2498 'International Tables Vol C Tables 4.2.6.8 and 6.1.1.4'
loop_
_geom_angle_atom_site_label_1
_geom_angle_atom_site_label_2
_geom_angle_atom_site_label_3
_geom_angle
_geom_angle_site_symmetry_1
_geom_angle_site_symmetry_3
O1 Sr1 O1 69.17(16) . 2_666
O1 Sr1 O1S 79.74(17) . .
O1 Sr1 O1W 78.85(16) . .
O1 Sr1 O2 117.34(15) . 2_666
O1 Sr1 O2W 129.94(15) . .
O1 Sr1 O3 82.91(15) . 1_655
O1 Sr1 O3W 146.86(16) . .
O1S Sr1 O1 145.51(18) . 2_666
O1S Sr1 O1W 119.41(16) . .
O1S Sr1 O2 158.11(16) . 2_666
O1S Sr1 O2W 82.19(18) . .
O1S Sr1 O3 91.57(17) . 1_655
O1S Sr1 O3W 79.84(16) . .
O1W Sr1 O1 69.61(15) . 2_666
O1W Sr1 O2 79.23(15) . 2_666
O1W Sr1 O2W 70.41(16) . .
O1W Sr1 O3 139.92(16) . 1_655
O2 Sr1 O1 48.17(14) 2_666 2_666
O2W Sr1 O1 129.43(16) . 2_666
O2W Sr1 O2 94.88(15) . 2_666
O3 Sr1 O1 70.60(14) 1_655 2_666
O3 Sr1 O2 78.03(15) 1_655 2_666
O3 Sr1 O2W 143.98(15) 1_655 .
O3W Sr1 O1 119.29(14) . 2_666
O3W Sr1 O1W 134.17(17) . .
O3W Sr1 O2 78.63(15) . 2_666
O3W Sr1 O2W 72.13(16) . .
O3W Sr1 O3 71.85(16) . 1_655
Sr1 O1 Sr1 110.83(16) . 2_666
C1 O1 Sr1 157.0(4) . .
C1 O1 Sr1 91.9(4) . 2_666
C1S O1S Sr1 142.3(5) . .
Sr1 O1W H1WA 110.3 . .
Sr1 O1W H1WB 110.0 . .
H1WA O1W H1WB 108.5 . .
C1 O2 Sr1 95.8(4) . 2_666
Sr1 O2W H2WA 111.3 . .
Sr1 O2W H2WB 111.6 . .
H2WA O2W H2WB 107.3 . .
C7 O3 Sr1 136.6(5) . 1_455
Sr1 O3W H3WA 110.6 . .
Sr1 O3W H3WB 110.3 . .
H3WA O3W H3WB 108.4 . .
C1S N1S C2S 122.1(7) . .
C1S N1S C3S 120.7(6) . .
C3S N1S C2S 117.1(6) . .
O1 C1 Sr1 63.8(3) . 2_666
O1 C1 C2 117.8(6) . .
O2 C1 Sr1 60.1(3) . 2_666
O2 C1 O1 123.4(6) . .
O2 C1 C2 118.7(6) . .
C2 C1 Sr1 173.4(4) . 2_666
O1S C1S N1S 125.2(8) . .
O1S C1S H1S 117.4 . .
N1S C1S H1S 117.4 . .
C3 C2 C1 121.2(6) . .
C8 C2 C1 122.0(6) . .
C8 C2 C3 116.8(6) . .
N1S C2S H2SA 109.5 . .
N1S C2S H2SB 109.5 . .
N1S C2S H2SC 109.5 . .
H2SA C2S H2SB 109.5 . .
H2SA C2S H2SC 109.5 . .
H2SB C2S H2SC 109.5 . .
F1 C3 C2 120.9(6) . .
F1 C3 C4 117.5(6) . .
C2 C3 C4 121.6(7) . .
N1S C3S H3SA 109.5 . .
N1S C3S H3SB 109.5 . .
N1S C3S H3SC 109.5 . .
H3SA C3S H3SB 109.5 . .
H3SA C3S H3SC 109.5 . .
H3SB C3S H3SC 109.5 . .
F2 C4 C3 119.9(7) . .
F2 C4 C5 121.3(6) . .
C5 C4 C3 118.7(7) . .
F3 C5 C4 117.3(7) . .
C6 C5 F3 119.6(6) . .
C6 C5 C4 123.1(7) . .
C5 C6 C7 121.1(6) . .
C5 C6 C8 116.4(7) . .
C8 C6 C7 122.2(7) . .
O3 C7 C6 114.0(6) . .
O4 C7 O3 126.8(7) . .
O4 C7 C6 119.1(6) . .
F4 C8 C2 119.2(6) . .
F4 C8 C6 117.5(6) . .
C2 C8 C6 123.2(7) . .
H10A O101 H10B 109.5 . .
loop_
_geom_bond_atom_site_label_1
_geom_bond_atom_site_label_2
_geom_bond_distance
_geom_bond_site_symmetry_2
Sr1 O1 2.485(5) .
Sr1 O1 2.750(5) 2_666
Sr1 O1S 2.499(5) .
Sr1 O1W 2.564(5) .
Sr1 O2 2.668(5) 2_666
Sr1 O2W 2.611(5) .
Sr1 O3 2.586(5) 1_655
Sr1 O3W 2.544(5) .
F1 C3 1.340(8) .
F2 C4 1.361(8) .
F3 C5 1.361(8) .
F4 C8 1.342(8) .
O1 Sr1 2.750(5) 2_666
O1 C1 1.257(8) .
O1S C1S 1.224(9) .
O1W H1WA 0.8892 .
O1W H1WB 0.8890 .
O2 Sr1 2.668(5) 2_666
O2 C1 1.255(8) .
O2W H2WA 0.9158 .
O2W H2WB 0.9160 .
O3 Sr1 2.587(5) 1_455
O3 C7 1.268(8) .
O3W H3WA 0.8917 .
O3W H3WB 0.8921 .
O4 C7 1.237(9) .
N1S C1S 1.326(9) .
N1S C2S 1.456(10) .
N1S C3S 1.445(10) .
C1 Sr1 3.061(6) 2_666
C1 C2 1.513(9) .
C1S H1S 0.9500 .
C2 C3 1.381(10) .
C2 C8 1.379(10) .
C2S H2SA 0.9800 .
C2S H2SB 0.9800 .
C2S H2SC 0.9800 .
C3 C4 1.386(10) .
C3S H3SA 0.9800 .
C3S H3SB 0.9800 .
C3S H3SC 0.9800 .
C4 C5 1.364(11) .
C5 C6 1.355(10) .
C6 C7 1.510(10) .
C6 C8 1.407(9) .
O101 H10A 0.8702 .
O101 H10B 0.8700 .
loop_
_geom_hbond_atom_site_label_D
_geom_hbond_atom_site_label_H
_geom_hbond_atom_site_label_A
_geom_hbond_distance_DH
_geom_hbond_distance_HA
_geom_hbond_distance_DA
_geom_hbond_angle_DHA
_geom_hbond_site_symmetry_A
O1W H1WA O3 0.89 2.02 2.832(7) 151.6 2_566
O1W H1WB O101 0.89 2.03 2.856(7) 154.5 2_556
O2W H2WA O2 0.92 1.79 2.705(7) 172.9 1_545
O2W H2WB O101 0.92 1.94 2.839(7) 168.5 2_556
O3W H3WA O4 0.89 1.85 2.712(7) 161.5 1_655
O3W H3WB O2 0.89 2.01 2.827(7) 150.9 1_545
O101 H10A O4 0.87 1.88 2.734(7) 166.1 .
O101 H10B O2W 0.87 1.97 2.819(7) 165.4 .
loop_
_geom_torsion_atom_site_label_1
_geom_torsion_atom_site_label_2
_geom_torsion_atom_site_label_3
_geom_torsion_atom_site_label_4
_geom_torsion
_geom_torsion_site_symmetry_1
_geom_torsion_site_symmetry_2
_geom_torsion_site_symmetry_3
_geom_torsion_site_symmetry_4
Sr1 O1 C1 Sr1 -171.5(11) . . . 2_666
Sr1 O1 C1 O2 -8.3(7) 2_666 . . .
Sr1 O1 C1 O2 -179.8(7) . . . .
Sr1 O1 C1 C2 172.8(5) 2_666 . . .
Sr1 O1 C1 C2 1.3(15) . . . .
Sr1 O1S C1S N1S 74.6(12) . . . .
Sr1 O2 C1 O1 8.6(7) 2_666 . . .
Sr1 O2 C1 C2 -172.5(5) 2_666 . . .
Sr1 O3 C7 O4 -16.2(12) 1_455 . . .
Sr1 O3 C7 C6 165.6(4) 1_455 . . .
F1 C3 C4 F2 -0.1(10) . . . .
F1 C3 C4 C5 178.7(6) . . . .
F2 C4 C5 F3 -0.2(10) . . . .
F2 C4 C5 C6 178.8(6) . . . .
F3 C5 C6 C7 7.6(10) . . . .
F3 C5 C6 C8 -178.3(6) . . . .
O1 C1 C2 C3 137.4(7) . . . .
O1 C1 C2 C8 -43.5(9) . . . .
O2 C1 C2 C3 -41.6(9) . . . .
O2 C1 C2 C8 137.5(7) . . . .
C1 C2 C3 F1 0.0(10) . . . .
C1 C2 C3 C4 -178.6(6) . . . .
C1 C2 C8 F4 -2.6(9) . . . .
C1 C2 C8 C6 -178.5(6) . . . .
C2 C3 C4 F2 178.5(6) . . . .
C2 C3 C4 C5 -2.7(11) . . . .
C2S N1S C1S O1S -179.2(8) . . . .
C3 C2 C8 F4 176.5(6) . . . .
C3 C2 C8 C6 0.7(10) . . . .
C3 C4 C5 F3 -179.0(6) . . . .
C3 C4 C5 C6 0.1(11) . . . .
C3S N1S C1S O1S 0.1(12) . . . .
C4 C5 C6 C7 -171.5(7) . . . .
C4 C5 C6 C8 2.7(10) . . . .
C5 C6 C7 O3 65.2(9) . . . .
C5 C6 C7 O4 -113.2(8) . . . .
C5 C6 C8 F4 -179.0(6) . . . .
C5 C6 C8 C2 -3.1(10) . . . .
C7 C6 C8 F4 -4.9(9) . . . .
C7 C6 C8 C2 171.0(6) . . . .
C8 C2 C3 F1 -179.2(6) . . . .
C8 C2 C3 C4 2.3(10) . . . .
C8 C6 C7 O3 -108.6(7) . . . .
C8 C6 C7 O4 73.0(9) . . . .
