#------------------------------------------------------------------------------
#$Date: 2015-07-16 18:05:34 +0300 (Thu, 16 Jul 2015) $
#$Revision: 152130 $
#$URL: svn://www.crystallography.net/cod/cif/7/11/75/7117540.cif $
#------------------------------------------------------------------------------
#
# This file is available in the Crystallography Open Database (COD),
# http://www.crystallography.net/
#
# All data on this site have been placed in the public domain by the
# contributors.
#
data_7117540
loop_
_publ_author_name
'L. H. Blair'
'A. Colakel'
'R. M. Vrcelj'
'I. Sinclair'
'S. J. Coles'
_publ_section_title
;
 Metal-organic fireworks: MOFs as integrated structural scaffolds for
 pyrotechnic materials
;
_journal_name_full               Chem.Commun.
_journal_page_first              12185
_journal_paper_doi               10.1039/C5cc04174K
_journal_volume                  51
_journal_year                    2015
_chemical_formula_moiety         'C8 Ca F4 N O7, C5 H6 N'
_chemical_formula_sum            'C13 H6 Ca F4 N2 O7'
_chemical_formula_weight         418.28
_chemical_name_systematic
;
 ?
;
_space_group_crystal_system      monoclinic
_space_group_IT_number           14
_space_group_name_Hall           '-P 2yn'
_space_group_name_H-M_alt        'P 1 21/n 1'
_symmetry_space_group_name_Hall  '-P 2yn'
_symmetry_space_group_name_H-M   'P 1 21/n 1'
_atom_sites_solution_hydrogens   mixed
_atom_sites_solution_primary     iterative
_audit_creation_date             2015-01-29
_audit_creation_method
;
Olex2 1.2
(compiled 2015.01.19 svn.r3143 for OlexSys, GUI svn.r4992)
;
_audit_update_record
;
2015-01-30 deposited with the CCDC.
2015-06-23 downloaded from the CCDC.
;
_cell_angle_alpha                90
_cell_angle_beta                 96.661(6)
_cell_angle_gamma                90
_cell_formula_units_Z            4
_cell_length_a                   4.4398(3)
_cell_length_b                   23.0380(18)
_cell_length_c                   14.3878(9)
_cell_measurement_reflns_used    13779
_cell_measurement_temperature    100(2)
_cell_measurement_theta_max      27.5
_cell_measurement_theta_min      2.6
_cell_volume                     1461.71(18)
_computing_cell_refinement
;
CrysAlisPro, Agilent Technologies,
Version 1.171.37.35 (release 13-08-2014 CrysAlis171 .NET)
(compiled Aug 13 2014,18:06:01)
;
_computing_data_collection
'CrystalClear-SM Expert 3.1 b27 (Rigaku, 2013)'
_computing_data_reduction
;
CrysAlisPro, Agilent Technologies,
Version 1.171.37.35 (release 13-08-2014 CrysAlis171 .NET)
(compiled Aug 13 2014,18:06:01)
;
_computing_molecular_graphics    'Olex2 (Dolomanov et al., 2009)'
_computing_publication_material  'Olex2 (Dolomanov et al., 2009)'
_computing_structure_refinement  'ShelXL (Sheldrick, 2008)'
_computing_structure_solution
;
Superflip (Palatinus & Chapuis, 2007;Palatinus & van der Lee, 2008;
Palatinus et al., 2012)
;
_diffrn_ambient_temperature      100(2)
_diffrn_detector                 'CCD area detector'
_diffrn_detector_area_resol_mean 28.5714
_diffrn_detector_type            'Rigaku HG Saturn724+ (2x2 bin mode)'
_diffrn_measured_fraction_theta_full 1.000
_diffrn_measured_fraction_theta_max 1.000
_diffrn_measurement_details
;
scan:
    Number of images: 216
               Slice: -35.0000 - 73.0000
         Image width: 0.5000
            Exp time: 55.0000
       Rotation axis: Omega
               Omega: 0.0000
               Kappa: 72.0000
                 Phi: -60.0000
                 XTD: 44.9209
              2theta: -17.4942
scan:
    Number of images: 182
               Slice: -69.0000 - 22.0000
         Image width: 0.5000
            Exp time: 55.0000
       Rotation axis: Omega
               Omega: 0.0000
               Kappa: -72.0000
                 Phi: -180.0000
                 XTD: 44.9209
              2theta: -17.4942
scan:
    Number of images: 182
               Slice: -69.0000 - 22.0000
         Image width: 0.5000
            Exp time: 55.0000
       Rotation axis: Omega
               Omega: 0.0000
               Kappa: -72.0000
                 Phi: 0.0000
                 XTD: 44.9209
              2theta: -17.4942
scan:
    Number of images: 171
               Slice: -59.5000 - 26.0000
         Image width: 0.5000
            Exp time: 55.0000
       Rotation axis: Omega
               Omega: 0.0000
               Kappa: 0.0000
                 Phi: 150.0000
                 XTD: 44.9209
              2theta: -17.4942
scan:
    Number of images: 34
               Slice: -31.0000 - -14.0000
         Image width: 0.5000
            Exp time: 55.0000
       Rotation axis: Omega
               Omega: 0.0000
               Kappa: 54.0000
                 Phi: 150.0000
                 XTD: 44.9209
              2theta: -17.4942
scan:
    Number of images: 216
               Slice: -35.0000 - 73.0000
         Image width: 0.5000
            Exp time: 55.0000
       Rotation axis: Omega
               Omega: 0.0000
               Kappa: 72.0000
                 Phi: -120.0000
                 XTD: 44.9209
              2theta: -17.4942
scan:
    Number of images: 124
               Slice: -69.0000 - -7.0000
         Image width: 0.5000
            Exp time: 55.0000
       Rotation axis: Omega
               Omega: 0.0000
               Kappa: -72.0000
                 Phi: 120.0000
                 XTD: 44.9209
              2theta: -17.4942
;
_diffrn_measurement_device       'four-circle \k diffractometer'
_diffrn_measurement_device_type  'Rigaku AFC12 (Right)'
_diffrn_measurement_method       'profile data from \w-scans'
_diffrn_measurement_specimen_support 'MiTeGen MicroMesh'
_diffrn_orient_matrix_type       d*Trek
_diffrn_orient_matrix_UB_11      0.164880
_diffrn_orient_matrix_UB_12      0.154928
_diffrn_orient_matrix_UB_13      -0.005662
_diffrn_orient_matrix_UB_21      -0.041221
_diffrn_orient_matrix_UB_22      0.055849
_diffrn_orient_matrix_UB_23      0.008030
_diffrn_orient_matrix_UB_31      0.004306
_diffrn_orient_matrix_UB_32      -0.003010
_diffrn_orient_matrix_UB_33      0.043038
_diffrn_radiation_collimation    0.3
_diffrn_radiation_monochromator  'Confocal mirrors, VHF Varimax'
_diffrn_radiation_probe          x-ray
_diffrn_radiation_type           MoK\a
_diffrn_radiation_wavelength     0.71073
_diffrn_reflns_av_R_equivalents  0.1066
_diffrn_reflns_av_unetI/netI     0.0832
_diffrn_reflns_laue_measured_fraction_full 1.000
_diffrn_reflns_laue_measured_fraction_max 1.000
_diffrn_reflns_limit_h_max       5
_diffrn_reflns_limit_h_min       -5
_diffrn_reflns_limit_k_max       28
_diffrn_reflns_limit_k_min       -29
_diffrn_reflns_limit_l_max       18
_diffrn_reflns_limit_l_min       -18
_diffrn_reflns_number            18914
_diffrn_reflns_point_group_measured_fraction_full 1.000
_diffrn_reflns_point_group_measured_fraction_max 1.000
_diffrn_reflns_theta_full        25.242
_diffrn_reflns_theta_max         27.483
_diffrn_reflns_theta_min         1.677
_diffrn_source                   'Rotating Anode'
_diffrn_source_current           55.0
_diffrn_source_power             2.475
_diffrn_source_target            Mo
_diffrn_source_type              'Rotating Anode'
_diffrn_source_voltage           45.0
_exptl_absorpt_coefficient_mu    0.524
_exptl_absorpt_correction_T_max  1.000
_exptl_absorpt_correction_T_min  0.221
_exptl_absorpt_correction_type   multi-scan
_exptl_absorpt_process_details
;
CrysAlisPro, Agilent Technologies,
Version 1.171.37.35 (release 13-08-2014 CrysAlis171 .NET)
(compiled Aug 13 2014,18:06:01)
;
_exptl_crystal_colour            Colorless
_exptl_crystal_density_diffrn    1.901
_exptl_crystal_description       Needle
_exptl_crystal_F_000             840
_exptl_crystal_size_max          0.13
_exptl_crystal_size_mid          0.01
_exptl_crystal_size_min          0.01
_refine_diff_density_max         0.550
_refine_diff_density_min         -0.636
_refine_diff_density_rms         0.175
_refine_ls_extinction_coef       .
_refine_ls_extinction_method     none
_refine_ls_goodness_of_fit_ref   1.095
_refine_ls_hydrogen_treatment    mixed
_refine_ls_matrix_type           full
_refine_ls_number_parameters     248
_refine_ls_number_reflns         3350
_refine_ls_number_restraints     0
_refine_ls_restrained_S_all      1.095
_refine_ls_R_factor_all          0.1085
_refine_ls_R_factor_gt           0.0594
_refine_ls_shift/su_max          0.000
_refine_ls_shift/su_mean         0.000
_refine_ls_structure_factor_coef Fsqd
_refine_ls_weighting_details
'w=1/[\s^2^(Fo^2^)+(0.0833P)^2^] where P=(Fo^2^+2Fc^2^)/3'
_refine_ls_weighting_scheme      calc
_refine_ls_wR_factor_gt          0.1281
_refine_ls_wR_factor_ref         0.1623
_reflns_Friedel_coverage         0.000
_reflns_friedel_fraction_full    .
_reflns_friedel_fraction_max     .
_reflns_number_gt                2263
_reflns_number_total             3350
_reflns_threshold_expression     'I > 2\s(I)'
_cod_data_source_file            c5cc04174k2.cif
_cod_data_source_block           ca_altfbdc_2
_cod_original_cell_volume        1461.69(17)
_cod_database_code               7117540
_shelxl_version_number           2013-3
_shelx_space_group_comment
;
The symmetry employed for this shelxl refinement is uniquely defined
by the following loop, which should always be used as a source of
symmetry information in preference to the above space-group names.
They are only intended as comments.
;
_olex2_refinement_description
;
1. Fixed Uiso
 At 1.2 times of:
  All C(H) groups
2.a Aromatic/amide H refined with riding coordinates:
 C101(H10A), C102(H102), C103(H103), C104(H104), C105(H105)
;
_shelx_res_file
;
TITL 2014lhb124 in P2(1)/n
CELL 0.71073 4.439751 23.038038 14.387786 90 96.661 90
ZERR 4 0.000251 0.001789 0.000875 0 0.0057 0
LATT 1
SYMM 0.5-X,0.5+Y,0.5-Z
SFAC C H Ca F N O
UNIT 52 24 4 16 8 28
EQIV $1 2-X,1-Y,1-Z
EQIV $2 1-X,1-Y,1-Z
EQIV $3 -1+X,+Y,+Z

L.S. 4 0 0
PLAN  20
TEMP -173(2)
HTAB N101 O12_$3
BIND Ca1 O4_$2
FREE Ca1 N11
FREE Ca1 C8_$1
FREE Ca1 C1_$2
FREE Ca1 Ca1_$1
MORE -1
BOND $H
CONF
fmap 2 53
acta
REM <olex2.extras>
REM <HklSrc "%.\\Ca_altfBDC.hkl">
REM </olex2.extras>

WGHT    0.083300
FVAR       1.54468
CA1   3    0.873766    0.418987    0.503932    11.00000    0.00905    0.01693 =
         0.00814    0.00006    0.00094   -0.00023
F1    4    0.173182    0.457536    0.801564    11.00000    0.02066    0.02995 =
         0.01423    0.00318    0.00272   -0.00829
F2    4    0.219169    0.523722    0.957442    11.00000    0.02372    0.04344 =
         0.00858    0.00249    0.00889   -0.00476
F3    4    0.558226    0.621466    0.967164    11.00000    0.02946    0.03632 =
         0.00959   -0.01029    0.00356   -0.00348
F4    4    0.844701    0.654421    0.822774    11.00000    0.02452    0.02327 =
         0.01648   -0.00830    0.00511   -0.00696
O1    6    0.619191    0.446278    0.633395    11.00000    0.01295    0.01887 =
         0.01040    0.00298    0.00327    0.00282
O2    6    0.190229    0.493430    0.584859    11.00000    0.01226    0.01909 =
         0.01058   -0.00060   -0.00071    0.00060
O3    6    1.038867    0.619497    0.655369    11.00000    0.01071    0.02073 =
         0.01290   -0.00131    0.00206   -0.00280
O4    6    0.638089    0.584417    0.566981    11.00000    0.00982    0.02188 =
         0.00798   -0.00073    0.00059    0.00050
O11   6    0.754133    0.314558    0.530156    11.00000    0.02309    0.02671 =
         0.02338    0.00039   -0.00894   -0.00489
O12   6    1.135340    0.348921    0.620065    11.00000    0.02014    0.02032 =
         0.01845    0.00330   -0.00481   -0.00476
O13   6    1.016542    0.257899    0.629871    11.00000    0.03970    0.02138 =
         0.02732    0.00731   -0.00132    0.00075
N11   5    0.967082    0.305543    0.594559    11.00000    0.01963    0.02377 =
         0.01432   -0.00107    0.00492    0.00059
C1    1    0.428793    0.484483    0.640121    11.00000    0.00976    0.01830 =
         0.01034    0.00325    0.00214   -0.00434
C2    1    0.475779    0.523213    0.726588    11.00000    0.00680    0.02036 =
         0.01012    0.00293   -0.00102    0.00108
C3    1    0.338733    0.506777    0.803786    11.00000    0.01201    0.02099 =
         0.01223    0.00163   -0.00216   -0.00189
C4    1    0.364804    0.539759    0.884304    11.00000    0.01076    0.03330 =
         0.00660    0.00511    0.00251    0.00327
C5    1    0.535416    0.589016    0.888595    11.00000    0.01685    0.02744 =
         0.00829   -0.00500   -0.00242    0.00359
C6    1    0.679682    0.605611    0.813477    11.00000    0.00910    0.02386 =
         0.01359   -0.00182   -0.00033    0.00079
C7    1    0.649473    0.573761    0.731225    11.00000    0.00790    0.01834 =
         0.01238    0.00236   -0.00092    0.00375
C8    1    0.787362    0.595087    0.646650    11.00000    0.01501    0.01409 =
         0.01139   -0.00035    0.00209    0.00347
N101  5    0.542995    0.308404    0.767891    11.00000    0.01685    0.03549 =
         0.01320    0.00198   -0.00222    0.00565
H101  2    0.425600    0.316046    0.728898    11.00000    0.01861
C101  1    0.547788    0.257429    0.810364    11.00000    0.01962    0.02421 =
         0.02379   -0.00718    0.00707   -0.00249
AFIX  43
H10A  2    0.422084    0.226724    0.784464    11.00000   -1.20000
AFIX   0
C102  1    0.736085    0.249099    0.892381    11.00000    0.02249    0.02033 =
         0.02115    0.00401    0.00533    0.00030
AFIX  43
H102  2    0.744306    0.212524    0.923063    11.00000   -1.20000
AFIX   0
C103  1    0.911898    0.294605    0.929081    11.00000    0.01962    0.03077 =
         0.01178    0.00283    0.00193    0.00460
AFIX  43
H103  2    1.042254    0.289740    0.985736    11.00000   -1.20000
AFIX   0
C104  1    0.898324    0.347349    0.883342    11.00000    0.02142    0.02389 =
         0.01849    0.00275    0.00002   -0.00305
AFIX  43
H104  2    1.017399    0.379120    0.908573    11.00000   -1.20000
AFIX   0
C105  1    0.711726    0.353465    0.801290    11.00000    0.02171    0.02464 =
         0.01674    0.00751    0.00399    0.00403
AFIX  43
H105  2    0.702245    0.389317    0.768461    11.00000   -1.20000
AFIX   0
HKLF 4

REM  2014lhb124 in P2(1)/n
REM R1 =  0.0594 for    2263 Fo > 4sig(Fo)  and  0.1085 for all    3350 data
REM    248 parameters refined using      0 restraints

END

WGHT      0.0833      0.0000

REM Highest difference peak  0.550,  deepest hole -0.636,  1-sigma level  0.175
Q1    1   0.6928  0.6574  0.9795  11.00000  0.05    0.55
Q2    1   0.9792  0.2196  0.6188  11.00000  0.05    0.54
Q3    1   0.7441  0.3583  0.8612  11.00000  0.05    0.51
Q4    1   1.1496  0.1978  0.6787  11.00000  0.05    0.46
Q5    1   0.9104  0.7208  0.8586  11.00000  0.05    0.46
Q6    1   0.7986  0.3220  0.9157  11.00000  0.05    0.46
Q7    1   0.7929  0.3808  0.4951  11.00000  0.05    0.45
Q8    1   0.8610  0.2797  0.9002  11.00000  0.05    0.45
Q9    1   0.7523  0.6259  0.8201  11.00000  0.05    0.45
Q10   1   0.6344  0.2751  0.7830  11.00000  0.05    0.44
Q11   1   1.1872  0.2758  0.6370  11.00000  0.05    0.44
Q12   1   0.7712  0.2570  0.6585  11.00000  0.05    0.44
Q13   1   0.6475  0.6956  0.8396  11.00000  0.05    0.44
Q14   1   1.3054  0.2444  0.9625  11.00000  0.05    0.43
Q15   1   0.5156  0.5616  0.9005  11.00000  0.05    0.43
Q16   1   0.4366  0.6530  0.9565  11.00000  0.05    0.43
Q17   1   0.9165  0.6234  0.8470  11.00000  0.05    0.42
Q18   1   0.9558  0.3170  0.8860  11.00000  0.05    0.42
Q19   1   0.6002  0.6833  0.9609  11.00000  0.05    0.42
Q20   1   0.8128  0.6978  0.8237  11.00000  0.05    0.42
;
_shelx_res_checksum              67689
_shelx_hkl_file
;
   0   0   2 2157.33 113.040   4
   0   0  -2 1918.02 109.242   4
   0   0  -3 148.189 123.590   5
   0   0   3 79.0494 53.4634   1
   0   0  -3 3.07261 103.202   4
   0   0   3 109.293 100.271   7
   0   0  -3 55.1681 91.4054   7
   0   0  -4 7007.72 198.038   7
   0   0  -4 5596.28 246.056   5
   0   0  -4 5100.50 232.901   4
   0   0   4 6816.70 198.645   7
   0   0   4 8274.24 135.041   1
   0   0  -5 40.4808 98.7769   7
   0   0   5-54.7170 62.8752   1
   0   0  -5-69.7764 152.943   5
   0   0  -5-66.3224 126.029   4
   0   0   5-52.8174 112.031   7
   0   0  -6 5391.19 297.683   5
   0   0   6 7632.78 160.479   1
   0   0  -6 5052.05 286.565   4
   0   0   6 6423.26 229.304   7
   0   0  -6 6887.90 229.295   7
   0   0  -7-72.0676 167.344   5
   0   0   7 65.2903 123.255   7
   0   0  -7-11.6694 28.1210   2
   0   0  -7-69.6399 145.846   4
   0   0   7-0.94508 77.4127   1
   0   0  -7 67.0278 113.432   7
   0   0  -8 4419.78 323.342   5
   0   0   8 5400.51 167.067   1
   0   0   8 4618.93 239.473   7
   0   0  -8 5267.98 238.911   7
   0   0  -8 4003.12 288.732   4
   0   0   9 76.4218 135.026   7
   0   0   9-16.7675 83.6790   1
   0   0  -9-25.5921 189.951   5
   0   0  -9 306.149 182.523   4
   0   0  10 5678.21 297.360   7
   0   0 -10 5480.94 368.645   4
   0   0 -10 5163.87 379.169   5
   0   0  11-4.19634 88.9485   1
   0   0  11-156.596 174.784   7
   0   0 -11 233.179 202.623   4
   0   0  12 564.562 203.404   7
   0   0  12 499.575 92.5072   1
   0   0 -12 678.121 237.020   4
   0   0  12 440.634 384.028   3
   0   0  13 49.5585 193.884   7
   0   0  13-3.67632 81.4794   1
   0   0 -13 495.992 241.214   4
   0   0  13 487.083 408.931   3
   0   0  14 343.765 433.957   3
   0   0  14 377.936 212.842   6
   0   0  14 489.032 222.412   7
   0   0 -14-22.6585 215.558   4
   0   0  15 626.169 434.880   3
   0   0  15-79.2225 226.469   7
   0   0 -15-187.937 237.049   4
   0   0  15-69.3678 231.247   6
   0   0 -16 1743.82 322.726   4
   0   0  16 2786.36 602.510   3
   0   0  16 2302.78 345.427   6
   0   0  16 2497.43 336.579   7
   0   0  17 417.934 489.460   3
   0   0 -17-333.625 267.518   4
   0   0  17-28.1515 264.628   6
   0   0  18 11.9357 270.741   6
   0   0 -18-245.904 284.073   4
   0   0  18 478.007 550.943   3
   0  -1  -1-33.0578 20.1635   4
   0  -1  -1-84.7660 41.8739   3
   0   1   1-29.4980 22.8601   4
   0   1   1-53.6589 33.2549   3
   0   1   2 1166.33 133.665   3
   0  -1  -2 1345.92 73.4770   7
   0   1  -2 1513.32 48.9093   2
   0   1   2 1003.56 102.882   5
   0  -1  -2 1028.37 89.3763   4
   0   1   2 1255.05 93.3817   4
   0   1  -2 1405.69 83.6779   7
   0   1   3 4980.22 203.774   5
   0  -1   3 6376.85 177.159   7
   0  -1  -3 5338.67 207.064   4
   0   1  -3 6489.01 181.057   7
   0  -1   3 6898.21 123.193   1
   0   1  -3 6640.15 96.7951   2
   0  -1   3 7051.77 105.782   2
   0   1   3 5012.24 193.184   4
   0   1   3 6573.07 166.500   7
   0  -1  -3 6849.34 166.473   7
   0  -1  -4 4104.17 224.766   4
   0   1   4 6063.26 187.819   7
   0  -1  -4 6306.02 184.137   7
   0   1  -4 6647.50 199.235   7
   0  -1  -4 5234.36 244.264   5
   0   1   4 5314.05 236.181   4
   0   1   4 4791.77 235.277   5
   0  -1   4 5943.37 199.014   7
   0  -1   4 6762.38 136.454   1
   0   1  -4 6367.86 98.1938   2
   0   1  -5 5748.41 278.285   4
   0  -1  -5 5838.14 269.339   4
   0   1   5 6828.39 215.812   7
   0  -1   5 7161.61 231.369   7
   0   1  -5 6983.69 104.823   2
   0   1   5 5849.22 279.589   5
   0  -1   5 8137.50 168.336   1
   0   1   5 6765.69 130.727   1
   0   1  -5 7408.30 225.567   7
   0   1  -5 6435.49 301.418   5
   0  -1  -5 7314.03 216.155   7
   0   1   5 6329.93 272.588   4
   0  -1  -5 6125.78 293.026   5
   0   1  -6 1805.98 200.945   4
   0  -1  -6 1981.68 219.013   5
   0   1  -6 2469.31 170.309   7
   0   1   6 2335.14 165.829   7
   0   1   6 1857.68 189.057   4
   0  -1  -6 2484.30 160.684   7
   0   1   6 2434.61 98.7830   1
   0  -1   6 2172.70 167.649   7
   0   1  -6 2375.99 73.6968   2
   0  -1   6 2933.58 125.500   1
   0  -1  -6 1872.26 202.149   4
   0   1  -6 1721.82 217.164   5
   0  -1  -7 21639.2 415.358   7
   0   1  -7 17294.0 508.173   4
   0   1  -7 18056.9 530.070   5
   0   1   7 17866.8 392.321   7
   0   1  -7 22195.4 432.745   7
   0  -1   7 22135.5 307.027   1
   0   1   7 20725.2 256.266   1
   0   1  -7 19101.5 199.284   2
   0  -1  -7 17284.8 509.809   4
   0  -1   7 19099.5 414.103   7
   0  -1  -8 9091.63 294.194   7
   0  -1   8 8003.10 302.184   7
   0  -1   8 10077.3 231.134   1
   0   1  -8 9257.86 312.665   7
   0   1  -8 7263.86 132.901   2
   0   1   8 7744.94 296.785   7
   0  -1  -8 7459.68 390.154   4
   0   1   8 8801.87 183.679   1
   0   1  -8 7396.08 370.060   4
   0   1  -8 7447.23 387.171   5
   0   1  -9 4702.45 351.393   5
   0   1   9 4971.93 150.907   1
   0  -1   9 4868.53 264.499   7
   0   1  -9 4355.33 315.030   4
   0  -1  -9 4700.46 324.270   4
   0   1   9 5002.86 261.299   7
   0   1  10 2244.35 115.856   1
   0   1 -10 1686.78 272.483   5
   0  -1 -10 2420.34 277.071   4
   0   1  10 2596.66 223.871   7
   0   1 -10 2592.45 273.359   4
   0  -1  10 3075.47 166.283   1
   0  -1  10 2456.66 220.909   7
   0   1  10 2654.30 429.838   3
   0   1 -11 384.709 229.565   5
   0   1 -11-294.751 211.707   4
   0   1  11-37.6356 170.334   7
   0   1  11-168.233 305.056   3
   0   1  11 71.1730 60.5178   1
   0  -1  11 60.0502 159.706   7
   0  -1  11 35.7797 104.633   1
   0  -1 -11-160.114 188.183   4
   0   1 -12 5045.00 417.071   5
   0   1  12 5176.40 582.231   3
   0  -1 -12 4193.63 349.205   4
   0  -1  12 5295.75 367.925   7
   0  -1  12 5576.66 217.544   1
   0   1 -12 4935.63 404.351   4
   0   1  12 4831.02 317.546   7
   0  -1  13 28807.6 474.815   1
   0   1  13 30412.3 794.895   6
   0  -1  13 27850.8 713.639   7
   0  -1 -13 27110.0 822.708   4
   0   1  13 27883.6 713.047   7
   0   1 -13 28657.7 876.234   4
   0   1  14 69.0641 196.586   6
   0  -1 -14 339.475 236.665   4
   0   1  14 177.684 210.470   7
   0  -1  14 26.8703 209.948   7
   0  -1  14 304.681 411.380   3
   0   1  14 308.396 392.393   3
   0   1 -14-189.208 224.136   4
   0   1  15 1920.49 304.766   7
   0  -1  15 2097.29 302.817   7
   0   1  15 2058.23 530.086   3
   0  -1  15 2219.04 312.512   6
   0  -1  15 2710.64 556.320   3
   0  -1 -15 2313.37 340.606   4
   0   1 -15 1748.63 317.645   4
   0   1  15 2055.77 307.769   6
   0   1  16-150.439 244.259   6
   0  -1 -16 331.361 256.008   4
   0   1 -16 230.494 250.708   4
   0   1  16 607.239 513.015   3
   0  -1  16 338.217 257.605   6
   0  -1  16-200.672 256.349   7
   0   1  17 342.878 263.496   6
   0  -1 -17 404.108 273.138   4
   0   1  17 856.016 555.272   3
   0  -1  17 309.930 271.703   7
   0  -1  17 897.300 532.884   3
   0  -1  17 305.831 277.613   6
   0   1 -17 45.3497 271.361   4
   0   1 -18 16.0744 290.224   4
   0  -1 -18-51.1454 281.712   4
   0   1  18 264.560 532.463   3
   0  -1  18-433.828 296.758   6
   0   1  18 212.514 292.655   6
   0  -1  18 762.426 581.814   3
   0   2   0-31.7653 18.4424   2
   0   2   1 908.151 64.6167   4
   0   2  -1 1088.68 50.7321   2
   0  -2  -1 1106.36 96.0696   3
   0   2  -1 1008.73 57.3511   7
   0   2  -2 599.694 85.5919   7
   0   2   2 656.651 87.5988   4
   0  -2  -2 551.458 70.9888   7
   0  -2  -2 443.912 78.2841   4
   0   2   2 865.621 77.6141   6
   0  -2  -2 601.789 131.934   3
   0   2   2 466.373 134.618   3
   0  -2   2 855.830 60.4002   2
   0  -2   2 688.980 79.6406   7
   0   2  -2 550.390 53.9012   2
   0  -2   3 97.7528 102.436   7
   0  -2  -3 46.9977 100.439   4
   0  -2  -3 92.2875 88.3224   7
   0   2   3 74.1247 97.7429   6
   0   2   3-65.3172 94.9481   4
   0   2  -3 116.215 57.8245   2
   0   2   3 122.971 178.674   3
   0   2  -3 127.074 104.873   7
   0   2   3 173.664 96.4635   7
   0  -2   3 220.695 68.3178   2
   0   2  -4 5567.70 113.234   2
   0  -2   4 4828.52 194.647   7
   0  -2   4 5715.30 123.797   2
   0   2   4 4391.50 304.663   3
   0  -2  -4 4092.26 210.116   4
   0   2  -4 5270.92 195.253   7
   0   2   4 4040.14 225.816   5
   0  -2  -4 5209.93 174.955   7
   0   2   4 4978.81 176.286   7
   0  -2   4 5171.34 137.972   1
   0   2   4 4744.45 216.243   4
   0   2   5 212.546 145.716   5
   0  -2  -5 312.264 104.829   7
   0  -2  -5 301.721 133.904   4
   0  -2   5 231.631 74.6995   1
   0  -2   5 308.658 123.638   7
   0   2  -5 106.619 104.944   7
   0   2   5 212.024 115.635   7
   0   2  -5 200.495 48.9905   2
   0   2   5 330.490 218.630   3
   0   2   5 56.9145 122.446   4
   0   2  -6 2211.53 166.347   7
   0   2  -6 1403.74 194.651   4
   0  -2  -6 1842.84 146.465   7
   0   2   6 1637.56 196.967   4
   0   2  -6 1836.27 78.2371   2
   0  -2   6 1936.64 168.418   7
   0   2   6 1864.83 154.402   7
   0   2   6 1799.90 214.121   5
   0   2   6 1649.85 280.664   3
   0  -2   6 1901.44 114.410   1
   0  -2  -6 1437.98 181.678   4
   0   2   7 11439.4 563.453   3
   0  -2   7 11280.7 335.002   7
   0  -2   7 12961.4 262.256   1
   0  -2  -7 11975.1 313.369   7
   0  -2  -7 9235.01 365.580   4
   0   2  -7 12202.2 180.822   2
   0   2  -7 10065.5 412.266   4
   0   2  -7 12750.8 346.500   7
   0   2   7 10953.9 315.203   7
   0   2  -7 10485.1 427.228   5
   0   2   7 10725.9 408.057   4
   0   2  -8 69.8033 177.320   5
   0  -2   8-15.0333 85.6725   1
   0   2  -8 64.1023 54.5407   2
   0  -2   8 62.6691 131.517   7
   0   2   8-43.9504 144.038   4
   0   2  -8-98.7661 158.675   4
   0   2   8 19.0258 245.103   3
   0  -2  -8-58.6593 147.290   4
   0   2   8 15.9315 125.588   7
   0  -2  -8 142.573 113.809   7
   0  -2   9 142.760 88.9957   1
   0   2  -9 29.9755 160.394   4
   0  -2  -9 218.194 164.129   4
   0   2  -9 84.5772 199.514   5
   0   2   9 18.9459 134.290   7
   0  -2   9-118.878 148.499   7
   0   2  -9 44.1782 55.7123   2
   0   2   9-258.384 290.056   3
   0  -2  10 297.983 105.052   1
   0   2  10-194.021 302.503   3
   0  -2  10 43.3098 151.946   7
   0  -2 -10 149.683 152.223   4
   0   2  10 88.6371 150.215   7
   0   2 -10 36.0979 54.7768   2
   0   2 -10-87.9911 175.429   4
   0   2 -10-240.150 214.276   5
   0   2 -11 4248.17 364.751   4
   0   2 -11 3540.20 123.504   2
   0   2  11 4696.10 292.295   7
   0   2 -11 4465.66 395.772   5
   0   2  11 4802.82 514.637   3
   0   2  11 5126.88 322.375   6
   0  -2  11 5059.64 312.187   7
   0  -2  11 5851.20 233.430   1
   0  -2 -11 4943.77 350.706   4
   0   2  12-105.735 189.811   7
   0   2 -12 15.0081 51.6837   2
   0   2  12 208.608 171.849   6
   0  -2  12 18.5154 121.281   1
   0  -2  12-105.592 184.261   7
   0   2 -12 139.750 255.428   5
   0   2 -12 408.547 220.921   4
   0   2  12-190.382 353.418   3
   0  -2 -12-105.204 180.380   4
   0   2  13 531.952 410.115   3
   0   2  13 90.7268 198.017   7
   0   2 -13 329.728 260.784   5
   0  -2  13 138.189 124.102   1
   0   2  13-108.314 212.199   6
   0   2 -13 537.574 233.587   4
   0  -2 -13 50.5456 197.423   4
   0  -2  13 186.729 195.125   7
   0   2  14 2800.92 511.115   3
   0   2  14 3040.72 328.990   6
   0  -2  14 2691.80 309.786   7
   0  -2 -14 2576.31 334.332   4
   0   2 -14 2082.03 329.183   4
   0   2 -15 225.051 248.378   4
   0   2  15-129.774 432.128   3
   0  -2  15 1020.31 469.694   3
   0  -2  15 255.467 234.244   7
   0  -2 -15 263.249 239.216   4
   0   2  15 210.788 227.396   6
   0  -2 -16 398.533 262.542   4
   0  -2  16 493.577 497.628   3
   0  -2  16-78.0882 231.714   6
   0  -2  16 174.370 245.551   7
   0   2  16 549.261 488.201   3
   0   2  16 395.753 254.954   6
   0   2 -16-239.745 271.190   4
   0   2  17 1050.32 312.641   6
   0  -2  17 851.601 286.045   6
   0  -2 -17 1187.23 319.696   4
   0  -2  17 1926.45 594.357   3
   0  -2  17 1385.39 315.404   7
   0   2  17 1340.56 543.738   3
   0   2 -17 1517.77 345.702   4
   0  -2  18 135.881 520.549   3
   0  -2 -18 162.944 274.455   4
   0  -2  18 196.326 296.463   6
   0  -2  18 203.751 290.720   7
   0   2  18-53.5789 529.397   3
   0   2 -18 374.594 316.315   4
   0   2  18 604.155 295.903   6
   0  -3   0 106.482 93.5269   3
   0  -3   0 10.2989 42.6164   6
   0   3   0 37.1304 38.4234   2
   0   3  -1-16.5826 46.8378   2
   0   3   1 86.9651 62.6069   4
   0  -3  -1 68.7153 55.5493   4
   0   3   1 221.637 110.760   3
   0   3   1 44.9253 38.7060   2
   0  -3  -1 90.0989 117.555   3
   0   3   1 16.5474 39.7015   6
   0  -3   1 125.256 57.3682   7
   0  -3  -1-7.39138 50.4909   6
   0  -3  -1 38.4642 41.3985   2
   0  -3  -2 1669.61 119.981   4
   0  -3  -2 1705.08 186.597   3
   0   3   2 1914.33 123.295   4
   0  -3  -2 1804.13 68.1455   2
   0   3  -2 1976.76 119.267   7
   0   3   2 1813.62 191.698   3
   0   3  -2 1745.77 84.2921   2
   0  -3   2 2081.74 92.5724   2
   0   3   2 1604.46 55.7223   2
   0  -3   2 1881.94 117.530   7
   0   3   2 2137.27 105.918   6
   0  -3  -2 2032.00 101.781   6
   0   3  -3 4156.40 117.878   2
   0   3   3 4130.57 155.438   6
   0  -3  -3 2934.86 245.201   3
   0  -3  -3 3254.57 172.926   4
   0   3   3 3839.84 280.572   3
   0  -3   3 3822.65 165.488   7
   0  -3  -3 3093.29 72.2193   2
   0  -3   3 4354.06 127.857   2
   0   3  -3 3313.52 157.560   7
   0   3   3 3132.27 172.529   4
   0  -3  -3 3866.80 135.100   7
   0   3   3 3215.19 70.1650   2
   0   3   4 3171.42 198.193   4
   0  -3  -4 3216.70 193.493   4
   0  -3   4 3453.09 178.113   7
   0  -3  -4 3461.03 146.653   7
   0   3  -4 4044.06 115.536   2
   0   3   4 3493.99 300.952   3
   0  -3   4 4416.17 130.237   2
   0   3   4 3815.15 170.156   6
   0   3  -4 3877.15 185.665   7
   0  -3  -4 3291.96 267.544   3
   0   3   5 309.696 145.854   5
   0  -3   5 252.242 121.867   7
   0   3  -5 320.281 61.2435   2
   0   3   5 172.733 108.975   6
   0  -3   5 308.541 70.1061   2
   0  -3  -5 401.695 137.576   4
   0  -3  -5 297.901 102.378   7
   0   3  -5 388.318 123.129   7
   0   3   5 354.189 228.893   3
   0   3   5 223.528 108.918   7
   0   3   5 165.697 127.266   4
   0  -3   5 339.947 84.0151   1
   0   3   6 157.697 118.327   6
   0  -3  -6-47.2487 103.903   7
   0  -3   6-19.1851 78.9589   1
   0   3  -6-17.1702 55.0309   2
   0   3   6 40.9757 129.564   4
   0  -3   6 39.9669 127.017   7
   0  -3  -6 107.383 126.553   4
   0   3   6 232.331 166.247   5
   0   3   6 63.5752 221.477   3
   0   3   6 97.7818 124.819   7
   0   3  -6 151.983 129.814   7
   0   3  -7 1197.72 167.088   7
   0  -3   7 1164.21 113.259   1
   0  -3   7 1210.65 163.241   7
   0   3   7 783.232 264.127   3
   0  -3  -7 1235.29 146.263   7
   0   3   7 1113.35 175.256   4
   0   3  -7 1139.87 81.0538   2
   0   3   7 1102.90 151.964   7
   0   3   7 1170.33 150.380   6
   0  -3  -7 800.151 170.572   4
   0   3   7 774.559 181.865   5
   0   3  -8 791.878 76.8966   2
   0   3   8 1025.03 164.890   6
   0   3  -8 518.942 179.085   4
   0  -3  -8 870.637 133.963   7
   0   3   8 686.242 187.279   4
   0  -3  -8 901.827 178.367   4
   0  -3   8 1081.64 172.536   7
   0   3   8 929.749 155.947   7
   0   3   8 1048.03 303.348   3
   0  -3   8 820.889 110.112   1
   0   3   9 160.596 143.085   7
   0   3   9 280.552 287.161   3
   0  -3   9 180.856 135.666   7
   0  -3  -9-121.753 155.501   4
   0   3  -9 68.9323 64.6169   2
   0   3  -9-62.2050 175.419   4
   0  -3   9 177.517 101.695   1
   0   3  -9-175.258 204.234   5
   0  -3  -9 207.966 120.280   7
   0   3   9-162.633 149.522   6
   0   3  10 1500.21 192.534   7
   0   3 -10 1365.18 245.355   4
   0   3  10 1710.06 207.683   6
   0  -3  10 1601.03 144.372   1
   0  -3  10 1382.84 199.587   7
   0  -3 -10 1613.32 238.742   4
   0   3  10 1223.29 322.511   3
   0   3 -10 1146.81 243.506   5
   0   3 -10 1526.21 99.0677   2
   0   3 -11 280.736 77.5300   2
   0   3  11 83.1215 162.589   6
   0   3  11-125.006 326.845   3
   0  -3  11 90.1307 115.597   1
   0   3  11 98.5934 158.675   7
   0   3 -11 98.8382 218.434   5
   0   3 -11 79.6658 183.119   4
   0  -3 -11 207.144 170.632   4
   0  -3  11-44.2324 163.366   7
   0   3 -12 5648.80 446.784   5
   0   3  12 7178.62 394.922   6
   0  -3  12 7150.08 276.940   1
   0   3  12 7157.36 636.343   3
   0  -3 -12 6186.72 416.584   4
   0   3 -12 6002.47 427.003   4
   0  -3  12 6730.45 378.160   7
   0   3 -13 2742.25 344.905   4
   0   3  13 3213.32 514.646   3
   0  -3 -13 2613.69 314.119   4
   0  -3  13 2782.64 212.316   1
   0   3 -13 2858.62 368.262   5
   0   3  13 3244.85 310.337   6
   0  -3  13 3024.17 290.292   7
   0   3 -14-361.705 298.806   5
   0  -3 -14 559.420 256.893   4
   0   3  14-52.8904 197.138   6
   0   3  14-79.1134 416.223   3
   0  -3  14 77.5285 211.052   7
   0   3 -14-186.286 248.051   4
   0   3 -15 95.4014 255.960   4
   0   3  15 91.7369 449.720   3
   0   3  15-269.684 234.517   6
   0  -3 -15 226.769 247.446   4
   0  -3  15-240.610 235.444   7
   0  -3 -16-140.617 247.282   4
   0  -3  16 68.1634 454.147   3
   0   3  16 1052.00 490.488   3
   0  -3  16-106.410 245.532   7
   0   3  16 228.400 246.743   6
   0   3 -16 429.449 283.944   4
   0   3  17 1521.96 621.962   3
   0  -3  17-874.183 568.930   3
   0   3 -17 640.386 300.770   4
   0   3  17 326.517 256.512   6
   0  -3 -17 340.369 259.510   4
   0  -3  17 134.564 267.442   7
   0  -3  17 697.902 281.693   6
   0  -3  18 397.495 287.838   6
   0   3  18 845.256 312.627   6
   0  -3  18 995.407 342.150   7
   0   3  18 1627.88 646.421   3
   0   3 -18 408.756 285.589   4
   0  -3  18 841.348 572.052   3
   0  -3 -18 805.089 304.792   4
   0   4   0 227.107 56.9848   6
   0  -4   0 338.636 66.8676   6
   0   4   0 440.771 121.886   3
   0   4   0 430.457 62.5933   2
   0  -4   0 486.117 69.5131   2
   0  -4   0 351.769 134.472   3
   0  -4  -1 25052.8 263.962   6
   0   4   1 26641.7 436.845   3
   0  -4   1 23789.9 269.486   7
   0  -4   1 25197.9 261.244   2
   0   4  -1 24187.8 247.623   2
   0   4   1 24102.3 253.099   6
   0  -4  -1 23711.8 233.242   2
   0  -4  -1 25989.3 448.399   3
   0  -4  -1 24851.1 317.037   4
   0   4   1 26295.1 334.335   4
   0   4   1 23314.8 222.756   2
   0  -4  -2 2349.97 119.096   6
   0   4   2 2528.65 118.163   6
   0  -4  -2 2693.36 233.045   3
   0  -4  -2 2114.77 132.017   4
   0   4  -2 2314.14 138.294   7
   0   4   2 2228.04 232.942   3
   0   4  -2 2424.94 113.166   2
   0   4   2 2162.05 78.1253   2
   0  -4   2 2786.48 120.805   2
   0  -4  -2 2356.11 93.8550   2
   0  -4   2 2086.84 135.606   7
   0   4   2 2427.54 145.077   4
   0   4   3 12579.3 309.599   4
   0  -4   3 13664.7 275.115   7
   0   4   3 15000.9 264.735   6
   0   4   3 14228.9 437.125   3
   0  -4   3 14779.1 228.133   2
   0  -4  -3 13174.1 435.044   3
   0   4  -3 12598.0 285.228   7
   0  -4  -3 13405.1 259.851   6
   0   4  -3 14605.4 214.869   2
   0  -4  -3 12666.4 157.271   2
   0  -4  -3 12784.6 307.940   4
   0   4  -4 2113.59 103.796   2
   0   4   4 2325.39 146.548   6
   0  -4  -4 1890.44 70.8767   2
   0  -4   4 1645.53 150.819   7
   0   4  -4 1937.84 154.463   7
   0  -4   4 2340.86 118.380   2
   0   4   4 1722.51 64.6593   2
   0  -4  -4 1932.63 174.165   4
   0  -4  -4 1838.02 233.691   3
   0  -4  -4 2043.71 126.488   7
   0   4   4 1976.14 277.569   3
   0   4   4 1628.03 155.792   4
   0   4   5 17613.0 613.195   3
   0  -4  -5 16910.2 416.070   4
   0  -4   5 20043.6 308.469   1
   0  -4   5 20436.4 283.574   2
   0  -4  -5 19142.0 317.615   7
   0   4  -5 19443.4 388.226   7
   0  -4  -5 17942.3 571.334   3
   0   4   5 19616.3 374.522   6
   0   4   5 17309.4 435.869   4
   0  -4   5 19658.7 396.939   7
   0   4  -5 20198.2 256.924   2
   0   4   6 16449.1 460.112   5
   0   4  -6 18213.0 251.264   2
   0  -4  -6 16420.4 452.912   4
   0   4   6 18755.0 397.947   6
   0  -4   6 18538.1 407.701   7
   0  -4   6 19018.6 319.759   1
   0   4  -6 19573.5 416.001   7
   0   4   6 17093.7 462.636   4
   0   4   6 17318.3 637.455   3
   0  -4  -6 18400.1 345.746   7
   0  -4  -7 4405.70 281.456   4
   0   4  -7 4863.82 246.772   7
   0   4   7 5078.74 437.594   3
   0  -4   7 5023.48 191.927   1
   0   4   7 4750.35 242.252   6
   0  -4  -7 4813.40 209.173   7
   0   4   7 3998.67 279.040   5
   0   4  -7 4788.04 142.664   2
   0  -4   7 4925.86 258.992   7
   0   4   7 4392.46 277.470   4
   0  -4   8 1104.09 126.508   1
   0   4   8 756.894 186.191   4
   0  -4  -8 1049.95 141.959   7
   0  -4   8 1073.93 170.343   7
   0   4   8 671.645 279.652   3
   0   4   8 1131.97 166.005   6
   0   4  -8 1125.29 90.9542   2
   0  -4  -8 718.856 169.361   4
   0   4   9 630.548 157.590   6
   0   4   9 770.100 295.783   3
   0   4  -9 574.446 81.6864   2
   0  -4  -9 607.006 133.879   7
   0  -4   9 553.727 112.454   1
   0  -4   9 734.118 164.989   7
   0   4  -9 625.696 199.567   4
   0  -4  -9 633.724 170.300   4
   0   4  10-71.7131 158.641   6
   0  -4  10 89.1126 154.410   7
   0   4 -10 36.1344 73.9359   2
   0  -4 -10-122.099 160.711   4
   0   4 -10 97.5215 214.466   5
   0   4 -10 89.8433 183.588   4
   0   4  10 140.902 303.221   3
   0  -4  10-47.0663 103.064   1
   0   4 -11-70.6004 222.059   5
   0   4 -11-369.266 211.948   4
   0  -4 -11 70.1244 171.260   4
   0   4  11-34.3420 322.464   3
   0  -4  11-2.86137 116.277   1
   0   4  11-27.2983 160.795   6
   0   4 -11-0.62003 80.6398   2
   0  -4  11 1.06804 167.308   7
   0   4 -12 1564.77 273.753   4
   0   4  12 1726.77 428.052   3
   0  -4  12 2151.25 193.203   1
   0   4 -12 1701.38 128.826   2
   0  -4  12 2139.92 259.644   7
   0   4 -12 1639.70 323.974   5
   0   4  12 1860.45 244.336   6
   0  -4 -12 1605.34 265.625   4
   0   4  13-103.707 184.004   6
   0  -4 -13 257.045 212.285   4
   0  -4  13 165.420 211.727   7
   0  -4  13-69.8589 141.537   1
   0   4  13 241.930 394.097   3
   0   4 -13 69.7969 221.665   4
   0   4 -13 184.159 273.593   5
   0   4  14 33.8080 394.126   3
   0  -4 -14 142.450 225.968   4
   0   4 -14-60.0792 224.392   4
   0  -4  14-112.252 212.413   7
   0   4  14-145.977 218.522   6
   0  -4  14-76.1473 151.596   1
   0   4 -14 126.634 273.076   5
   0  -4  15 465.113 230.624   7
   0  -4 -15 383.674 239.174   4
   0   4 -15 584.031 324.519   5
   0   4  15 281.115 454.224   3
   0   4  15 272.027 235.574   6
   0   4 -15 147.307 244.715   4
   0   4  16 6.78932 238.982   6
   0   4  16 637.095 476.957   3
   0  -4  16 28.8280 242.066   7
   0  -4 -16 325.660 253.510   4
   0   4 -16 72.6234 268.913   4
   0   4  17 1259.70 297.451   6
   0  -4 -17 1431.59 333.854   4
   0  -4  17 1344.34 322.768   7
   0   4 -17 979.383 328.250   4
   0   4  17 622.459 537.936   3
   0  -4  17 214.178 499.706   3
   0   4 -18 354.692 279.852   4
   0  -4  18 2306.75 696.881   3
   0  -4  18 1468.28 354.840   7
   0  -4  18 540.718 296.413   6
   0   4  18 496.787 304.001   6
   0   4  18 1557.53 637.590   3
   0  -4 -18 765.608 301.316   4
   0   5   0 230.640 152.648   3
   0  -5   0-0.99205 75.7468   6
   0   5   0 124.368 75.6613   2
   0  -5   0 174.000 86.4080   2
   0   5   0 30.7855 65.0334   6
   0  -5   0 15.1896 163.784   3
   0  -5  -1 2657.88 234.464   3
   0  -5   1 2803.17 130.020   2
   0  -5  -1 2437.31 118.462   6
   0   5  -1 2515.09 113.711   2
   0  -5   1 2471.78 126.685   7
   0   5   1 2829.03 227.699   3
   0  -5  -1 2506.80 114.159   2
   0   5   1 2564.90 140.001   4
   0   5   1 2279.58 105.106   2
   0  -5  -1 2177.06 134.056   4
   0   5   1 2379.43 112.388   6
   0   5  -2 188.585 75.9430   2
   0  -5  -2 177.148 86.1130   6
   0  -5  -2 352.113 106.732   4
   0   5   2 229.427 187.769   3
   0  -5   2 202.348 86.0066   2
   0   5   2 133.155 91.8084   4
   0  -5  -2 157.811 70.1480   2
   0   5   2 184.029 80.4913   6
   0   5   2 139.561 58.0541   2
   0  -5   2 195.576 100.845   7
   0  -5  -2 294.662 181.166   3
   0  -5  -3 712.916 123.406   4
   0  -5   3 600.198 118.876   7
   0   5   3 771.493 130.730   4
   0   5   3 658.322 208.051   3
   0   5  -3 817.749 89.5215   2
   0   5   3 1114.69 111.111   6
   0  -5  -3 998.350 104.859   6
   0  -5  -3 909.427 224.140   3
   0  -5   3 1021.70 100.665   2
   0   5  -3 857.407 129.112   7
   0  -5  -3 770.819 73.9662   2
   0   5   3 763.863 60.2461   2
   0  -5  -4 2193.28 91.4401   2
   0  -5  -4 2082.05 181.768   4
   0  -5  -4 2509.17 132.500   7
   0  -5   4 2523.49 129.367   2
   0   5  -4 1929.37 152.449   7
   0  -5  -4 2279.68 266.947   3
   0   5   4 2728.97 155.764   6
   0  -5  -4 2148.71 147.590   6
   0   5   4 1995.19 171.646   4
   0   5  -4 2435.57 119.833   2
   0   5   4 2171.19 81.0038   2
   0  -5   4 2275.09 158.408   7
   0   5   4 2792.67 294.838   3
   0  -5   5 18607.7 296.197   2
   0   5   5 15868.2 418.234   4
   0   5   5 17820.3 358.976   6
   0  -5  -5 15697.5 545.448   3
   0  -5   5 16508.9 372.902   7
   0  -5  -5 15862.9 420.902   4
   0   5   5 16397.4 591.301   3
   0  -5   5 17286.1 308.680   1
   0   5  -5 18363.9 270.464   2
   0   5  -5 15952.6 367.275   7
   0  -5  -5 17521.7 307.188   7
   0   5   6 20178.2 517.407   4
   0   5  -6 22556.3 299.606   2
   0  -5   6 21560.1 326.747   2
   0  -5  -6 20963.7 359.281   7
   0  -5  -6 19025.9 488.455   4
   0   5  -6 21980.8 459.462   7
   0  -5   6 22624.7 366.240   1
   0   5   6 20811.1 703.753   3
   0   5   6 22078.9 434.044   6
   0  -5   6 22393.6 460.412   7
   0  -5   7 1546.95 134.478   1
   0  -5   7 1465.79 173.207   7
   0  -5  -7 1416.63 192.210   4
   0   5  -7 1665.84 104.868   2
   0   5   7 1774.09 322.730   3
   0   5   7 1283.70 188.502   4
   0   5   7 1510.46 164.937   6
   0  -5  -7 1492.43 142.671   7
   0   5   8 1642.22 171.038   6
   0  -5  -8 1679.18 154.028   7
   0  -5   8 1584.53 144.989   1
   0   5   8 1406.97 310.177   3
   0  -5  -8 1153.22 196.433   4
   0  -5   8 1478.88 175.333   7
   0   5  -8 1566.11 106.665   2
   0  -5   9-118.876 102.704   1
   0  -5  -9 117.959 150.112   4
   0   5   9 20.5423 134.577   6
   0   5   9-72.4615 283.398   3
   0  -5   9-59.4052 144.280   7
   0   5  -9 19.5352 72.9910   2
   0  -5  -9-48.9592 115.867   7
   0  -5  10 2601.74 186.522   1
   0   5  10 2348.04 386.498   3
   0  -5 -10 2264.56 258.144   4
   0   5 -10 2535.93 300.823   4
   0   5 -10 2550.28 146.531   2
   0   5  10 3303.71 257.405   6
   0  -5  10 2557.27 240.345   7
   0   5 -11 8.75008 242.497   5
   0   5 -11 103.128 90.7098   2
   0   5  11 267.745 350.135   3
   0  -5  11 101.740 167.962   7
   0  -5 -11 60.4111 173.692   4
   0   5 -11 282.145 209.327   4
   0  -5  11 12.5862 117.955   1
   0   5  11 5.78931 162.397   6
   0  -5 -12 907.327 232.645   4
   0   5 -12 931.816 115.796   2
   0   5 -12 330.160 253.333   5
   0  -5  12 842.249 157.933   1
   0   5 -12 838.315 251.784   4
   0   5  12 1207.21 224.550   6
   0   5  12 1614.28 455.161   3
   0  -5  12 817.076 227.908   7
   0   5 -13 5077.83 429.996   4
   0  -5 -13 5028.91 395.715   4
   0   5  13 5029.65 362.882   6
   0  -5  13 4923.20 353.085   7
   0   5  13 5228.01 635.541   3
   0  -5  13 5705.97 294.203   1
   0   5 -13 4040.41 424.747   5
   0   5 -14 132.499 237.533   4
   0  -5 -14 3.64307 211.387   4
   0   5 -14-200.334 299.784   5
   0  -5  14 207.548 165.131   1
   0   5  14 262.281 431.216   3
   0   5  14 404.496 228.470   6
   0  -5  14 163.500 222.360   7
   0   5 -15 4223.17 475.290   5
   0  -5  15 4054.54 358.391   7
   0   5  15 4942.84 687.611   3
   0   5  15 4462.18 383.405   6
   0  -5 -15 4797.35 437.286   4
   0   5 -15 3198.74 390.344   4
   0   5 -16 613.415 355.187   5
   0   5 -16 385.520 287.176   4
   0   5  16 156.678 509.477   3
   0  -5 -16 883.486 286.846   4
   0  -5  16 287.805 250.521   7
   0   5  16 1604.12 314.786   6
   0  -5  17 2599.93 364.371   7
   0   5 -17 2005.21 401.331   4
   0  -5 -17 2725.17 386.702   4
   0   5  17 2481.34 358.026   6
   0  -5  18 464.418 315.834   6
   0   5  18-14.3324 272.491   6
   0   5  18 905.855 629.101   3
   0  -5  18 193.203 301.037   7
   0   5 -18 72.3010 291.425   4
   0  -5 -18-338.151 309.546   4
   0  -5  18-67.0698 526.533   3
   0   6   0 1300.90 182.646   3
   0  -6   0 1271.82 201.197   3
   0   6   0 1455.68 102.698   2
   0  -6   0 1479.27 109.099   6
   0  -6   0 1373.58 108.294   2
   0   6   0 1380.30 99.4688   6
   0  -6  -1 18124.7 260.659   2
   0   6   1 17206.3 238.597   2
   0  -6  -1 18563.6 281.124   6
   0   6   1 19047.6 452.137   3
   0  -6  -1 18186.4 456.547   3
   0   6  -1 15473.6 241.436   2
   0  -6  -1 14949.1 323.694   4
   0  -6   1 18637.5 290.892   6
   0   6   1 17955.4 262.621   6
   0  -6   1 18044.3 415.412   3
   0  -6   1 18298.5 279.728   2
   0   6   1 18814.0 346.733   4
   0   6   2 7261.05 193.160   6
   0   6   2 5974.55 139.304   2
   0  -6   2 7041.37 190.695   2
   0  -6  -2 6747.60 163.173   2
   0  -6   2 6587.45 200.500   7
   0   6  -2 6814.23 176.969   2
   0  -6  -2 6542.18 184.272   6
   0   6   2 6725.01 230.904   4
   0  -6  -2 6707.08 228.212   4
   0  -6  -2 6852.79 332.772   3
   0   6   2 6834.60 340.568   3
   0   6   3 2609.94 180.155   4
   0  -6  -3 2488.99 144.601   6
   0  -6   3 2755.88 165.372   7
   0  -6  -3 2494.95 175.149   4
   0  -6   3 2831.40 142.706   2
   0   6   3 2581.56 267.568   3
   0  -6  -3 2495.30 110.784   2
   0   6  -3 2649.98 131.299   2
   0   6   3 2438.19 96.0939   2
   0   6   3 2895.34 145.113   6
   0  -6  -3 2707.57 272.494   3
   0   6   4 1570.19 168.752   4
   0   6   4 1254.03 76.3344   2
   0  -6   4 1175.80 144.866   7
   0   6   4 1537.93 266.730   3
   0  -6  -4 1495.52 92.6631   2
   0   6  -4 1278.05 146.892   7
   0  -6  -4 1097.15 148.217   4
   0  -6  -4 1139.29 119.243   6
   0   6  -4 1294.87 105.078   2
   0  -6  -4 1135.54 232.160   3
   0  -6   4 1130.20 113.261   2
   0   6   4 1430.16 137.089   6
   0  -6   5 957.714 146.531   7
   0   6   5 1320.40 159.659   4
   0   6   5 1459.12 269.280   3
   0  -6  -5 1342.41 166.349   4
   0  -6   5 1501.74 120.799   2
   0   6   5 1337.42 78.0215   2
   0  -6  -5 1313.21 84.2153   2
   0   6   5 1888.73 153.575   6
   0  -6  -5 1332.54 242.772   3
   0   6  -5 1459.67 165.664   7
   0   6  -5 1591.86 109.194   2
   0  -6  -5 1627.19 130.455   7
   0  -6   6 6269.71 274.604   7
   0  -6  -6 7128.01 220.816   7
   0  -6   6 7017.33 209.614   2
   0   6   6 5749.93 129.782   2
   0  -6  -6 5902.56 402.032   3
   0   6   6 7728.79 275.897   6
   0   6  -6 7350.26 290.178   7
   0   6   6 6438.27 308.361   4
   0  -6   6 7446.01 234.877   1
   0   6  -6 7500.19 195.459   2
   0   6   6 7064.02 449.768   3
   0  -6  -6 6055.42 313.262   4
   0  -6   7 7367.65 242.588   1
   0  -6  -7 6343.50 323.548   4
   0   6   7 7055.27 354.983   4
   0   6   7 7276.30 488.138   3
   0  -6   7 6776.16 304.521   7
   0   6  -7 7372.59 199.697   2
   0  -6  -7 7200.14 245.636   7
   0   6   7 7229.08 283.278   6
   0  -6   8 11341.3 383.349   7
   0   6   8 11670.9 636.927   3
   0  -6  -8 10371.6 426.948   4
   0   6   8 11396.4 370.181   6
   0  -6   8 11450.2 316.832   1
   0  -6  -8 10540.7 303.335   7
   0   6  -8 11348.3 248.934   2
   0   6   9 239.292 136.124   6
   0   6  -9 120.091 76.2846   2
   0  -6   9 246.356 159.863   7
   0  -6   9 161.959 111.782   1
   0   6   9-197.830 293.874   3
   0  -6  -9 4.86920 114.639   7
   0  -6  -9 12.1597 156.855   4
   0  -6  10 1343.27 165.475   1
   0   6  10 1191.10 375.588   3
   0  -6  10 1651.16 219.988   7
   0   6 -10 1204.81 121.925   2
   0  -6 -10 1426.47 220.744   4
   0   6  10 1466.40 208.225   6
   0   6 -11 55.9497 204.383   4
   0  -6  11 248.967 172.733   7
   0  -6  11 309.395 136.744   1
   0   6  11 194.787 176.617   6
   0   6  11 371.176 357.170   3
   0  -6 -11 192.796 188.885   4
   0   6 -11 254.098 98.0485   2
   0   6 -12 2161.69 361.952   5
   0   6 -12 2436.49 162.696   2
   0  -6 -12 2632.66 313.298   4
   0   6  12 2932.25 280.150   6
   0   6 -12 3557.55 373.462   4
   0  -6  12 2887.44 293.189   7
   0  -6  12 3302.87 232.378   1
   0   6  12 3134.10 492.005   3
   0  -6  13 275.376 210.798   7
   0  -6  13 140.685 144.614   1
   0   6  13 123.367 407.704   3
   0  -6 -13 28.8797 205.030   4
   0   6 -13-4.17672 262.324   5
   0   6  13 333.289 207.478   6
   0   6 -13 280.393 240.698   4
   0  -6  14 4164.69 281.338   1
   0  -6 -14 3962.32 389.582   4
   0   6  14 4867.74 373.291   6
   0   6 -14 3575.43 417.224   5
   0  -6  14 4028.83 358.491   7
   0   6  14 5571.79 665.642   3
   0   6 -14 3099.06 378.083   4
   0   6 -15 1034.08 290.951   4
   0  -6  15 1351.07 288.851   7
   0  -6 -15 1686.78 326.262   4
   0   6 -15 1252.48 344.493   5
   0   6  15 2109.77 599.891   3
   0   6  15 1220.64 268.789   6
   0  -6  16 2887.12 361.497   7
   0  -6 -16 2639.96 375.623   4
   0   6 -16 2432.74 387.907   4
   0   6 -16 2508.43 448.003   5
   0   6  16 2535.68 342.549   6
   0   6  16 3760.20 665.880   3
   0   6 -17 171.892 340.182   5
   0  -6 -17 316.493 265.247   4
   0  -6  17 452.226 273.281   7
   0   6  17 1372.46 619.460   3
   0   6  17 393.134 278.523   6
   0   6 -17 486.877 325.009   4
   0  -6  18 1914.29 358.324   7
   0   6 -18 864.553 341.464   4
   0   6  18 1682.66 365.046   6
   0  -6 -18 1441.15 341.389   4
   0   7   0 11.0281 73.6085   6
   0  -7   0 80.0739 90.4624   6
   0   7   0-34.2414 77.5950   2
   0  -7   0-43.9464 88.0538   2
   0   7   0-1.94180 105.644   4
   0  -7   0 27.7560 182.367   3
   0   7   0-35.4844 153.096   3
   0  -7  -1 20194.8 302.568   2
   0   7  -1 20559.1 301.555   2
   0  -7   1 20585.2 324.613   2
   0  -7   1 20378.7 480.477   3
   0   7   1 19389.5 296.383   6
   0   7   1 22740.6 533.323   3
   0  -7   1 20917.2 336.907   6
   0   7   1 21323.5 399.429   4
   0   7   1 18894.1 270.066   2
   0  -7  -1 20755.4 316.565   6
   0  -7  -1 21260.5 539.250   3
   0  -7  -2 16260.7 267.843   2
   0  -7   2 16024.9 309.849   7
   0   7  -2 16725.9 281.594   2
   0  -7  -2 16809.9 505.630   3
   0   7   2 17505.1 378.653   4
   0   7   2 16546.1 285.746   6
   0   7   2 16902.8 485.284   3
   0  -7  -2 16788.3 360.225   4
   0  -7   2 17041.4 299.314   2
   0  -7  -2 16446.5 289.769   6
   0   7   2 14514.7 224.010   2
   0  -7  -3 5493.49 347.151   3
   0   7  -3 6014.97 185.573   2
   0   7   3 5599.00 347.423   3
   0   7   3 5261.88 140.958   2
   0  -7  -3 5886.15 247.667   4
   0  -7  -3 5681.56 164.333   2
   0   7   3 6092.17 197.087   6
   0  -7   3 5926.80 196.891   2
   0  -7  -3 6134.72 197.684   6
   0  -7   3 5135.10 215.148   7
   0   7   3 5891.02 259.178   4
   0  -7  -4 4096.28 185.976   6
   0  -7   4 3565.78 192.214   7
   0   7   4 3493.22 117.342   2
   0  -7  -4 3888.12 138.756   2
   0  -7  -4 3689.52 218.351   4
   0   7  -4 3408.17 199.628   7
   0   7   4 3901.55 241.273   4
   0  -7   4 3661.50 170.126   2
   0   7  -4 4060.51 160.628   2
   0  -7  -4 4151.16 343.477   3
   0   7   4 3717.39 336.368   3
   0   7   4 4022.85 182.940   6
   0  -7  -5 22726.9 683.002   3
   0  -7  -5 23350.5 417.813   6
   0   7  -5 23482.9 343.610   2
   0   7   5 22006.7 515.441   4
   0  -7  -5 21326.0 278.827   2
   0   7   5 23290.2 704.139   3
   0  -7  -5 22769.3 358.033   7
   0  -7   5 21974.4 441.599   7
   0  -7  -5 21405.3 489.639   4
   0   7   5 23977.8 425.641   6
   0   7  -5 22085.8 456.056   7
   0  -7   5 22189.9 369.750   2
   0   7   5 20413.5 258.712   2
   0  -7   6 4112.64 181.914   2
   0   7   6 3754.10 260.074   4
   0  -7   6 3886.76 190.050   1
   0   7   6 3795.76 121.085   2
   0  -7  -6 2995.11 95.8552   1
   0   7  -6 4191.07 165.876   2
   0  -7   6 3448.31 226.487   7
   0   7   6 4485.32 223.481   6
   0  -7  -6 3819.84 259.338   4
   0   7  -6 3803.08 239.598   7
   0  -7  -6 3472.10 345.564   3
   0  -7  -6 4318.14 186.515   7
   0   7   6 4137.16 388.891   3
   0  -7  -7 2288.83 237.625   4
   0  -7   7 3251.21 234.002   7
   0   7   7 3245.41 207.039   6
   0   7   7 3022.38 379.515   3
   0  -7  -7 3076.50 168.107   7
   0   7  -7 3187.54 149.733   2
   0   7   7 2975.80 258.768   4
   0  -7   7 2957.56 176.915   1
   0   7   7 2449.88 101.052   2
   0   7   8 2716.06 386.236   3
   0  -7  -8 2918.84 182.039   7
   0  -7  -8 2911.19 253.574   4
   0  -7   8 3305.59 194.848   1
   0  -7   8 2902.95 241.409   7
   0   7  -8 3200.81 154.390   2
   0   7   8 3019.41 220.614   6
   0   7   9 751.299 316.515   3
   0   7   9 252.710 149.354   6
   0  -7  -9 291.745 119.283   7
   0  -7  -9 367.149 168.066   4
   0  -7   9 346.633 161.159   7
   0  -7   9 367.575 125.222   1
   0   7  -9 512.446 96.6715   2
   0  -7  10 608.337 140.779   1
   0  -7 -10 659.087 204.763   4
   0   7  10 884.813 183.613   6
   0  -7 -10 805.948 153.446   7
   0   7  10 429.139 321.365   3
   0  -7  10 640.609 187.338   7
   0   7 -10 691.006 110.543   2
   0  -7  11 1304.93 217.987   7
   0   7  11 1234.67 211.240   6
   0   7 -11 989.508 123.101   2
   0  -7 -11 737.091 216.182   4
   0   7  11 742.894 395.528   3
   0  -7  11 985.287 171.112   1
   0   7 -12 47.8491 220.333   4
   0   7  12 219.540 372.002   3
   0  -7 -12 285.377 205.088   4
   0   7  12 214.820 188.516   6
   0  -7  12 89.3974 135.726   1
   0  -7  12 215.225 194.393   7
   0   7 -13 463.060 301.656   5
   0  -7 -13-135.083 227.379   4
   0  -7  13-52.0926 149.115   1
   0   7  13-348.045 395.925   3
   0   7 -13-29.9188 244.597   4
   0  -7  13 67.8905 198.476   7
   0   7  13-87.7400 190.034   6
   0  -7 -14 22.8179 224.766   4
   0   7  14 3.51785 202.575   6
   0  -7  14 58.0596 222.491   7
   0   7 -14-263.121 288.131   5
   0  -7  14 311.063 165.577   1
   0   7 -14-137.312 252.074   4
   0   7  14 552.885 471.309   3
   0  -7  15 1137.39 271.683   7
   0  -7 -15 1319.67 311.338   4
   0   7  15 1674.45 556.267   3
   0   7  15 1069.76 267.677   6
   0   7 -15 1415.14 381.095   5
   0   7 -15 1159.18 296.321   4
   0  -7 -16-45.1743 247.745   4
   0  -7  16-132.237 242.494   7
   0   7 -16 77.5566 322.361   5
   0   7 -16 16.9378 269.825   4
   0   7  16 265.876 505.852   3
   0   7  16 38.5025 241.926   6
   0   7  17 1072.87 316.343   6
   0  -7 -17 592.913 290.150   4
   0   7 -17 603.823 378.470   5
   0   7 -17 352.832 315.516   4
   0  -7  17 574.106 285.837   7
   0  -7 -18 828.886 319.104   4
   0   7  18 913.590 325.117   6
   0  -7  18 479.760 310.921   7
   0   7 -18 227.909 367.979   5
   0  -8   0 999.335 215.738   3
   0  -8   0 823.604 109.239   6
   0   8   0 804.825 179.534   3
   0   8   0 955.592 100.515   2
   0  -8   0 1025.02 115.596   2
   0   8   0 746.260 128.013   4
   0   8   1 6047.53 187.459   6
   0  -8  -1 6638.12 350.930   3
   0  -8   1 5956.90 201.327   2
   0   8   1 5948.24 170.320   2
   0   8  -1 6627.07 194.747   2
   0  -8   1 6243.22 214.798   6
   0  -8  -1 6389.67 198.574   2
   0   8   1 6926.69 258.319   4
   0  -8   1 6501.76 334.394   3
   0   8   1 7531.99 368.767   3
   0  -8  -1 6334.75 199.978   6
   0   8   2 2906.92 124.382   2
   0  -8  -2 3393.60 298.587   3
   0  -8  -2 3096.58 147.907   2
   0   8   2 2712.34 277.054   3
   0   8   2 2950.36 148.910   6
   0  -8  -2 3357.10 196.314   4
   0  -8  -2 3510.25 161.071   6
   0   8  -2 3287.24 150.673   2
   0  -8   2 3106.67 166.074   7
   0  -8   2 2958.42 160.418   2
   0   8   2 3410.37 199.877   4
   0   8   3 2047.89 143.426   6
   0   8   3 1771.93 171.746   4
   0   8   3 1923.53 259.045   3
   0  -8   3 1785.73 150.832   7
   0  -8   3 1557.73 136.701   2
   0  -8  -3 1985.68 170.486   4
   0   8  -3 2055.29 128.249   2
   0  -8  -3 2198.97 278.088   3
   0  -8  -3 1964.32 140.232   6
   0   8   3 1598.97 99.5795   2
   0  -8  -3 1800.11 123.125   2
   0   8   4 15697.9 330.538   6
   0   8   4 13520.2 230.069   2
   0   8   4 15407.9 568.981   3
   0  -8  -4 16400.8 578.725   3
   0  -8   4 15822.9 328.935   2
   0  -8  -4 14878.6 269.741   2
   0  -8  -4 15071.5 409.247   4
   0  -8  -4 15994.0 328.310   6
   0   8   4 15737.6 435.077   4
   0   8  -4 15490.6 292.782   2
   0  -8   4 14280.1 352.629   7
   0   8   5 4766.75 148.470   2
   0  -8  -5 4989.38 265.585   4
   0   8   5 4956.64 273.646   4
   0   8   5 5153.31 398.295   3
   0   8  -5 5243.25 185.521   2
   0   8   5 5424.18 228.583   6
   0  -8  -5 5207.97 165.562   2
   0  -8   5 4327.49 230.457   7
   0  -8   5 5025.35 203.479   2
   0  -8  -5 5466.44 399.707   3
   0  -8  -5 5626.58 226.242   6
   0   8   6 840.564 140.361   6
   0  -8  -6 903.862 171.348   4
   0  -8   6 690.842 156.304   7
   0  -8  -6 733.202 71.0194   1
   0  -8   6 630.654 122.037   1
   0   8   6 578.406 147.162   4
   0   8   6 749.344 81.5731   2
   0  -8   6 761.373 107.987   2
   0  -8  -6 731.009 113.198   7
   0   8  -6 876.713 103.730   2
   0  -8  -6 856.561 257.555   3
   0   8   6 760.129 282.423   3
   0  -8   7 2223.47 212.248   7
   0  -8  -7 2278.14 221.848   4
   0  -8   7 2122.84 166.180   1
   0  -8  -7 1570.43 77.8835   1
   0  -8  -7 2477.23 159.046   7
   0   8   7 3086.84 374.153   3
   0   8  -7 2699.62 145.081   2
   0   8   7 2032.64 103.905   2
   0   8   7 2672.79 196.008   6
   0   8  -8 3998.64 176.838   2
   0   8   8 4083.99 437.145   3
   0  -8  -8 4383.10 207.036   7
   0  -8   8 4365.24 268.762   7
   0   8   8 4335.33 251.243   6
   0  -8   8 3908.97 219.721   1
   0  -8  -8 4196.75 296.150   4
   0  -8  -9 0.28741 154.431   4
   0  -8   9 190.776 154.454   7
   0   8  -9 103.353 86.6510   2
   0  -8  -9 138.648 110.876   7
   0   8   9-133.825 317.508   3
   0  -8   9 120.943 112.608   1
   0   8   9 105.055 145.711   6
   0  -8 -10 762.841 190.436   4
   0   8  10 1270.65 368.951   3
   0  -8 -10 1186.68 161.968   7
   0  -8  10 981.961 206.655   7
   0  -8  10 825.563 153.666   1
   0   8  10 1354.96 206.311   6
   0   8 -10 735.657 111.204   2
   0  -8  11 109.314 192.225   7
   0  -8  11 442.995 155.381   1
   0   8  11 87.4941 359.924   3
   0   8  11 426.100 188.005   6
   0  -8 -11 25.0323 183.519   4
   0   8  12 1917.05 263.898   6
   0  -8  12 1563.42 243.920   7
   0  -8 -12 1187.53 257.341   4
   0  -8  12 1717.53 201.352   1
   0   8  12 2037.25 486.022   3
   0  -8  13 1695.46 213.384   1
   0  -8  13 1506.27 266.753   7
   0  -8 -13 2080.84 320.739   4
   0   8 -13 1347.93 310.341   4
   0   8  13 1934.43 479.781   3
   0   8  13 1756.84 269.895   6
   0   8 -14 1779.82 387.576   5
   0  -8 -14 2042.36 322.325   4
   0   8  14 1653.46 531.401   3
   0  -8  14 1651.64 280.629   7
   0   8  14 1438.46 274.404   6
   0  -8  14 1949.51 232.462   1
   0   8 -14 1200.05 330.674   4
   0   8  15 360.678 481.094   3
   0  -8  15 170.440 238.573   7
   0   8 -15 373.943 280.741   4
   0   8  15-282.077 229.600   6
   0   8 -15-119.832 303.026   5
   0  -8 -15-165.572 234.707   4
   0   8  16 1240.58 562.184   3
   0   8 -16 506.358 296.294   4
   0   8 -16 876.175 370.101   5
   0   8  16 927.339 297.509   6
   0  -8  16 1040.66 305.729   7
   0  -8 -16 996.124 287.804   4
   0  -8  17-290.971 290.415   7
   0   8 -17 458.204 317.903   4
   0   8  17 663.576 555.295   3
   0   8  17 503.498 284.160   6
   0   8 -17 768.577 395.507   5
   0  -8 -17-183.154 288.807   4
   0  -9   0 241.046 197.995   3
   0   9   0 9.32902 78.2008   2
   0   9   0 21.8720 103.945   4
   0   9   0-58.2826 160.871   3
   0  -9   0-3.47034 91.7030   6
   0  -9   0-2.75077 96.0180   2
   0   9  -1 315.582 90.1032   2
   0  -9  -1 453.422 205.508   3
   0   9   1 365.176 91.6627   6
   0  -9   1 516.649 194.638   3
   0  -9  -1 473.364 110.127   2
   0  -9   1 265.454 100.213   6
   0   9   1 433.788 120.513   4
   0   9   1 387.732 208.376   3
   0  -9  -1 447.912 105.532   6
   0   9   1 394.189 84.7623   2
   0  -9   1 409.801 111.895   2
   0   9   2 3153.55 212.378   4
   0   9   2 2816.25 132.009   2
   0  -9  -2 2952.64 199.673   4
   0   9   2 2771.30 148.266   6
   0  -9  -2 3559.54 329.572   3
   0  -9  -2 2910.10 160.159   2
   0  -9   2 3111.73 180.448   6
   0  -9   2 2730.20 164.496   2
   0   9   2 3264.55 298.795   3
   0   9  -2 3104.16 154.394   2
   0  -9   2 2869.24 167.377   7
   0  -9   2 3069.90 269.256   3
   0  -9  -2 3233.97 164.171   6
   0   9  -3 10866.3 260.390   2
   0  -9  -3 11839.3 282.418   6
   0  -9  -3 10865.9 258.973   2
   0  -9   3 10941.2 288.981   2
   0  -9  -3 11455.3 352.463   4
   0   9   3 11265.0 361.241   4
   0  -9   3 10694.5 299.854   7
   0  -9  -3 11608.3 499.518   3
   0   9   3 12227.0 494.176   3
   0   9   3 10384.8 223.136   2
   0   9   3 10934.9 271.355   6
   0  -9   4 3994.42 194.917   2
   0   9   4 4114.74 358.632   3
   0   9   4 3916.91 147.567   2
   0   9  -4 3792.31 169.805   2
   0  -9  -4 4227.39 372.358   3
   0   9   4 4392.04 196.032   6
   0  -9  -4 4405.09 247.315   4
   0  -9  -4 4346.46 175.242   2
   0   9   4 4356.41 255.412   4
   0  -9  -4 4486.20 198.223   6
   0  -9   4 4224.46 227.293   7
   0   9   5 1229.02 174.829   4
   0   9   5 1049.70 135.474   6
   0  -9  -5 923.259 106.614   2
   0  -9  -5 803.468 252.175   3
   0  -9   5 981.503 130.463   2
   0  -9  -5 821.330 154.791   4
   0   9   5 866.335 278.300   3
   0  -9  -5 1084.52 133.766   6
   0   9   5 797.946 88.0947   2
   0   9  -5 1056.37 112.436   2
   0  -9   5 960.793 156.755   7
   0  -9  -6 90.0351 124.879   4
   0  -9   6-38.0604 105.103   1
   0   9   6 194.261 253.033   3
   0   9  -6 200.824 85.2304   2
   0  -9   6 161.894 97.3060   2
   0  -9  -6 109.689 96.7922   7
   0  -9   6 191.102 133.764   7
   0   9   6 193.126 72.0556   2
   0  -9  -6 121.376 65.5906   1
   0   9   6 278.081 114.236   6
   0  -9  -7-24.1115 53.0198   1
   0   9   7 196.269 287.586   3
   0   9   7 73.7853 120.194   6
   0  -9  -7 136.379 103.031   7
   0  -9  -7 49.4797 57.4099   1
   0  -9  -7 41.5585 132.952   4
   0  -9   7 83.0475 103.930   1
   0   9   7 138.021 71.9401   2
   0  -9   7-28.2274 94.9318   2
   0  -9   7 25.8589 134.959   7
   0   9  -7 104.518 81.6487   2
   0   9   8 1651.28 181.646   6
   0  -9   8 1548.47 201.440   7
   0   9   8 1837.49 366.199   3
   0   9  -8 2049.52 144.625   2
   0  -9  -8 1762.21 219.118   4
   0   9   8 1527.46 103.794   2
   0  -9  -8 2042.26 156.666   7
   0  -9   8 1687.80 171.174   1
   0   9   9 258.519 311.636   3
   0  -9   9 79.1974 160.156   7
   0   9   9 281.342 147.379   6
   0  -9   9 208.297 123.298   1
   0   9   9 146.830 66.2422   2
   0  -9  -9 522.316 174.160   4
   0  -9  -9 244.108 116.096   7
   0   9  10-344.898 172.540   6
   0  -9 -10 15.3612 168.624   4
   0  -9 -10-101.648 122.950   7
   0  -9  10 100.021 135.507   1
   0   9  10 12.4566 330.943   3
   0  -9  10-254.642 188.525   7
   0   9  11 800.299 400.238   3
   0  -9  11 379.100 153.585   1
   0   9  11 708.215 199.857   6
   0  -9 -11 644.395 207.085   4
   0  -9  11 381.896 197.369   7
   0   9  12 7841.14 417.593   6
   0  -9  12 8150.69 435.185   7
   0   9  12 7364.24 688.812   3
   0  -9 -12 6779.46 449.702   4
   0  -9  13 1057.68 248.336   7
   0  -9  13 1366.57 209.436   1
   0  -9 -13 1006.79 248.569   4
   0   9  13 905.347 440.908   3
   0   9 -13 665.612 274.330   4
   0   9  13 1123.27 241.179   6
   0   9  14 533.333 442.844   3
   0  -9 -14 92.9889 213.507   4
   0   9 -14-100.982 308.896   5
   0  -9  14 517.515 183.905   1
   0   9 -14 336.167 268.813   4
   0  -9  14 353.564 236.134   7
   0   9  14 460.483 225.904   6
   0  -9 -15-77.7816 226.121   4
   0  -9  15-3.80972 239.294   7
   0   9 -15-184.114 321.539   5
   0   9  15-282.605 463.593   3
   0   9 -15 893.264 316.429   4
   0   9  15-239.615 243.918   6
   0  -9  15 347.172 203.673   1
   0   9  16 887.622 297.683   6
   0   9  16 87.6388 501.797   3
   0   9 -16 288.899 306.837   4
   0  -9  16 679.410 286.910   7
   0   9 -16 393.097 363.844   5
   0  -9 -16 367.249 267.710   4
   0   9 -17 479.712 292.031   4
   0  -9  17-77.5213 284.596   7
   0   9  17 381.579 274.106   6
   0   9  17 168.079 542.163   3
   0   9 -17 238.463 372.595   5
   0  -9 -17 541.653 292.330   4
   0 -10   0 450.418 112.248   2
   0  10   0 213.585 88.7372   2
   0  10   0 353.426 181.716   3
   0 -10   0 428.141 111.257   6
   0 -10   0 183.361 202.137   3
   0  10   0 439.632 130.503   4
   0 -10  -1 69.1349 99.4930   6
   0  10   1 104.804 84.2191   6
   0 -10   1-69.6889 204.862   3
   0  10   1 102.940 109.504   4
   0  10  -1 67.1861 86.7774   2
   0 -10  -1-65.9454 101.711   2
   0 -10   1 84.7702 112.830   2
   0  10   1 185.032 214.356   3
   0 -10   1 166.919 101.603   7
   0  10   1 44.0256 81.4871   2
   0 -10  -1-111.797 210.801   3
   0 -10   1 148.587 103.296   6
   0  10   2 11392.7 273.041   6
   0 -10   2 12391.9 314.193   2
   0  10   2 11204.7 248.770   2
   0 -10  -2 13453.9 537.817   3
   0 -10   2 12043.2 322.011   6
   0 -10  -2 11726.8 293.965   2
   0 -10  -2 11718.7 289.302   6
   0  10   2 13026.8 394.314   4
   0  10   2 12536.9 492.575   3
   0 -10   2 12952.0 478.719   3
   0  10  -2 12051.7 277.585   2
   0 -10   2 11223.8 295.562   7
   0  10   3 539.580 246.556   3
   0 -10  -3 343.426 108.308   2
   0 -10  -3 331.429 105.376   6
   0 -10   3 402.834 139.122   7
   0  10   3 424.535 107.222   6
   0 -10   3 313.971 119.103   2
   0  10   3 363.974 83.1113   2
   0 -10  -3 242.373 221.780   3
   0  10  -3 194.321 91.7490   2
   0  10   3 446.779 132.329   4
   0 -10  -3 240.426 123.854   4
   0  10   4 10848.1 239.206   2
   0  10   4 11924.8 413.030   4
   0 -10   4 11286.4 344.383   7
   0  10  -4 11632.7 282.122   2
   0  10   4 12017.3 309.413   6
   0 -10  -4 11839.1 549.629   3
   0 -10  -4 11627.8 381.801   4
   0  10   4 11867.8 547.615   3
   0 -10  -4 11556.4 303.347   6
   0 -10  -4 11436.5 282.893   2
   0 -10   4 11616.4 315.966   2
   0 -10  -5 2984.15 184.385   6
   0  10  -5 3180.64 161.942   2
   0 -10   5 2764.20 209.897   7
   0 -10  -5 3117.70 161.343   2
   0 -10   5 2999.86 186.505   2
   0 -10  -5 3028.64 236.276   4
   0  10   5 3325.09 191.143   6
   0  10   5 3510.05 372.678   3
   0 -10  -5 3218.03 365.862   3
   0  10   5 2832.12 135.224   2
   0  10   6 1622.87 321.244   3
   0 -10  -6 1425.67 108.559   1
   0 -10  -6 1662.38 142.884   7
   0 -10  -6 1500.35 127.248   2
   0  10   6 1477.16 110.854   2
   0 -10  -6 1833.59 206.224   4
   0 -10   6 1607.58 154.240   2
   0 -10   6 1400.20 157.643   1
   0 -10   6 1614.71 188.244   7
   0  10   6 1930.90 167.789   6
   0 -10  -6 1580.39 157.883   6
   0 -10   7 3319.93 197.895   2
   0 -10  -7 3589.11 263.461   4
   0 -10   7 3408.86 224.515   1
   0 -10   7 4124.82 269.411   7
   0  10   7 3911.76 225.459   6
   0  10   7 3371.07 146.971   2
   0 -10  -7 3591.15 141.261   1
   0 -10  -7 3943.62 191.396   7
   0  10   7 4303.59 432.007   3
   0  10   8 608.326 149.061   6
   0 -10  -8 571.078 170.194   4
   0  10   8 326.125 87.4709   2
   0 -10  -8 192.037 59.4237   1
   0 -10   8 441.192 170.869   7
   0 -10  -8 383.964 60.5103   1
   0  10   8 208.281 290.836   3
   0 -10  -8 414.525 115.593   7
   0 -10   8 479.295 135.559   1
   0 -10   9 6406.20 299.380   1
   0  10   9 6298.03 318.145   6
   0 -10   9 6363.86 340.631   7
   0 -10  -9 5858.61 250.449   7
   0  10   9 6254.31 557.870   3
   0 -10  -9 5486.86 360.033   4
   0 -10 -10 401.269 188.612   4
   0 -10 -10 434.266 134.807   7
   0  10  10 366.570 183.836   6
   0  10  10 105.670 327.278   3
   0 -10  10 290.230 189.019   7
   0 -10  10 268.011 146.377   1
   0 -10  11 1394.73 248.490   7
   0  10  11 1931.35 251.147   6
   0 -10  11 1797.27 216.224   1
   0 -10 -11 1783.20 259.627   4
   0  10  12 6078.39 372.994   6
   0 -10  12 6840.85 353.450   1
   0  10  12 5832.43 630.797   3
   0 -10 -12 5410.68 399.921   4
   0 -10  12 6844.29 407.306   7
   0 -10  13 640.372 228.634   7
   0 -10 -13 1041.15 257.883   4
   0  10  13 1191.20 472.042   3
   0 -10  13 1447.86 211.289   1
   0  10  13 1268.50 254.388   6
   0  10  14 1825.18 291.399   6
   0 -10  14 2146.11 314.097   7
   0 -10 -14 1871.37 303.232   4
   0 -10  14 1715.31 245.997   1
   0  10  14 2431.17 573.481   3
   0  10 -14 1267.81 318.117   4
   0 -10 -15 525.461 256.880   4
   0  10  15-193.896 233.104   6
   0 -10  15 883.531 274.119   7
   0  10 -15 269.880 324.865   5
   0  10  15-199.778 460.349   3
   0  10 -15 183.117 271.850   4
   0 -10  15 333.983 200.947   1
   0  10 -16 650.789 365.406   5
   0 -10  16 1429.53 325.606   7
   0  10 -16 485.468 295.588   4
   0  10  16 490.648 521.949   3
   0  10  16 1387.62 318.429   6
   0 -10 -16 700.846 257.177   4
   0 -10 -17 1154.29 330.740   4
   0 -10  17 72.5687 279.898   7
   0  10  17 544.254 286.445   6
   0  10 -17 521.071 315.042   4
   0  10 -17 94.1295 350.079   5
   0  10  17 145.337 533.796   3
   0  11   0 87.4922 118.189   4
   0  11   0 56.0437 87.5095   2
   0 -11   0 46.8072 100.189   6
   0 -11   0 3.57905 111.316   2
   0  11   0-28.6868 177.833   3
   0 -11   0-175.977 228.276   3
   0  11   1 23861.9 661.303   3
   0 -11  -1 19968.7 658.384   3
   0 -11   1 21171.2 421.049   2
   0 -11  -1 21194.5 412.114   2
   0  11   1 20196.6 363.172   6
   0 -11  -1 22203.0 413.674   6
   0  11  -1 21517.6 368.776   2
   0 -11   1 25184.3 719.693   3
   0  11   1 19961.8 480.511   4
   0  11   1 20024.7 344.493   2
   0 -11   1 20018.3 379.325   7
   0 -11   1 22534.4 435.085   6
   0 -11  -2 55.1827 98.6956   6
   0 -11  -2-33.6388 224.178   3
   0  11   2 270.490 230.208   3
   0 -11   2 9.81259 104.593   6
   0 -11   2-19.3522 117.979   7
   0  11   2-92.8983 122.372   4
   0  11   2-70.4539 88.5814   2
   0  11  -2 23.6796 88.1123   2
   0 -11   2 4.56643 117.520   2
   0 -11   2 413.761 215.303   3
   0  11   2 28.6611 86.7061   6
   0 -11  -2 114.603 110.420   2
   0  11   3 7603.14 216.649   2
   0 -11  -3 8438.86 341.398   4
   0  11   3 7878.99 450.014   3
   0  11  -3 7174.87 236.413   2
   0 -11  -3 8050.85 259.380   6
   0 -11   3 7293.67 276.412   7
   0 -11  -3 7572.84 470.761   3
   0 -11   3 7553.47 274.800   2
   0  11   3 7151.23 236.828   6
   0  11   3 7823.83 336.108   4
   0 -11   3 7100.70 277.958   6
   0 -11  -3 7459.26 257.896   2
   0  11   4 5011.53 179.423   2
   0 -11  -4 5563.42 228.869   6
   0  11   4 5478.28 220.396   6
   0 -11  -4 5639.62 435.796   3
   0 -11  -4 5044.89 211.441   2
   0 -11   4 5315.25 252.799   7
   0 -11  -4 5333.55 285.044   4
   0 -11   4 5180.07 238.761   2
   0  11   4 4791.52 398.087   3
   0 -11  -5 4588.56 199.109   2
   0 -11   5 4694.95 253.547   7
   0 -11  -5 4846.66 280.684   4
   0  11   5 5366.49 229.599   6
   0 -11   5 4812.92 230.044   2
   0  11   5 4683.33 175.023   2
   0 -11  -5 5505.40 230.613   6
   0  11   5 5068.08 430.386   3
   0 -11  -6 3575.83 209.542   6
   0 -11  -6 3440.67 178.768   2
   0 -11   6 3519.66 206.787   2
   0  11   6 3499.84 159.251   2
   0 -11   6 3481.61 218.534   1
   0 -11  -6 3751.50 270.811   4
   0 -11  -6 3682.77 157.857   1
   0 -11   6 3738.83 250.120   7
   0  11   6 4188.63 221.896   6
   0 -11   7 145.392 119.814   1
   0  11   7 83.6889 80.3846   2
   0  11   7 150.922 126.077   6
   0 -11  -7 145.579 83.3189   1
   0 -11  -7 213.486 106.528   7
   0  11   7-50.8278 275.749   3
   0 -11   7 203.750 111.106   2
   0 -11   7 177.652 146.461   7
   0 -11  -7 118.386 139.716   4
   0 -11   8 161.365 163.128   7
   0  11   8 114.412 85.0025   2
   0 -11   8 256.344 133.546   1
   0 -11  -8 64.7629 66.3675   1
   0  11   8 336.435 310.249   3
   0 -11  -8 18.3511 146.991   4
   0  11   8 188.765 130.847   6
   0 -11  -8 301.500 76.8462   1
   0 -11  -8 63.7488 106.438   7
   0 -11  -9 190.362 44.2636   1
   0 -11   9 240.534 143.517   1
   0 -11  -9 7.22855 156.069   4
   0 -11  -9 121.882 41.9401   1
   0  11   9 431.674 337.377   3
   0 -11   9 177.862 187.167   7
   0  11   9-38.4590 144.490   6
   0  11   9 137.401 89.5398   2
   0 -11  -9 292.529 131.944   7
   0 -11  10-179.953 193.275   7
   0 -11 -10-75.7529 121.088   7
   0 -11  10-105.525 152.238   1
   0  11  10 27.3632 76.0507   2
   0  11  10 177.549 379.825   3
   0 -11 -10 108.339 174.907   4
   0  11  10-85.2660 156.965   6
   0 -11  11 3671.61 323.175   7
   0 -11 -11 3409.64 325.270   4
   0  11  11 3901.48 306.071   6
   0 -11  11 3788.03 284.483   1
   0  11  11 4229.67 548.498   3
   0  11  12 1561.08 464.044   3
   0  11  12 1499.53 243.884   6
   0 -11  12 1437.98 275.292   7
   0 -11 -12 1744.96 276.819   4
   0 -11  12 1341.55 218.962   1
   0 -11  13 516.695 183.165   1
   0  11  13 1214.12 260.510   6
   0 -11  13 430.003 217.711   7
   0  11  13 956.828 482.118   3
   0 -11 -13 704.256 239.964   4
   0  11  14 769.406 254.055   6
   0 -11  14 695.360 203.579   1
   0 -11  14 527.612 261.256   7
   0 -11 -14 183.781 209.440   4
   0  11  14 853.311 505.191   3
   0 -11  15 837.472 237.123   1
   0  11  15-264.866 500.653   3
   0  11 -15 489.532 344.346   5
   0 -11  15 499.709 267.373   7
   0  11  15 760.927 264.860   6
   0 -11 -15 583.397 279.485   4
   0  11 -15 342.993 291.223   4
   0  11 -16 394.477 348.724   5
   0  11 -16-319.426 302.460   4
   0 -11  16-433.357 300.934   7
   0 -11 -16 370.644 268.203   4
   0  11  16-91.6682 255.986   6
   0 -11  17 193.379 288.408   7
   0 -11 -17 111.467 247.514   4
   0  11 -17 258.254 386.299   5
   0  11  17-368.566 560.557   3
   0  11 -17-138.854 303.973   4
   0 -12   0 11102.6 533.267   3
   0  12   0 11942.1 478.085   3
   0  12   0 11110.4 280.938   2
   0 -12   0 11397.0 326.944   6
   0 -12   0 10960.2 326.144   2
   0  12   0 12218.7 407.374   4
   0 -12  -1 3114.57 335.514   3
   0  12   1 2700.67 159.211   6
   0 -12  -1 3318.83 203.708   2
   0 -12   1 3218.21 205.453   2
   0 -12   1 3168.17 197.779   6
   0  12   1 3101.20 318.563   3
   0  12   1 3030.38 164.976   2
   0 -12   1 3792.79 379.193   3
   0 -12   1 2835.41 183.844   7
   0  12  -1 4224.83 201.579   2
   0  12   1 4171.53 257.252   4
   0 -12  -1 3202.35 193.005   6
   0 -12  -2 2525.82 172.047   6
   0  12   2 3192.22 350.006   3
   0 -12  -2 2594.60 328.690   3
   0 -12   2 2825.79 188.257   7
   0 -12  -2 2726.80 186.474   2
   0  12   2 2686.08 159.471   6
   0  12   2 2854.85 154.088   2
   0 -12   2 2695.27 197.502   6
   0 -12   2 2638.23 195.344   2
   0 -12   3 945.908 153.059   7
   0  12   3 940.902 120.252   6
   0 -12  -3 945.655 283.631   3
   0 -12  -3 878.469 128.130   6
   0 -12  -3 778.369 156.725   4
   0  12   3 937.589 108.615   2
   0 -12  -3 880.785 138.092   2
   0  12   3 759.539 254.313   3
   0 -12   3 876.820 139.457   6
   0 -12   3 823.864 143.585   2
   0  12   4 79.2400 241.424   3
   0 -12   4 30.7588 128.650   7
   0 -12  -4 75.2491 104.874   2
   0 -12  -4-86.0880 119.634   4
   0  12   4 71.2370 80.0964   2
   0  12   4 276.803 108.748   6
   0 -12  -4-20.2322 105.842   6
   0 -12   4 138.379 120.788   2
   0 -12  -5 3067.68 182.303   2
   0 -12  -5 3035.30 189.508   6
   0  12   5 2862.84 150.970   2
   0 -12  -5 3082.70 240.733   4
   0 -12   5 2906.96 214.374   7
   0 -12   5 2916.07 197.027   2
   0  12   5 2753.63 358.871   3
   0  12   5 3212.37 193.783   6
   0  12   6 878.694 300.004   3
   0  12   6 967.692 139.547   6
   0 -12  -6 765.727 123.753   2
   0 -12   6 718.893 131.843   2
   0 -12  -6 778.079 165.322   4
   0 -12   6 706.515 137.880   1
   0 -12  -6 842.322 109.187   1
   0 -12   6 861.765 169.888   7
   0  12   6 859.257 107.738   2
   0 -12  -6 940.663 139.304   6
   0 -12  -7 17.5065 151.511   4
   0  12   7 211.227 122.188   6
   0  12   7 161.827 87.4232   2
   0  12   7 225.816 269.795   3
   0 -12  -7 182.885 89.3160   1
   0 -12   7 257.858 147.906   7
   0 -12  -7 251.512 111.682   7
   0 -12   7 203.071 126.481   1
   0 -12   7 103.249 114.130   2
   0 -12  -8 3268.94 189.697   7
   0  12   8 2721.26 155.405   2
   0 -12  -8 3097.57 156.824   1
   0  12   8 3395.91 462.512   3
   0 -12   8 3503.25 276.063   7
   0 -12  -8 3280.37 283.633   4
   0 -12   8 2932.24 232.430   1
   0  12   8 3678.62 245.499   6
   0  12   9 542.125 357.595   3
   0 -12  -9 478.639 197.703   4
   0  12   9 465.732 108.747   2
   0  12   9 599.138 166.190   6
   0 -12  -9 480.584 76.0281   1
   0 -12  -9 429.898 76.8040   1
   0 -12  -9 392.522 121.863   7
   0 -12   9 578.901 193.673   7
   0 -12   9 686.474 168.739   1
   0  12  10 5139.31 319.462   6
   0  12  10 4870.46 575.163   3
   0 -12  10 5194.00 349.497   7
   0 -12 -10 3882.73 223.926   7
   0 -12  10 4555.37 298.276   1
   0 -12 -10 5061.08 370.563   4
   0 -12 -11 1570.33 263.853   4
   0  12  11 2288.37 262.880   6
   0 -12  11 1805.63 269.210   7
   0  12  11 2397.71 491.256   3
   0 -12  11 1477.00 215.541   1
   0 -12  12 2916.57 314.258   7
   0  12  12 2156.01 518.176   3
   0  12  12 2846.87 289.719   6
   0 -12  12 2647.44 265.187   1
   0 -12 -12 2870.02 330.433   4
   0 -12  13 1673.84 241.896   1
   0  12  13 2084.64 288.321   6
   0 -12  13 1313.85 279.017   7
   0 -12 -13 1440.18 274.386   4
   0  12  13 1571.51 507.765   3
   0 -12  14 1334.84 228.827   1
   0  12  14 1029.81 510.367   3
   0 -12  14 1032.13 277.390   7
   0  12  14 1509.52 283.312   6
   0 -12 -14 1310.87 278.082   4
   0  12  15 961.403 280.622   6
   0 -12  15 956.674 290.782   7
   0  12 -15 296.293 301.253   4
   0 -12 -15 600.647 257.700   4
   0  12  15 909.899 581.713   3
   0 -12  15 551.416 217.802   1
   0 -12 -16 3751.08 422.505   4
   0  12  16 3525.67 729.067   3
   0  12 -16 3230.91 530.557   5
   0 -12  16 2885.94 388.843   7
   0 -12  17-300.012 322.618   7
   0 -13   0 151.012 111.990   6
   0 -13   0-81.0830 121.458   2
   0 -13  -1 10903.9 322.749   6
   0  13   1 10728.4 497.116   3
   0  13   1 9610.03 277.491   6
   0 -13   1 9785.41 335.236   2
   0 -13  -1 9578.23 321.374   2
   0 -13   1 10461.7 301.258   7
   0 -13   1 10691.3 335.388   6
   0 -13  -2 711.883 132.428   6
   0 -13   2 614.458 133.137   6
   0  13   2 654.576 105.683   6
   0 -13   2 586.116 133.735   7
   0 -13   2 626.827 135.496   2
   0  13   2 886.902 254.563   3
   0 -13  -2 696.116 138.689   2
   0 -13  -3 8723.07 287.283   6
   0  13   3 8686.23 499.206   3
   0 -13  -3 7896.45 288.626   2
   0  13   3 8075.74 257.246   6
   0 -13   3 7772.37 303.485   2
   0 -13   3 8561.66 323.820   6
   0  13   3 8170.98 244.989   2
   0 -13   3 8300.02 308.274   7
   0 -13   4 188.672 140.626   7
   0 -13  -4 40.4685 108.607   6
   0  13   4 223.014 232.783   3
   0 -13   4 268.007 127.903   2
   0 -13  -4-70.3788 106.244   2
   0 -13  -4-46.8564 136.721   4
   0  13   4 49.0970 97.8440   6
   0  13   4 176.978 93.5959   2
   0 -13  -5 887.075 173.207   4
   0  13   5 585.161 281.351   3
   0  13   5 805.537 114.754   2
   0 -13  -5 771.854 130.036   2
   0 -13   5 735.284 142.676   2
   0 -13  -5 899.729 134.612   6
   0 -13  -5 615.141 114.833   1
   0 -13   5 1049.34 171.015   7
   0  13   5 634.349 124.580   6
   0 -13   5 938.764 156.985   1
   0 -13  -6 1020.89 184.524   4
   0 -13   6 923.828 156.892   1
   0 -13   6 1080.14 161.014   2
   0 -13  -6 964.053 118.742   1
   0 -13   6 1335.06 188.309   7
   0  13   6 1059.96 126.009   2
   0 -13  -6 1164.31 150.261   6
   0  13   6 1363.40 159.656   6
   0 -13  -7 255.434 117.630   7
   0 -13  -7 319.721 129.114   6
   0  13   7-151.479 130.490   6
   0 -13   7-7.35325 121.247   2
   0 -13   7 113.985 150.999   7
   0  13   7 245.614 295.885   3
   0 -13  -7 208.737 155.935   4
   0 -13   7 148.149 127.764   1
   0  13   7 45.1245 89.4439   2
   0 -13  -7-66.8478 95.4802   1
   0 -13   8-83.2056 135.815   1
   0  13   8 47.9260 135.056   6
   0  13   8 462.834 332.496   3
   0 -13   8 130.216 179.260   7
   0 -13  -8-89.1486 117.729   7
   0 -13  -8 25.2466 154.048   4
   0 -13  -8-131.382 104.121   1
   0  13   8 0.76398 93.2087   2
   0  13   9 4939.34 560.053   3
   0 -13  -9 3673.88 159.833   1
   0 -13  -9 4301.38 217.687   7
   0  13   9 3656.09 187.580   2
   0  13   9 4557.93 281.999   6
   0 -13  -9 2697.09 151.571   1
   0 -13   9 5041.73 336.252   7
   0 -13   9 4222.66 284.489   1
   0 -13  -9 4808.03 355.857   4
   0 -13  10 261.798 197.868   7
   0 -13 -10-2.32253 180.479   4
   0 -13  10 78.9831 164.822   1
   0  13  10 352.941 178.433   6
   0  13  10 436.044 376.332   3
   0 -13  11 87.1536 212.780   7
   0 -13  11 11.0287 160.158   1
   0  13  11 154.382 180.632   6
   0 -13 -11 34.6502 196.476   4
   0 -13 -12 413.824 239.254   4
   0 -13  12 422.414 230.506   7
   0  13  12 358.142 410.190   3
   0 -13  12 432.560 195.782   1
   0  13  12 592.808 211.040   6
   0 -13  13 2118.19 273.736   1
   0  13  13 2040.14 280.322   6
   0 -13  13 1967.64 306.642   7
   0 -13 -13 1722.17 318.408   4
   0  13  13 1220.45 477.737   3
   0 -13 -14 453.372 259.767   4
   0 -13  14 94.1519 190.099   1
   0  13  14 412.152 246.176   6
   0 -13  14-27.0193 234.110   7
   0  13  14 203.085 473.992   3
   0  13  15 1480.12 595.914   3
   0  13  15 1518.09 296.740   6
   0 -13 -15 1679.72 302.967   4
   0 -13  15 1834.07 274.010   1
   0 -13  15 1861.31 336.068   7
   0  13 -16 905.857 440.309   5
   0 -13  16 516.028 288.911   7
   0 -13 -16 339.016 267.562   4
   0  13  16 1082.84 580.050   3
   0  13 -16-163.369 305.797   4
   0 -14   0 109.102 111.629   6
   0 -14   0-107.244 122.532   2
   0  14   1 3321.33 311.856   3
   0 -14   1 3228.36 221.837   2
   0 -14  -1 2900.06 212.265   2
   0 -14   1 3403.95 201.886   7
   0 -14   1 3544.09 223.067   6
   0 -14  -1 3099.28 204.693   6
   0 -14   2 1946.36 177.483   7
   0 -14   2 1800.69 180.211   6
   0  14   2 1797.30 147.534   6
   0  14   2 1783.04 305.149   3
   0 -14   2 1531.19 172.724   2
   0 -14  -2 1589.74 173.137   2
   0 -14  -2 1930.93 168.611   6
   0  14   3 157.090 255.266   3
   0 -14   3 254.726 123.163   2
   0 -14  -3 441.709 120.758   6
   0 -14   3 20.1158 130.506   7
   0 -14  -3 250.874 124.571   2
   0  14   3 260.869 101.028   6
   0 -14  -4 707.656 150.252   2
   0 -14  -4 813.639 179.318   4
   0 -14  -4 766.907 133.721   6
   0 -14   4 816.772 154.262   7
   0 -14   4 597.473 141.309   2
   0  14   4 790.573 277.856   3
   0  14   4 573.170 118.670   6
   0 -14   5 2237.93 207.711   1
   0 -14  -5 2372.25 184.482   6
   0 -14  -5 2246.01 171.324   1
   0  14   5 2289.58 175.924   6
   0 -14   5 1863.87 189.265   2
   0 -14  -5 2410.39 240.343   4
   0  14   5 1905.29 335.870   3
   0 -14   5 1981.12 204.202   7
   0 -14  -5 2135.63 183.768   2
   0 -14  -6 136.532 107.384   1
   0 -14  -6-44.9747 137.989   4
   0 -14  -6 193.054 121.282   6
   0  14   6 408.329 131.134   6
   0  14   6-61.6317 103.206   2
   0 -14   6-249.090 137.501   1
   0 -14   6 261.772 134.582   2
   0 -14   6 50.8806 151.678   7
   0  14   6 156.336 266.411   3
   0  14   7-19.4279 101.397   2
   0 -14  -7-27.6240 144.890   4
   0 -14  -7 57.3877 115.012   7
   0 -14  -7 48.7998 108.194   1
   0  14   7-349.275 316.545   3
   0 -14  -7-29.6822 119.699   6
   0 -14   7 127.216 141.752   1
   0  14   7-14.2290 124.598   6
   0 -14   7-23.3252 127.072   2
   0 -14   7-151.507 164.802   7
   0  14   8-83.6824 138.505   6
   0 -14   8 246.349 137.985   1
   0 -14  -8 463.639 129.326   1
   0  14   8 120.459 106.950   2
   0 -14   8-19.7698 166.586   7
   0 -14  -8 47.7305 158.192   4
   0 -14  -8 354.321 129.600   7
   0  14   8 84.2266 332.306   3
   0 -14   9 796.403 182.893   1
   0 -14   9 1237.82 230.724   7
   0 -14  -9 945.199 113.346   1
   0 -14  -9 1032.10 148.787   7
   0 -14  -9 1020.80 223.985   4
   0  14   9 1636.66 204.693   6
   0 -14  -9 1089.49 123.221   1
   0  14   9 790.926 129.672   2
   0  14   9 1401.86 414.889   3
   0  14  10 1457.45 220.859   6
   0  14  10 975.964 400.704   3
   0 -14  10 1090.93 213.880   1
   0 -14  10 1527.79 256.640   7
   0 -14 -10 1108.88 94.8634   1
   0 -14 -10 1262.47 262.563   4
   0 -14  11 776.460 211.246   1
   0  14  11 622.366 198.055   6
   0 -14 -11 556.466 216.397   4
   0  14  11 539.680 430.214   3
   0 -14  11 286.271 220.082   7
   0 -14 -12 2573.69 320.372   4
   0 -14  12 2656.09 285.319   1
   0  14  12 2443.45 273.714   6
   0 -14  12 2640.41 324.305   7
   0  14  12 2185.38 499.646   3
   0 -14  13 317.234 198.169   1
   0 -14 -13 277.243 225.926   4
   0  14  13-133.121 438.064   3
   0 -14  13 553.660 260.607   7
   0  14  13 312.488 208.520   6
   0 -14 -14 1774.69 320.063   4
   0 -14  14 2293.02 334.207   7
   0  14  14 2176.28 590.476   3
   0 -14  14 1921.03 273.742   1
   0  14  14 2082.30 304.859   6
   0 -14  15 157.110 215.144   1
   0 -14  15 505.274 300.500   7
   0  14  15 801.687 536.979   3
   0 -14 -15 410.205 264.620   4
   0 -14 -16 1345.78 323.225   4
   0 -14  16 704.589 302.641   7
   0  14 -16 535.147 337.666   4
   0  14  16 844.053 583.797   3
   0 -15   0 73.9850 110.435   7
   0 -15   0 21.6042 117.197   6
   0 -15   0-103.990 126.589   2
   0 -15  -1 2367.62 195.421   6
   0  15   1 1992.57 284.221   3
   0 -15   1 1790.65 193.598   2
   0 -15   1 1902.27 182.014   6
   0 -15  -1 1860.63 193.946   2
   0 -15   1 2157.40 174.336   7
   0 -15   2 178.806 134.978   2
   0 -15   2 341.080 131.414   7
   0  15   2 541.872 253.976   3
   0 -15  -2 379.827 140.037   2
   0 -15  -2 157.605 112.017   6
   0  15   2 479.182 107.316   6
   0 -15   2 454.193 134.166   6
   0  15   3 107.931 262.118   3
   0 -15   3 240.781 131.229   2
   0 -15   3-19.1275 141.986   7
   0 -15  -3 242.782 124.100   6
   0 -15  -3 91.3197 121.825   2
   0  15   3 64.5733 94.6747   6
   0 -15   4 3264.70 239.122   7
   0  15   4 2940.38 372.498   3
   0 -15  -4 2816.12 208.285   2
   0 -15  -4 2544.24 195.490   6
   0  15   4 2658.21 178.648   6
   0 -15   4 2750.71 225.201   1
   0 -15   4 2805.35 221.670   2
   0  15   5 148.691 114.843   6
   0 -15  -5 139.068 157.999   4
   0 -15   5-28.2765 126.844   1
   0 -15  -5 169.027 124.501   6
   0  15   5 130.302 266.096   3
   0 -15  -5 25.5537 121.612   2
   0 -15   5 226.888 132.262   2
   0 -15  -5 76.0135 114.076   1
   0 -15   5-36.0149 153.879   7
   0 -15  -6 55.4845 151.949   4
   0 -15   6-11.3129 135.337   2
   0  15   6-232.021 307.642   3
   0 -15   6 107.990 154.297   7
   0 -15  -6 120.129 117.454   1
   0 -15   6 167.878 135.492   1
   0 -15  -6 147.245 118.975   6
   0  15   6 107.877 114.285   6
   0  15   7 333.758 315.722   3
   0 -15  -7 129.553 118.817   1
   0  15   7-274.177 139.322   6
   0 -15  -7-17.5321 153.840   4
   0 -15   7-15.1330 165.021   7
   0 -15  -7 54.2888 126.850   6
   0 -15   7 35.9633 138.057   1
   0 -15  -8 32.5722 159.514   4
   0  15   8 140.684 144.328   6
   0 -15  -8 65.5966 116.338   1
   0  15   8-508.225 381.317   3
   0 -15  -8 101.767 115.028   7
   0 -15   8-165.199 177.832   7
   0  15   8-53.5566 104.289   2
   0 -15   8-142.678 159.632   1
   0 -15   9 162.643 166.118   1
   0 -15   9 74.3728 188.610   7
   0  15   9-216.570 356.999   3
   0 -15  -9 690.529 211.715   4
   0 -15  -9 176.673 112.926   1
   0  15   9 338.625 156.604   6
   0  15  10 352.442 176.029   6
   0 -15  10 349.091 177.434   1
   0 -15  10 332.151 211.214   7
   0  15  10 513.208 404.629   3
   0 -15 -10 416.454 216.289   4
   0  15  11 1790.76 487.601   3
   0  15  11 1655.96 243.738   6
   0 -15 -11 1757.42 296.702   4
   0 -15  11 1865.13 282.485   7
   0 -15  11 1514.57 247.608   1
   0 -15  12 854.057 216.801   1
   0 -15 -12 911.175 262.000   4
   0  15  12 237.694 416.634   3
   0  15  12 780.771 220.276   6
   0 -15  12 544.246 232.474   7
   0 -15 -13 46.0830 229.695   4
   0 -15  13 58.5616 202.503   1
   0 -15  13 343.714 243.764   7
   0  15  13 913.507 534.742   3
   0  15  13 344.528 215.925   6
   0 -15 -14 226.336 257.153   4
   0 -15  14 484.684 265.902   7
   0  15  14-300.079 479.594   3
   0 -15  14 327.816 217.376   1
   0  15  15 398.201 543.944   3
   0 -15  15 440.810 293.667   7
   0 -15 -15 220.694 264.911   4
   0 -15  15 228.325 224.764   1
   0 -15  16 292.389 307.793   7
   0  15 -16-232.179 318.932   4
   0 -15 -16 238.718 271.122   4
   0  15  16 40.5658 573.092   3
   0 -16   0 26.5562 131.769   2
   0 -16   0-79.0622 119.347   7
   0 -16   0-74.1275 121.323   6
   0 -16   1 193.542 129.079   6
   0 -16  -1 407.926 131.175   6
   0  16   1 141.124 216.892   3
   0 -16  -1 264.764 140.870   2
   0 -16   1 254.986 125.493   7
   0 -16   1 373.042 149.839   2
   0 -16  -2-20.6695 134.691   2
   0 -16  -2-102.795 126.067   6
   0 -16   2-108.057 132.782   2
   0 -16   2-25.6068 126.024   7
   0  16   2-196.209 96.2536   6
   0  16   2 223.056 234.393   3
   0  16   3 830.419 288.206   3
   0 -16  -3 1265.32 164.503   6
   0 -16   3 1016.88 176.497   2
   0 -16   3 1617.46 194.052   7
   0  16   3 1117.53 135.195   6
   0 -16  -3 1182.44 176.625   2
   0 -16  -4 198.945 121.157   1
   0 -16  -4-47.4275 117.801   6
   0  16   4 174.679 101.635   6
   0 -16   4-215.384 148.309   1
   0  16   4-16.8306 269.230   3
   0 -16   4 112.617 133.920   2
   0 -16   4-39.4758 143.667   7
   0 -16  -4 105.346 134.052   2
   0 -16  -5 116.619 136.253   2
   0 -16   5 326.624 153.123   2
   0  16   5 117.533 279.195   3
   0 -16   5 211.196 139.535   1
   0 -16  -5 160.421 124.799   1
   0 -16  -5 81.1806 123.633   6
   0 -16   5 174.235 148.707   7
   0  16   5 117.672 108.549   6
   0 -16   6 370.315 153.935   1
   0 -16  -6 735.685 147.002   1
   0 -16  -6 686.517 145.652   6
   0  16   6 676.764 347.616   3
   0 -16  -6 754.156 195.548   4
   0  16   6 527.036 139.195   6
   0 -16   6 693.630 183.080   7
   0 -16   6 559.499 165.193   2
   0 -16   7-187.506 152.521   1
   0 -16  -7 219.011 133.827   1
   0 -16  -7 301.927 166.209   4
   0  16   7 62.9870 128.816   6
   0 -16  -7 263.563 135.223   6
   0 -16   7 320.639 185.737   7
   0  16   7 287.449 346.421   3
   0  16   8-120.167 139.659   6
   0 -16   8 32.1978 176.952   7
   0 -16  -8-90.6339 127.493   1
   0 -16   8 163.848 159.906   1
   0 -16  -8 107.196 175.157   4
   0  16   8 398.963 352.822   3
   0 -16   9 102.513 196.458   7
   0  16   9-231.289 368.714   3
   0 -16   9-112.358 169.525   1
   0 -16  -9 51.1933 118.828   1
   0  16   9 431.883 170.643   6
   0 -16  -9 52.5263 177.427   4
   0 -16  10 502.304 196.687   1
   0  16  10 206.502 171.791   6
   0 -16 -10-7.63627 187.650   4
   0 -16  10 339.590 218.065   7
   0  16  10-101.617 381.845   3
   0  16  11 470.559 399.305   3
   0 -16  11 113.431 190.555   1
   0 -16 -11 6.87793 191.977   4
   0 -16  11-119.499 231.190   7
   0  16  11-231.452 184.106   6
   0 -16  12-184.769 195.750   1
   0 -16 -12-197.606 221.468   4
   0  16  12-360.481 430.952   3
   0  16  12-14.5830 195.967   6
   0 -16  12 167.285 231.730   7
   0 -16  13 1085.46 260.069   1
   0 -16 -13 1180.02 284.203   4
   0  16  13 842.128 503.753   3
   0 -16  13 1381.51 300.239   7
   0 -16 -14 231.321 255.915   4
   0 -16  14-228.186 262.187   7
   0 -16  14-80.0658 200.388   1
   0  16  14 417.530 493.233   3
   0 -16  15 38.3462 228.901   1
   0 -16 -15 809.771 301.639   4
   0  16  15 735.229 540.729   3
   0 -16  15 430.402 302.140   7
   0 -17   0 160.074 126.412   7
   0 -17   0 108.117 141.223   2
   0 -17   0-64.5170 128.934   6
   0 -17  -1 92.2459 134.810   2
   0 -17   1 163.786 144.207   2
   0 -17  -1 105.551 135.561   6
   0  17   1-9.53952 214.317   3
   0 -17   1 40.6693 125.117   7
   0 -17   2 102.008 134.582   1
   0 -17   2 211.076 141.355   7
   0 -17  -2 18.3480 139.985   2
   0 -17  -2 53.9260 124.374   6
   0  17   2 131.708 226.324   3
   0 -17   2 292.126 148.773   2
   0  17   3 4335.69 441.025   3
   0 -17  -3 5280.17 274.257   1
   0 -17  -3 4654.95 263.149   6
   0 -17  -3 4414.07 271.187   2
   0 -17   3 4433.15 278.204   2
   0 -17   3 5473.45 299.217   7
   0  17   3 4030.88 219.839   6
   0 -17   3 4939.08 292.757   1
   0 -17   4 1891.96 208.835   1
   0 -17  -4 1763.27 189.307   1
   0 -17  -4 1534.38 195.412   2
   0 -17   4 1991.34 211.102   7
   0 -17  -4 1695.82 184.111   6
   0 -17   4 1289.60 191.460   2
   0  17   4 1419.80 156.968   6
   0  17   4 1110.30 348.160   3
   0  17   5 2452.90 391.004   3
   0 -17  -5 2779.48 215.203   1
   0 -17  -5 2472.49 210.740   6
   0 -17   5 2365.71 230.540   2
   0 -17  -5 2163.48 224.894   2
   0  17   5 2512.65 186.554   6
   0 -17   5 3166.72 260.453   7
   0 -17   5 2929.27 251.596   1
   0 -17   6 276.705 174.488   7
   0 -17   6 451.489 166.245   2
   0 -17  -6 142.541 175.173   4
   0 -17  -6 53.7219 133.510   1
   0 -17  -6 461.211 145.450   6
   0 -17   6 72.1970 145.567   1
   0  17   6 317.044 129.528   6
   0  17   6-22.0119 326.685   3
   0 -17   7 93.1275 156.715   1
   0  17   7 165.184 139.540   6
   0  17   7-48.0784 328.643   3
   0 -17   7 373.484 183.677   7
   0 -17  -7-149.320 178.703   4
   0 -17  -7 192.093 146.065   1
   0  17   8 1192.59 407.713   3
   0  17   8 854.206 174.591   6
   0 -17   8 669.790 206.736   7
   0 -17  -8 561.247 162.025   1
   0 -17  -8 853.306 213.064   4
   0 -17   8 686.351 193.235   1
   0 -17   9 1379.15 258.404   7
   0 -17  -9 1147.49 243.836   4
   0 -17  -9 1124.16 167.737   1
   0  17   9 1178.43 198.829   6
   0  17   9 1562.54 451.596   3
   0 -17   9 930.297 212.177   1
   0 -17  10 646.013 237.167   7
   0 -17  10 226.789 188.578   1
   0 -17 -10-65.2538 200.187   4
   0  17  10 101.287 385.666   3
   0  17  10 37.5795 168.420   6
   0 -17  11 685.774 229.803   1
   0 -17  11 973.820 263.739   7
   0  17  11 607.740 199.511   6
   0  17  11 919.619 435.374   3
   0 -17 -11 802.660 254.746   4
   0 -17  12-39.3114 239.309   7
   0 -17 -12 650.922 266.310   4
   0  17  12 284.577 435.104   3
   0 -17  12-105.043 195.473   1
   0 -17  13 1018.53 308.594   7
   0  17  13 354.498 465.453   3
   0 -17 -13 610.876 261.476   4
   0 -17  13 1152.63 273.158   1
   0 -17 -14 183.592 245.504   4
   0  17  14 492.245 518.659   3
   0 -17  14-122.297 270.905   7
   0 -17  14 178.651 229.844   1
   0  17  15 301.733 507.974   3
   0 -17  15 948.469 320.276   7
   0 -17  15 194.641 224.963   1
   0 -17 -15 1145.02 315.480   4
   0 -18   0 10512.8 340.425   7
   0 -18   0 10977.0 402.908   1
   0 -18   0 10299.0 407.340   2
   0 -18  -1 112.585 135.812   1
   0 -18  -1 25.0142 141.818   6
   0 -18   1-122.289 149.201   2
   0 -18  -1-121.848 128.064   7
   0 -18   1 205.003 151.351   1
   0 -18  -1-46.1564 142.383   2
   0 -18   1 81.3204 134.132   7
   0 -18  -2 3605.68 264.877   2
   0 -18  -2 3935.25 257.223   1
   0  18   2 3414.36 372.930   3
   0 -18   2 4038.85 259.223   7
   0 -18  -2 3159.01 230.041   6
   0 -18   2 3874.62 266.971   1
   0 -18   2 3780.01 274.859   2
   0 -18  -3 93.2911 149.126   2
   0  18   3 348.411 270.615   3
   0  18   3 333.447 111.424   6
   0 -18   3 549.375 170.075   1
   0 -18   3 272.420 161.999   7
   0 -18   3 275.303 160.459   2
   0 -18  -3 339.807 143.057   6
   0 -18  -3 398.192 152.769   1
   0 -18  -4 2427.49 215.110   6
   0 -18   4 2982.60 255.607   7
   0  18   4 2419.64 413.799   3
   0  18   4 2597.86 186.690   6
   0 -18   4 2360.12 238.187   2
   0 -18  -4 2857.06 225.991   1
   0 -18  -4 2657.38 241.523   2
   0 -18   4 2495.11 236.372   1
   0 -18   5 937.486 199.141   7
   0 -18   5 891.841 193.296   2
   0 -18  -5 1208.75 182.684   1
   0  18   5 1078.83 360.012   3
   0  18   5 810.314 142.655   6
   0 -18  -5 1021.07 175.197   6
   0 -18   5 1170.43 200.191   1
   0  18   6-215.665 316.917   3
   0 -18   6 42.2974 167.662   7
   0  18   6 29.8011 118.318   6
   0 -18   6-138.618 160.915   1
   0 -18  -6 15.8979 138.972   1
   0 -18   7-58.9920 180.519   7
   0  18   7 11.6819 130.396   6
   0  18   7 150.215 334.363   3
   0 -18  -7 37.5607 145.659   1
   0 -18   7-73.4291 164.265   1
   0 -18  -7 178.768 188.515   4
   0 -18  -8 2802.34 325.053   4
   0 -18   8 2637.97 289.094   7
   0 -18   8 2350.28 270.541   1
   0  18   8 2887.98 488.728   3
   0 -18  -8 2322.11 227.013   1
   0  18   8 2312.53 220.998   6
   0 -18   9 9.19989 201.538   7
   0 -18   9 106.325 187.155   1
   0 -18  -9-30.8059 189.735   4
   0  18   9 162.755 157.331   6
   0  18   9 238.786 420.984   3
   0 -18  -9 60.0341 138.697   1
   0 -18  10 1040.43 251.480   7
   0  18  10 827.429 192.536   6
   0 -18 -10 668.323 243.338   4
   0 -18  10 942.708 229.913   1
   0  18  10 724.101 411.515   3
   0 -18  11 261.437 210.423   1
   0 -18 -11 196.442 207.965   4
   0  18  11 42.8048 421.377   3
   0 -18  11 344.884 240.864   7
   0 -18  12 828.045 269.037   7
   0 -18  12 824.853 258.174   1
   0 -18 -12 802.443 262.173   4
   0  18  12 536.256 474.680   3
   0 -18  13 414.823 273.224   7
   0 -18  13 5.23351 225.798   1
   0 -18 -13 728.650 280.290   4
   0  18  13 264.301 454.794   3
   0 -18  14 235.018 236.603   1
   0 -18  14 619.352 288.314   7
   0  18  14 404.666 476.093   3
   0 -18 -14 436.037 273.181   4
   0 -19   0 87.9396 147.974   1
   0 -19   0-176.323 132.069   7
   0 -19  -1 3875.71 227.662   7
   0 -19  -1 3324.24 263.786   2
   0 -19   1 3924.43 247.793   7
   0 -19   1 3861.71 274.342   1
   0 -19   1 3526.20 276.135   2
   0 -19  -1 3670.70 262.086   1
   0 -19  -2 461.842 161.818   6
   0 -19  -2 547.126 159.237   1
   0 -19  -2 166.058 157.188   2
   0  19   2 186.759 232.012   3
   0 -19   2 561.240 161.364   7
   0 -19   2-121.200 155.620   2
   0 -19   2 362.086 162.915   1
   0 -19  -3 244.076 149.068   1
   0 -19   3 309.014 167.380   2
   0 -19  -3 461.118 150.764   6
   0 -19   3 746.614 188.435   7
   0 -19   3 343.777 162.414   1
   0  19   3 776.252 333.309   3
   0 -19  -3 221.824 160.891   2
   0 -19   4-142.184 165.601   2
   0  19   4-69.9633 307.467   3
   0 -19  -4 116.253 150.431   1
   0 -19   4 102.117 159.069   7
   0 -19   4 21.9394 158.802   1
   0  19   4-66.8461 108.952   6
   0 -19  -4 326.676 150.359   6
   0 -19   5 4692.31 320.586   2
   0 -19  -5 6392.80 329.853   1
   0  19   5 5975.97 268.615   6
   0 -19   5 5754.28 345.390   1
   0  19   5 5579.55 536.220   3
   0 -19   5 6042.15 347.542   7
   0  19   6 2376.83 196.816   6
   0 -19   6 2388.43 267.661   1
   0 -19  -6 2533.60 240.705   1
   0  19   6 2129.32 418.268   3
   0 -19   6 2315.83 266.191   7
   0 -19   7 11.5388 178.870   7
   0  19   7 45.6615 346.911   3
   0  19   7 338.390 143.031   6
   0 -19  -7 300.027 155.173   1
   0 -19   7 486.493 190.776   1
   0 -19  -8-98.8405 217.597   4
   0 -19  -8 267.096 169.492   1
   0 -19   8 79.6279 176.657   1
   0  19   8-359.841 367.904   3
   0  19   8-141.491 144.944   6
   0 -19   8-186.387 211.496   7
   0 -19  -9 1463.06 288.603   4
   0  19   9 894.205 186.222   6
   0  19   9 1240.96 452.998   3
   0 -19   9 1299.11 270.048   7
   0 -19   9 756.382 232.620   1
   0 -19  10 179.363 206.155   1
   0 -19  10-127.715 218.280   7
   0 -19 -10 234.380 212.734   4
   0  19  10 389.397 423.072   3
   0  19  11 1741.36 527.587   3
   0 -19  11 2222.29 323.840   7
   0 -19 -11 2080.11 337.734   4
   0 -19  11 1706.71 293.635   1
   0  19  12-496.127 483.531   3
   0 -19  12-291.088 257.917   7
   0 -19 -12 579.853 262.001   4
   0 -19  12-283.515 239.466   1
   0 -19 -13 1833.73 333.669   4
   0 -19  13 1292.61 334.278   7
   0  19  13 858.987 506.908   3
   0 -19  13 1314.32 282.341   1
   0 -19 -14 950.751 319.641   4
   0 -19  14 124.187 275.405   7
   0  19  14 458.921 503.228   3
   0 -19  14 462.749 260.056   1
   0 -20   0 966.030 201.373   2
   0 -20   0 1281.48 202.656   1
   0 -20   0 1033.15 173.408   7
   0 -20   1 487.368 165.923   7
   0 -20  -1 900.954 195.941   2
   0 -20   1 953.467 186.800   1
   0 -20  -1 1027.07 167.840   7
   0 -20  -1 840.209 185.271   1
   0 -20   1 853.906 206.740   2
   0 -20   2 3708.60 286.758   1
   0 -20  -2 3476.37 290.137   2
   0 -20   2 3819.03 269.091   7
   0 -20   2 3181.09 273.041   2
   0 -20  -2 3687.30 278.218   1
   0 -20  -2 3825.23 232.433   7
   0  20   2 3397.84 402.268   3
   0 -20   3 2413.24 254.236   1
   0  20   3 1922.89 372.209   3
   0 -20   3 2603.53 239.221   7
   0 -20  -3 2474.33 246.852   1
   0 -20   3 2136.87 242.181   2
   0 -20  -3 2084.24 249.089   2
   0  20   4 10460.3 662.477   3
   0  20   4 10971.3 349.064   6
   0 -20   4 10232.0 438.922   1
   0 -20   4 11399.2 435.002   7
   0 -20  -4 11451.6 431.672   1
   0 -20   5 195.980 181.185   1
   0 -20   5 160.514 179.302   7
   0 -20  -5 119.052 160.793   1
   0  20   5-103.037 343.577   3
   0  20   5-149.145 118.049   6
   0 -20   6 240.279 185.720   1
   0  20   6 487.526 140.449   6
   0  20   6 946.761 396.492   3
   0 -20  -6 467.510 183.292   1
   0 -20   6 611.227 200.948   7
   0 -20   7 2969.83 289.258   7
   0  20   7 2575.35 447.440   3
   0  20   7 3103.59 229.758   6
   0 -20   7 2653.98 297.953   1
   0 -20  -7 3509.63 282.142   1
   0 -20   8 587.201 215.921   1
   0 -20   8 599.628 230.257   7
   0  20   8 1095.61 405.684   3
   0 -20  -8 873.286 196.750   1
   0 -20   9 449.559 223.816   1
   0 -20   9 335.114 215.994   7
   0 -20  -9 615.623 261.395   4
   0  20   9-163.965 387.431   3
   0 -20  10 1195.96 274.397   7
   0 -20  10 349.949 235.811   1
   0 -20 -10 501.614 269.013   4
   0  20  10 221.210 423.819   3
   0 -20  11 309.352 244.414   1
   0 -20  11 1004.41 275.288   7
   0 -20 -11 638.883 273.760   4
   0  20  11 923.885 475.157   3
   0 -20 -12 840.769 286.023   4
   0 -20  12 880.377 303.100   7
   0 -20  12 540.278 253.476   1
   0  20  13 432.075 495.365   3
   0 -20  13 690.466 298.813   7
   0 -20  13 856.940 284.496   1
   0 -20 -13 365.650 262.463   4
   0 -21   0 216.766 174.833   1
   0 -21   0-222.647 170.461   2
   0 -21   0 194.544 152.774   7
   0 -21   1 613.700 182.279   1
   0 -21  -1 834.787 168.384   7
   0 -21   1 389.158 165.055   7
   0 -21   1 735.724 206.660   2
   0 -21  -1 893.794 203.967   1
   0 -21  -1 675.612 187.575   2
   0 -21   2 1255.52 223.187   1
   0 -21   2 1232.61 227.104   2
   0 -21   2 1360.36 208.870   7
   0 -21  -2 1248.70 174.205   7
   0 -21  -2 1490.19 225.833   1
   0 -21  -2 1040.09 218.929   2
   0 -21  -3 1200.87 164.307   7
   0 -21   3 1166.05 213.264   7
   0 -21   3 1293.34 223.645   1
   0  21   3 684.995 293.025   3
   0 -21   3 903.702 205.281   2
   0 -21  -3 902.691 190.543   1
   0 -21   4 841.051 211.791   1
   0 -21  -4 996.211 203.270   1
   0 -21   4 1009.06 215.562   7
   0  21   5 3329.63 490.538   3
   0 -21   5 3366.37 298.320   7
   0  21   5 3406.82 218.614   6
   0 -21   5 3416.71 319.547   1
   0 -21  -5 3409.04 282.335   1
   0  21   6-126.956 368.885   3
   0 -21   6-176.172 195.333   1
   0 -21   6 223.497 187.458   7
   0  21   6-35.0155 120.595   6
   0 -21  -6 184.120 172.830   1
   0  21   7 543.171 399.975   3
   0 -21   7 504.946 223.242   7
   0 -21  -7 216.110 177.820   1
   0 -21   7 351.733 203.207   1
   0 -21   8 4.46246 208.031   1
   0 -21  -8 804.381 207.400   1
   0  21   8-33.9362 362.796   3
   0 -21   8 342.433 226.033   7
   0  21   9 750.878 426.643   3
   0 -21   9 1195.64 275.174   7
   0 -21   9 850.068 240.444   1
   0 -21  10 729.717 261.638   7
   0  21  10 738.667 459.442   3
   0 -21  10 919.094 257.226   1
   0  21  11 743.359 507.584   3
   0 -21 -11 512.246 287.506   4
   0 -21  11 438.646 247.596   1
   0 -21  11 186.120 244.463   7
   0  21  12-322.052 463.162   3
   0 -21  12 254.329 258.811   1
   0 -21  12-154.871 269.645   7
   0 -21 -12-92.7942 288.149   4
   0 -21  13 258.566 295.341   7
   0 -21 -13 181.817 257.670   4
   0 -21  13 269.850 243.906   1
   0  21  13 335.475 508.738   3
   0 -22   0 395.790 169.583   7
   0 -22   0 63.6451 177.516   1
   0 -22   1 2646.13 245.832   7
   0 -22   1 2333.15 270.067   1
   0 -22  -1 2995.51 231.608   7
   0 -22  -1 2665.99 276.621   1
   0 -22   2 280.266 187.009   7
   0 -22  -2 367.749 144.298   7
   0 -22   2 136.468 175.338   1
   0 -22  -2 163.379 175.247   1
   0 -22   3 2412.06 275.116   1
   0 -22  -3 2158.70 199.574   7
   0  22   3 1912.81 369.260   3
   0 -22  -3 2613.33 270.680   1
   0 -22   3 2245.33 249.210   7
   0 -22   4-169.733 189.191   7
   0 -22   4 441.172 205.787   1
   0 -22  -4 336.068 196.642   1
   0  22   4 170.174 315.077   3
   0  22   5 197.978 127.115   6
   0 -22   5 35.0231 188.247   7
   0 -22   5 180.649 195.595   1
   0  22   5-12.4457 329.310   3
   0 -22  -5 218.529 182.249   1
   0  22   6-239.546 382.750   3
   0 -22   6-44.5521 190.005   1
   0 -22   6-241.765 195.121   7
   0 -22  -6 143.026 191.417   1
   0 -22   7 1405.23 258.716   1
   0 -22  -7 1739.79 250.361   1
   0 -22   7 1489.30 260.694   7
   0  22   7 2336.39 516.943   3
   0 -22   8-74.9660 219.054   7
   0 -22   8 304.099 222.758   1
   0  22   8 25.5281 388.590   3
   0 -22  -8 963.854 232.431   1
   0 -22   9 667.361 260.300   7
   0 -22   9 377.090 226.509   1
   0  22   9 480.618 417.275   3
   0  22  10 637.545 465.176   3
   0 -22  10 374.988 236.269   1
   0 -22  10 366.964 257.960   7
   0 -22  11 137.878 232.960   1
   0  22  11 211.560 445.946   3
   0 -22  11 508.181 275.569   7
   0 -22  12 222.184 283.087   7
   0 -22 -12 518.728 301.842   4
   0  22  12 278.984 492.117   3
   0 -22  12-117.877 272.212   1
   0 -23   0-25.7553 167.295   7
   0 -23   0-81.5218 181.216   1
   0 -23   1 688.906 213.127   1
   0 -23   1 744.478 210.122   7
   0 -23  -1 694.245 175.808   7
   0 -23  -1 782.672 227.476   1
   0 -23   2 1143.99 234.648   1
   0 -23   2 1277.10 215.715   7
   0 -23  -2 1930.27 204.275   7
   0 -23  -2 1464.14 243.525   1
   0 -23  -3 1197.12 239.012   1
   0 -23  -3 1572.83 197.517   7
   0 -23   3 1298.84 242.852   1
   0  23   3 849.655 324.117   3
   0 -23   3 1552.84 225.179   7
   0 -23  -4-173.289 196.495   1
   0 -23  -4 594.829 147.099   7
   0 -23   4 273.839 188.367   7
   0 -23   4-67.7731 204.718   1
   0  23   4-33.0384 291.869   3
   0  23   5 1541.33 408.287   3
   0 -23   5 1793.72 266.621   7
   0 -23  -5 2682.86 287.301   1
   0 -23   5 1753.53 278.791   1
   0 -23   6-224.320 213.109   1
   0  23   6 335.458 377.509   3
   0 -23  -6 4.98361 187.042   1
   0 -23   6-84.3390 200.118   7
   0 -23   7 56.7504 216.427   7
   0  23   7-6.17740 401.701   3
   0 -23   7-457.339 229.360   1
   0 -23  -7-165.641 208.942   1
   0 -23   8 602.564 250.225   7
   0 -23   8-114.831 214.878   1
   0  23   8 171.830 415.856   3
   0 -23   9 452.685 249.111   1
   0 -23   9 377.364 251.171   7
   0  23   9 204.814 431.071   3
   0 -23  10 57.9982 238.682   1
   0 -23  10-6.52708 241.611   7
   0  23  10 702.739 472.174   3
   0  23  11 1598.75 546.573   3
   0 -23  11 1243.62 317.640   7
   0 -23  11 505.022 258.652   1
   0 -24   0 1360.74 250.406   1
   0 -24   0 1935.74 234.419   7
   0 -24  -1 49.8010 163.847   7
   0 -24   1 30.7422 170.204   7
   0 -24  -1 201.100 197.903   1
   0 -24   1 68.3723 198.618   1
   0 -24   2 2083.93 252.097   7
   0 -24   2 2014.04 283.181   1
   0 -24  -2 2017.68 213.436   7
   0 -24  -2 2341.67 298.076   1
   0 -24  -3-143.144 214.333   1
   0 -24   3-94.7908 206.299   1
   0 -24   3 206.537 190.108   7
   0 -24  -4 502.857 213.854   1
   0  24   4 108.204 307.317   3
   0 -24   4 116.286 190.578   7
   0 -24   4 366.634 214.343   1
   0  24   5-375.132 352.035   3
   0 -24   5 481.377 242.804   1
   0 -24   5 354.377 213.204   7
   0 -24  -5 78.8142 207.614   1
   0 -24   6 8.14807 211.691   7
   0 -24  -6 527.287 230.903   1
   0  24   6-46.2121 358.211   3
   0 -24   6 826.586 269.505   1
   0  24   7 369.751 423.514   3
   0 -24   7 287.943 218.549   7
   0 -24   7 539.690 245.631   1
   0 -24  -7 147.134 205.718   1
   0  24   8-146.635 406.767   3
   0 -24   8-239.416 238.498   7
   0 -24   8 191.664 233.416   1
   0  24   9-164.185 468.064   3
   0 -24   9-251.405 260.506   1
   0 -24   9 260.391 249.789   7
   0 -24  10 1907.56 326.304   7
   0 -24  10 1060.92 289.507   1
   0  24  10 1478.93 509.393   3
   0 -24  11-373.577 277.074   1
   0 -24  11 339.712 267.431   7
   0  24  11 991.638 534.067   3
   0 -25   0 180.934 173.755   7
   0 -25   0 106.341 208.524   1
   0 -25  -1 885.427 248.281   1
   0 -25   1 1003.67 249.394   1
   0 -25   1 781.510 204.411   7
   0 -25  -1 639.568 200.029   7
   0 -25  -2 218.789 215.538   1
   0 -25   2 178.162 205.917   1
   0 -25   2-298.185 196.080   7
   0 -25   3 1570.50 299.573   1
   0 -25   3 1989.77 262.009   7
   0 -25  -3 2088.87 303.294   1
   0  25   4 277.297 309.932   3
   0 -25   4-104.259 227.148   1
   0 -25   4-46.7275 194.348   7
   0 -25  -4-30.9240 224.274   1
   0  25   5-158.923 334.812   3
   0 -25   5 77.2745 235.500   1
   0 -25   5-43.0025 203.148   7
   0 -25  -5-345.063 236.334   1
   0 -25   6-495.388 239.159   7
   0 -25  -6-278.746 219.879   1
   0  25   6-165.761 374.858   3
   0 -25   6 126.869 240.881   1
   0 -25   7 1167.60 274.921   7
   0 -25   7 536.219 257.933   1
   0  25   7 974.308 450.689   3
   0  25   8 390.783 427.995   3
   0 -25   8 272.343 238.612   7
   0 -25   8 131.460 245.660   1
   0 -25   9 339.647 261.790   1
   0 -25   9 378.984 267.534   7
   0  25   9 476.400 479.143   3
   0  25  10 1340.61 524.769   3
   0 -25  10 515.330 291.585   1
   0 -25  10 917.856 306.119   7
   0 -26   0 3063.00 271.346   7
   0 -26   0 2739.36 336.218   1
   0 -26   1 119.746 225.827   1
   0 -26  -1 172.511 217.391   1
   0 -26   1 185.340 190.421   7
   0 -26  -2 340.037 223.397   1
   0 -26   2 497.351 208.366   7
   0 -26   2 429.356 235.358   1
   0 -26   3-188.832 233.836   1
   0 -26   3-284.247 214.912   7
   0 -26  -4 1508.70 288.080   1
   0 -26   4 1312.40 263.624   7
   0 -26   4 927.341 281.842   1
   0 -26   5-332.153 218.119   7
   0 -26  -5-68.4344 223.353   1
   0  26   5-86.8249 336.224   3
   0 -26   5 169.582 251.963   1
   0 -26   6 706.060 235.238   7
   0 -26  -6 500.202 242.024   1
   0  26   6 10.6707 366.568   3
   0 -26   6-102.040 240.837   1
   0 -26   7-119.269 252.166   7
   0  26   7-73.4727 388.438   3
   0 -26   8-15.3799 263.501   1
   0 -26   8 502.803 266.914   7
   0  26   8 882.156 464.031   3
   0 -26   9-184.820 259.447   7
   0 -26   9-94.7980 258.393   1
   0  26   9-24.0344 454.794   3
   0 -27   0-380.053 244.038   1
   0 -27   1 156.972 252.950   1
   0 -27   1 193.478 187.486   7
   0 -27  -1 509.128 250.835   1
   0 -27   2 996.362 229.420   7
   0 -27  -2 211.807 239.240   1
   0 -27   2 521.559 281.131   1
   0 -27   3 2696.36 374.082   1
   0 -27   3 2418.33 283.901   7
   0 -27  -3 2158.85 326.719   1
   0 -27  -4 34.4917 233.650   1
   0 -27   4 109.913 216.849   7
   0 -27   4 114.977 258.340   1
   0  27   5 328.079 356.030   3
   0 -27   5-281.280 283.703   1
   0 -27   5 73.6067 223.063   7
   0 -27  -5 173.027 242.919   1
   0 -27   6 545.259 288.711   1
   0 -27  -6 204.056 252.826   1
   0  27   6-540.512 387.258   3
   0 -27   6-387.298 253.538   7
   0  27   7-95.8500 374.122   3
   0 -27   7-10.8079 260.730   1
   0 -27   7-406.175 262.759   7
   0 -28   0 776.396 269.186   1
   0 -28  -1 189.126 253.844   1
   0 -28   1-413.718 270.102   1
   0 -28  -2 706.536 275.086   1
   0 -28   2 50.0849 205.913   7
   0 -28   2 524.838 281.430   1
   0 -28   3-434.637 255.232   1
   0 -28   3 403.763 218.408   7
   0 -28  -4 390.324 271.773   1
   0 -28   4 634.908 246.108   7
   0 -28   4 131.783 276.234   1
   0 -28   5 448.715 290.405   1
   0 -28  -5 244.129 267.684   1
   0 -28   5 244.962 238.280   7
   0 -28   6-142.836 247.441   7
   0 -28   6 546.560 309.916   1
   0  28   6-270.136 351.959   3
   0 -29   0-65.8813 274.873   1
   0 -29   1 859.549 307.020   1
   0 -29  -1 1186.55 315.704   1
   0 -29  -2-295.170 269.218   1
   0 -29   2 105.847 267.998   1
   0 -29  -3-144.976 281.046   1
   0 -29   3 193.852 278.801   1
   0 -29   4-132.920 276.638   1
   0 -29  -4 290.156 269.282   1
   0 -29   4 594.689 268.721   7
  -1   0  18-489.229 261.150   7
  -1   0  18 600.336 540.895   3
  -1   0  17 97.3673 238.761   7
  -1   0  17 463.808 515.466   3
  -1   0  16-517.819 528.279   3
  -1   0  16 102.356 219.601   7
   1   0 -16-237.429 218.621   4
  -1   0  15 630.155 442.310   3
   1   0 -15 401.956 219.423   4
  -1   0  15 561.193 221.101   7
   1   0 -14-174.550 182.218   4
  -1   0  14-100.436 193.285   7
  -1   0  14 244.690 421.505   3
  -1   0  13 1739.43 107.342   1
   1   0 -13 1568.31 228.560   4
  -1   0  13 1639.95 233.851   7
  -1   0  13 1147.59 443.597   3
  -1   0  12-195.217 337.782   3
   1   0 -12-145.624 151.296   4
  -1   0  12 107.854 71.0167   1
  -1   0  12 17.7292 98.0568   1
  -1   0  12-47.2522 161.995   7
   1   0 -11 4266.83 277.980   4
  -1   0  11 4892.22 113.245   2
  -1   0  11 4512.00 194.757   1
  -1   0  11 4759.50 270.284   7
  -1   0  11 4189.31 505.143   3
  -1   0  10-7.72045 97.4680   1
  -1   0  10 90.0584 297.790   3
   1   0 -10 110.814 125.850   4
  -1   0  10 21.7482 41.8498   2
  -1   0  10 56.7583 129.140   7
  -1   0   9 2770.52 384.692   3
  -1   0   9 2894.46 164.312   1
   1   0  -9 2986.52 205.033   4
  -1   0   9 2913.59 94.1242   2
  -1   0   9 3009.45 201.192   7
  -1   0   8 11.0571 108.268   7
  -1   0   8 174.551 251.183   3
   1   0  -8-50.3409 101.699   4
  -1   0   8-94.7669 57.8304   2
  -1   0   8-45.7776 98.5769   1
  -1   0   7 4404.09 197.982   7
   1   0  -7 3945.14 190.368   4
  -1   0   7 4144.36 387.087   3
  -1   0   7 4299.04 186.961   1
  -1   0   7 4083.58 131.902   2
  -1   0   6 1.24159 98.8974   1
   1   0  -6 84.0655 82.4173   4
  -1   0   6-9.88619 230.901   3
  -1   0   6 82.7937 77.1067   2
  -1   0   6 82.3229 94.0873   7
  -1   0   5 946.344 249.700   3
   1   0  -5 899.717 84.0036   4
  -1   0   5 842.333 97.9649   7
  -1   0   5 951.814 122.954   1
  -1   0   5 964.174 109.628   2
  -1   0   4 39.0155 200.554   3
  -1   0   4 3.27029 76.5150   6
  -1   0   4 13.5844 108.350   1
  -1   0   4 49.1144 100.981   2
  -1   0   3-236.528 191.368   3
   1   0  -3-73.2705 97.1465   1
  -1   0   3-100.024 106.450   1
  -1   0   3 234.101 91.5614   6
  -1   0   3-183.401 114.418   5
   1   0  -2-81.1199 110.488   1
  -1   0   2 51.3276 143.904   3
  -1   0   2-149.408 89.5405   6
  -1   0   2-183.217 88.2229   5
   1   0  -2-88.5359 88.2495   6
   1   0  -2-121.166 157.571   3
  -1   0   2-180.591 108.101   1
  -1   0   1 5289.81 205.190   3
  -1   0   1 5280.11 180.069   6
   1   0  -1 5378.63 215.448   1
  -1   0   1 4797.93 205.359   1
   1   0  -1 5565.74 184.753   6
   1   0  -1 5714.91 223.363   3
  -1   0   0 149.120 110.116   6
   1   0   0 24.3071 103.184   3
  -1   0   0 216.518 96.6112   3
  -1   0   0 161.056 125.247   1
   1   0   0 156.401 130.937   1
   1   0   0 200.939 112.473   6
  -1   0  -1 57145.9 606.296   1
  -1   0  -1 57301.3 597.584   6
   1   0   1 57138.5 593.755   6
   1   0   1 55919.2 602.164   1
   1   0   2 142.109 133.851   6
  -1   0  -2-14.3213 142.741   4
   1   0   2-219.386 128.712   1
  -1   0  -2 58.6304 114.797   6
  -1   0  -2-170.054 131.012   1
   1   0   3 955.856 148.187   1
  -1   0  -3 704.512 146.545   1
  -1   0  -3 769.640 173.734   4
  -1   0  -3 892.206 140.416   5
  -1   0  -3 911.196 150.032   6
   1   0   3 898.326 155.555   6
  -1   0  -4-114.177 134.914   5
  -1   0  -4 231.250 174.787   4
   1   0   4 211.299 143.025   6
  -1   0  -4-0.02206 117.759   1
   1   0   4 73.8182 133.201   1
  -1   0  -4-19.8256 131.462   7
  -1   0  -5 1551.43 181.251   7
  -1   0  -5 1723.02 224.105   4
   1   0   5 1835.18 173.647   1
  -1   0  -5 1619.71 186.142   5
  -1   0  -5 2096.26 168.795   1
   1   0   5 1636.92 191.644   6
  -1   0  -6 71.6529 115.110   1
  -1   0  -6-124.632 137.769   7
  -1   0  -6-96.2134 157.235   5
  -1   0  -6-113.251 185.153   4
   1   0   6 65.1984 122.098   1
   1   0   6 87.1259 141.960   6
   1   0   7 16919.7 397.332   1
  -1   0  -7 18146.9 365.772   1
  -1   0  -7 16206.0 502.295   5
  -1   0  -7 17048.6 582.231   4
   1   0   7 17458.8 504.185   6
  -1   0  -8-21.5646 98.4055   1
  -1   0  -8-195.804 181.122   4
   1   0   8 141.376 158.886   6
   1   0   8 36.8535 121.935   1
  -1   0  -8-23.3079 166.170   5
  -1   0  -9 11826.1 500.008   5
   1   0   9 12089.1 469.230   6
   1   0   9 11516.9 348.205   1
  -1   0  -9 12419.2 566.475   4
  -1   0  -9 11225.5 293.218   1
   1   0  10-10.1431 127.768   1
  -1   0 -10-202.627 202.539   5
  -1   0 -10-53.8933 91.7386   1
  -1   0 -10-62.3501 199.158   4
   1   0  10 296.279 167.356   6
  -1   0 -10 72.8530 73.9766   2
   1   0  11 2003.66 269.899   6
   1   0  11 2072.71 191.001   1
  -1   0 -11 1380.76 99.6348   2
  -1   0 -11 1556.29 290.876   4
  -1   0 -12 42.7032 87.1700   2
   1   0  12-89.3795 142.224   1
   1   0  12-42.3050 200.451   6
  -1   0 -12 37.7124 233.008   4
  -1   0 -13 440.198 291.196   4
   1   0  13 1060.25 183.875   1
   1   0  13 772.850 271.308   6
   1   0  14 212.287 411.649   3
   1   0  14-9.53821 249.915   6
  -1   0 -14-414.890 287.210   4
   1   0  15-32.9892 419.459   3
   1   0  15-189.108 258.140   6
  -1   0 -15-422.511 298.385   4
   1   0  16-371.980 289.360   6
  -1   0 -16 476.849 323.054   4
   1   0  16 782.081 476.083   3
   1   0  17 817.189 311.648   6
  -1   0 -17 276.355 304.910   4
   1   0  17 1339.00 550.267   3
  -1   1  18 638.187 295.550   6
  -1   1  18-125.767 551.492   3
  -1  -1  18 656.019 298.152   7
  -1   1  18 540.562 292.882   7
  -1  -1  17 292.582 254.370   7
  -1  -1  17-174.882 471.732   3
  -1   1  17-208.572 249.625   7
  -1   1  17 225.603 508.558   3
  -1   1  16 533.052 500.774   3
  -1   1  16-35.5933 218.604   7
  -1  -1  16 695.802 496.481   3
   1  -1 -16 115.420 215.867   4
   1   1 -16 60.3682 203.418   4
  -1  -1  16 219.255 244.523   7
   1   1 -15 307.159 215.068   4
  -1  -1  15 22.8630 211.467   7
  -1   1  15 307.720 222.398   7
   1  -1 -15 91.2851 185.079   4
  -1   1  15 969.293 466.229   3
  -1  -1  15-559.589 446.852   3
  -1   1  14 1813.28 494.725   3
  -1   1  14 2323.66 260.431   7
   1   1 -14 1954.86 260.919   4
   1  -1 -14 2166.65 268.819   4
  -1  -1  14 2303.26 264.005   7
  -1  -1  14 2224.04 500.532   3
   1  -1 -13-3.20591 161.391   4
  -1  -1  13-14.6089 171.994   7
  -1   1  13 94.2437 162.149   7
  -1  -1  13 39.9822 86.4461   1
   1   1 -13-136.143 170.997   4
  -1  -1  13-46.3079 356.972   3
  -1   1  13-398.301 375.849   3
   1   1 -12 6257.47 346.112   4
  -1  -1  12 8225.87 214.346   1
   1  -1 -12 6321.78 352.444   4
  -1   1  12 7688.06 645.457   3
  -1  -1  12 6916.91 634.167   3
  -1   1  12 7035.15 160.627   1
  -1   1  12 7281.55 333.006   7
  -1  -1  12 6577.06 249.770   1
  -1  -1  12 7700.11 356.636   7
  -1   1  12 6422.26 182.041   1
  -1   1  11 7642.60 324.365   7
   1   1 -11 6914.82 336.348   4
  -1   1  11 5812.40 562.409   3
  -1  -1  11 8609.91 162.498   2
  -1  -1  11 7779.45 332.678   7
  -1   1  11 7533.64 161.011   1
  -1  -1  11 6778.20 249.414   1
  -1  -1  11 7861.21 645.086   3
  -1   1  11 7357.33 208.388   1
   1  -1 -11 6745.41 344.068   4
  -1   1  10-38.2017 291.473   3
   1   1 -10 66.0674 205.402   5
  -1   1  10-2.17818 84.5200   1
  -1   1  10 66.0315 33.0510   2
   1  -1 -10-2.95705 122.241   4
  -1  -1  10-56.3047 99.9090   1
  -1  -1  10 104.273 53.4955   2
   1   1 -10 4.14217 124.262   4
  -1  -1  10-54.5235 144.040   7
  -1   1  10-95.9801 132.226   7
  -1   1   9 73.9318 112.805   7
  -1   1   9 77.1991 93.0087   1
   1  -1  -9 244.373 123.779   4
   1   1  -9 266.691 200.122   5
  -1   1   9 60.6090 40.6158   2
   1   1  -9 95.1788 117.086   4
  -1  -1   9 163.813 102.630   1
  -1  -1   9-103.646 123.404   7
  -1   1   9-240.692 284.469   3
  -1  -1   9 29.0880 49.0542   2
  -1   1   8 1142.01 121.842   1
  -1  -1   8 1333.42 83.2117   2
  -1   1   8 1128.10 75.5093   2
  -1   1   8 1197.62 133.957   7
  -1  -1   8 1121.98 142.632   7
   1  -1  -8 1098.65 144.231   4
  -1   1   8 1379.41 300.565   3
  -1  -1   8 1248.84 131.448   1
   1   1  -8 1232.14 146.951   4
   1   1  -8 1341.82 228.591   5
  -1  -1   7 84.8123 66.0127   2
  -1   1   7 424.599 265.770   3
  -1  -1   7-91.5178 110.548   7
   1   1  -7-17.5176 102.096   4
   1  -1  -7-8.23562 90.5633   4
  -1  -1   7 16.4776 98.0986   1
  -1   1   7-90.1784 103.230   1
  -1   1   7 24.5154 67.7825   2
   1   1  -7-88.3830 176.103   5
  -1   1   7 2.73899 89.1581   7
   1   1  -6 144.445 91.9033   4
  -1   1   6 263.819 100.012   4
  -1   1   6 272.852 161.753   5
   1   1  -6 236.250 168.184   5
  -1   1   6 414.658 243.432   3
   1  -1  -6 269.249 84.7246   4
  -1  -1   6 195.813 79.0002   2
  -1  -1   6 189.231 101.964   1
  -1   1   6 293.023 84.4169   2
  -1   1   6 59.3003 101.422   1
  -1   1   6 198.668 91.9482   7
  -1  -1   6 93.9101 93.1347   7
  -1   1   5 29833.5 387.559   2
  -1   1   5 29144.6 372.645   4
  -1  -1   5 28895.3 360.255   2
   1   1  -5 25667.3 328.094   4
   1   1  -5 28802.3 544.959   5
  -1   1   5 29527.8 545.978   5
  -1   1   5 30837.4 745.858   3
  -1  -1   5 29471.6 425.631   1
   1  -1  -5 28176.4 326.403   4
  -1  -1   5 31381.2 436.637   7
  -1   1   5 30398.2 381.579   7
  -1   1   5 31178.9 421.152   1
  -1   1   4 98.7222 78.5334   6
   1  -1  -4 190.891 94.0987   1
  -1  -1   4 225.222 82.5269   6
  -1   1   4-58.4050 198.346   3
  -1  -1   4 199.030 108.477   1
  -1   1   4 134.173 109.072   1
  -1   1   4 20.4125 128.015   5
  -1   1   4 170.808 66.1445   4
  -1  -1   4 241.979 106.260   2
   1   1  -4-100.819 137.430   5
   1  -1  -4 177.299 47.4927   4
   1   1  -3 68996.1 625.399   5
  -1   1   3 69814.6 537.803   6
  -1  -1   3 70282.4 609.320   6
  -1  -1   3 70090.6 612.847   2
   1  -1  -3 70829.2 608.318   1
   1  -1  -3 69538.3 910.277   3
  -1  -1   3 69298.0 626.169   1
  -1   1   3 71127.7 654.837   5
  -1   1   3 69672.4 927.501   3
  -1   1   3 72308.8 643.155   1
  -1   1   2 3349.66 138.812   6
   1  -1  -2 3427.32 133.920   6
  -1  -1   2 3192.51 199.093   3
  -1   1   2 2843.22 157.541   1
   1  -1  -2 3028.61 172.053   1
  -1  -1   2 3060.65 150.117   6
   1   1  -2 3072.02 134.334   5
  -1   1   2 2974.76 219.292   3
   1  -1  -2 3264.04 230.486   3
  -1  -1   2 2891.97 160.119   1
   1   1  -2 3587.08 159.943   6
  -1  -1   2 2905.77 161.842   2
   1   1  -2 3052.15 165.459   1
  -1  -1   1 293.624 116.297   3
   1   1  -1 366.733 80.6717   4
   1  -1  -1 376.824 98.4327   6
   1   1  -1 408.438 111.319   6
  -1  -1   1 429.452 111.321   6
  -1  -1   1 369.756 81.3762   4
  -1   1   1 523.243 144.611   3
  -1   1   1 302.245 87.7251   6
   1  -1  -1 430.474 138.884   1
  -1   1   1 366.249 133.517   1
  -1  -1   1 496.468 136.896   1
   1   1  -1 310.646 125.296   1
   1  -1  -1 309.845 152.958   3
   1   1   0 916.141 116.874   4
  -1  -1   0 749.450 145.772   1
  -1  -1   0 933.431 128.693   6
  -1   1   0 1026.57 123.517   6
   1   1   0 847.992 132.209   6
   1  -1   0 842.087 122.435   6
   1   1   0 990.051 148.344   1
   1  -1   0 1102.59 151.389   3
  -1   1   0 664.427 148.832   1
   1  -1   0 706.646 142.948   1
  -1   1   0 1138.75 134.123   3
  -1  -1   0 825.790 106.876   4
  -1  -1  -1 45.1240 111.323   4
  -1  -1  -1 81.7417 121.169   1
   1   1   1 44.9766 124.533   1
  -1  -1  -1-126.862 124.052   6
  -1   1  -1-75.6091 105.822   6
   1   1   1-60.3820 117.199   4
   1  -1   1-175.176 139.498   1
   1   1   1-62.0481 113.280   6
  -1   1  -1 98.9978 128.710   1
   1  -1   1 4.71886 107.337   3
   1  -1   1-78.3681 112.890   6
  -1  -1  -2 12319.5 302.872   1
  -1  -1  -2 13561.1 333.607   6
   1   1   2 13030.5 312.421   1
  -1   1  -2 13101.6 326.012   6
   1  -1   2 12430.5 318.617   6
  -1  -1  -2 14149.3 364.337   4
  -1   1  -2 13035.2 323.837   1
   1   1   2 13663.7 341.979   6
   1  -1   2 12287.3 321.628   1
  -1  -1  -3 8770.86 335.003   4
  -1  -1  -3 8102.14 260.704   1
  -1   1  -3 9164.46 288.456   7
  -1  -1  -3 9493.91 256.037   5
  -1   1  -3 8108.38 274.348   1
   1  -1   3 8101.34 268.345   1
  -1  -1  -3 8376.27 293.394   6
   1  -1   3 8258.35 288.156   6
   1   1   3 8781.51 299.441   6
  -1   1  -3 8382.13 294.922   6
   1   1   3 8515.75 268.719   1
  -1  -1  -4 928.728 137.676   1
  -1   1  -4 1266.41 206.876   4
   1  -1   4 1099.52 173.244   6
  -1   1  -4 1110.88 149.769   1
  -1  -1  -4 1194.37 197.272   4
  -1   1  -4 937.285 150.003   7
  -1  -1  -4 1044.44 160.805   6
   1  -1   4 1077.59 143.756   1
   1   1   4 1092.47 170.336   6
  -1  -1  -4 1318.56 158.996   5
   1   1   4 1039.55 138.833   1
  -1  -1  -4 881.993 159.753   7
  -1  -1  -5 6928.75 285.401   5
  -1  -1  -5 6489.61 279.469   7
   1  -1   5 6294.10 248.487   1
  -1  -1  -5 6784.85 349.941   4
  -1   1  -5 6612.54 252.096   1
   1  -1   5 5993.98 287.034   6
   1   1   5 6339.12 298.617   6
   1   1   5 6194.96 239.386   1
  -1   1  -5 6390.40 280.867   7
  -1  -1  -5 6771.10 242.700   1
  -1   1  -5 6434.74 358.123   4
  -1  -1  -6 20058.4 590.601   4
  -1  -1  -6 21988.6 405.976   1
  -1   1  -6 20017.3 521.881   5
  -1  -1  -6 21239.6 485.855   7
  -1   1  -6 21551.0 411.603   1
   1  -1   6 20188.0 424.492   1
  -1  -1  -6 20766.7 510.210   5
  -1   1  -6 21417.6 486.756   7
   1  -1   6 21659.3 534.667   6
   1   1   6 21575.7 524.999   6
  -1   1  -6 21037.5 629.532   4
   1  -1   7 10407.9 407.270   6
  -1  -1  -7 10090.6 399.493   5
  -1   1  -7 11966.9 317.548   1
  -1   1  -7 9985.62 409.909   5
  -1   1  -7 10451.6 472.116   4
  -1  -1  -7 10627.7 464.035   4
   1   1   7 10604.0 403.361   6
  -1  -1  -7 12090.2 302.129   1
   1  -1   7 9963.19 312.899   1
   1   1   7 9607.81 291.181   1
   1  -1   8 1239.32 206.537   6
  -1   1  -8 1482.80 141.590   1
   1   1   8 1224.38 202.331   6
  -1  -1  -8 1551.70 256.165   4
   1  -1   8 1523.58 170.738   1
  -1   1  -8 1166.01 218.665   5
  -1   1  -8 1380.21 251.261   4
  -1  -1  -8 1268.89 127.836   1
   1   1   8 1322.60 153.414   1
   1  -1   9 843.722 197.341   6
   1  -1   9 1102.11 162.065   1
  -1   1  -9 852.062 116.980   1
  -1  -1  -9 917.822 122.264   1
  -1  -1  -9 713.208 222.700   4
  -1   1  -9 889.458 215.694   5
  -1   1  -9 1130.74 245.057   4
   1   1   9 839.456 205.520   6
   1   1   9 743.647 135.514   1
  -1   1 -10 8595.65 507.366   4
   1  -1  10 8935.06 447.709   6
  -1   1 -10 8225.66 214.823   2
  -1  -1 -10 8613.24 504.666   4
   1   1  10 10387.4 466.784   6
   1  -1  10 8578.29 322.039   1
   1   1  10 9184.89 320.495   1
  -1  -1 -10 7395.90 236.616   1
  -1   1 -10 9066.16 476.038   5
  -1  -1 -11 44.9563 85.1623   2
  -1  -1 -11-5.87429 223.964   4
   1   1  11 208.266 140.142   1
  -1   1 -11-45.1608 77.3930   2
  -1   1 -11-309.311 235.714   5
  -1  -1 -11-65.8960 59.5880   2
   1  -1  11 94.9403 204.707   6
  -1   1 -11 8.73883 211.358   4
   1  -1  11 185.202 146.090   1
   1   1  11 265.138 206.580   6
   1   1  12 2792.78 317.399   6
  -1   1 -12 1969.74 346.727   4
   1   1  12 3548.28 496.464   3
   1  -1  12 2031.59 210.532   1
  -1  -1 -12 2384.63 351.066   4
   1   1  12 2416.63 207.506   1
   1  -1  12 2712.33 313.625   6
  -1   1 -12 2264.35 337.223   5
   1  -1  13-142.748 146.180   1
   1  -1  13 148.289 223.385   6
   1   1  13-18.6017 220.252   6
  -1   1 -13 19.2108 246.363   4
   1   1  13 83.9315 350.269   3
  -1  -1 -13-281.447 257.816   4
  -1   1 -14 250.670 284.069   4
   1  -1  14-48.9583 241.942   6
   1   1  14 258.379 374.021   3
   1   1  14-349.355 246.893   6
  -1  -1 -14 522.656 277.014   4
  -1   1 -15 28.8689 284.707   4
   1  -1  15 20.4368 243.291   6
   1   1  15-461.308 290.306   6
   1  -1  15-438.746 453.239   3
  -1  -1 -15-227.179 253.416   4
   1   1  15 664.566 435.920   3
   1   1  16 437.683 273.762   6
   1   1  16 875.382 473.403   3
  -1  -1 -16 201.725 297.436   4
  -1   1 -16 525.460 314.582   4
   1  -1  16 960.554 480.732   3
   1  -1  16 508.800 281.862   6
   1   1  17 973.680 541.777   3
   1  -1  17 552.601 491.042   3
  -1   1 -17-69.5820 309.472   4
  -1  -1 -17 194.070 292.460   4
   1  -1  17 5.08161 295.813   6
   1   1  17 507.253 293.557   6
  -1   2  18 2101.50 332.658   7
  -1   2  18 1910.57 661.725   3
  -1  -2  18 1572.75 309.026   7
  -1   2  18 2462.10 359.340   6
  -1  -2  18 2749.84 680.974   3
  -1   2  17 258.401 243.539   6
  -1   2  17 405.111 547.149   3
  -1  -2  17 28.6629 484.098   3
  -1   2  17-48.9384 232.833   7
  -1  -2  17-76.2499 244.944   7
   1  -2 -16 340.412 213.490   4
  -1   2  16 970.859 534.989   3
  -1  -2  16 534.257 498.913   3
  -1   2  16 332.249 216.840   7
   1   2 -16-165.596 202.845   4
  -1  -2  16 46.7807 224.239   7
  -1   2  15-143.089 209.583   7
  -1   2  15-271.641 447.590   3
   1  -2 -15 183.708 190.826   4
  -1  -2  15-13.3757 203.622   7
  -1  -2  15-723.108 457.967   3
   1   2 -15 186.364 202.448   4
  -1   2  14 2271.25 256.502   7
   1   2 -14 2346.57 277.954   4
  -1  -2  14 2914.96 562.542   3
  -1   2  14 2008.00 501.038   3
  -1  -2  14 2467.33 272.590   7
   1  -2 -14 2404.29 277.147   4
  -1  -2  13 302.865 101.650   1
  -1  -2  13 166.442 190.940   7
  -1   2  13 453.274 386.767   3
  -1  -2  13 448.143 408.089   3
   1  -2 -13 551.620 182.387   4
   1   2 -13 438.621 181.998   4
  -1   2  13 147.033 177.817   7
  -1  -2  12 52.5223 123.494   1
   1  -2 -12-11.0057 145.553   4
  -1   2  12-247.009 368.676   3
   1   2 -12 5.13129 157.219   4
  -1  -2  12 231.667 173.376   7
  -1   2  12 155.268 154.142   7
  -1  -2  12 38.8405 88.3894   1
   1   2 -12 88.9045 242.352   5
  -1   2  11 12716.2 393.699   7
   1   2 -11 12898.2 458.331   4
  -1  -2  11 14026.2 438.082   7
  -1   2  11 10911.7 159.910   1
  -1   2  11 12729.5 759.613   3
   1  -2 -11 11269.2 419.641   4
   1   2 -11 12651.1 574.237   5
   1  -2 -10 326.570 140.155   4
  -1   2  10 123.759 63.1432   1
  -1   2  10 121.184 25.9733   2
  -1   2  10 101.183 134.287   7
  -1  -2  10 275.288 62.7909   2
   1   2 -10-84.1495 144.232   4
   1   2 -10 344.858 226.672   5
  -1   2  10-234.091 314.994   3
  -1  -2  10 95.9054 138.975   7
   1   2  -9 3826.01 234.487   4
   1  -2  -9 3776.56 225.811   4
  -1   2   9 4052.14 430.510   3
  -1   2   9 3613.00 141.418   1
  -1   2   9 4199.72 208.629   7
   1   2  -9 3273.25 307.622   5
  -1  -2   9 4147.95 233.133   7
  -1  -2   9 4041.26 122.002   2
  -1   2   9 2805.35 92.9349   2
  -1   2   8 549.462 137.395   4
  -1   2   8 538.800 114.946   7
  -1   2   8 815.979 291.371   3
  -1   2   8 374.706 60.9656   2
  -1  -2   8 608.084 136.901   7
  -1  -2   8 460.712 68.9392   2
   1  -2  -8 320.579 111.629   4
  -1   2   8 408.803 86.3775   1
   1   2  -8 490.122 186.054   5
   1   2  -8 411.370 118.633   4
  -1   2   7 5786.94 440.787   3
   1   2  -7 5564.80 334.636   5
   1   2  -7 5740.71 229.680   4
   1   2  -7 6301.01 230.490   2
  -1   2   7 6356.65 211.490   7
  -1   2   7 5769.88 323.435   5
  -1   2   7 6589.79 196.101   1
  -1  -2   7 6447.68 167.002   2
   1  -2  -7 5705.22 223.016   4
  -1   2   7 6133.47 253.517   4
  -1   2   7 6373.32 169.205   2
  -1  -2   7 6757.74 263.043   7
  -1   2   6 5978.44 189.960   1
  -1  -2   6 6457.48 236.982   7
   1   2  -6 5026.51 308.941   5
  -1   2   6 5736.15 217.125   4
  -1  -2   6 5820.02 165.187   2
  -1   2   6 5851.85 187.995   7
  -1   2   6 6009.73 415.287   3
   1   2  -6 5485.90 200.198   4
  -1   2   6 6176.05 184.686   2
   1  -2  -6 5251.97 189.035   4
   1   2  -6 6074.85 220.406   2
  -1   2   6 5868.84 297.328   5
  -1   2   5 4462.90 173.972   4
  -1  -2   5 4699.23 163.476   2
  -1   2   5 4491.18 369.015   3
   1  -2  -5 4700.89 161.320   1
  -1   2   5 4781.95 179.424   1
   1   2  -5 4866.17 269.020   5
   1   2  -5 3849.05 154.712   4
   1   2  -5 4882.96 200.271   2
  -1   2   5 4245.56 250.897   5
   1  -2  -5 4087.10 143.054   4
  -1   2   5 4333.02 155.134   7
  -1   2   4 6717.70 392.208   3
  -1  -2   4 6461.96 191.338   2
  -1   2   4 6718.40 168.476   4
   1   2  -4 7204.06 235.394   2
   1  -2  -4 6587.17 145.966   4
  -1  -2   4 7000.19 221.677   6
   1  -2  -4 6430.35 357.312   3
   1  -2  -4 6943.36 206.928   1
  -1   2   4 7221.46 220.141   1
   1   2  -3 43486.7 522.632   2
  -1   2   3 44266.1 506.392   1
  -1   2   3 42525.3 343.364   4
   1  -2  -3 41986.6 486.541   1
  -1  -2   3 42619.0 475.329   2
  -1   2   3 42186.2 754.716   3
  -1  -2   3 43148.8 503.005   1
  -1   2   3 42562.9 392.587   6
  -1  -2   3 43959.6 513.980   6
   1  -2  -3 41118.6 723.187   3
   1  -2  -2 2524.98 111.199   6
  -1   2   2 2572.27 111.670   6
   1   2  -2 2478.13 173.646   2
  -1   2   2 2198.72 153.413   1
   1   2  -2 2787.71 155.018   6
  -1  -2   2 2677.04 166.225   1
  -1   2   2 2907.48 247.076   3
  -1  -2   2 2482.83 154.930   6
  -1  -2   2 2568.50 166.397   2
   1  -2  -2 2260.36 231.736   3
   1  -2  -2 2337.97 161.837   1
   1   2  -1 10926.5 270.293   6
  -1   2   1 8995.90 262.921   1
   1   2  -1 10921.4 214.778   4
   1   2  -1 10181.5 261.243   1
  -1  -2   1 10317.4 266.673   6
   1  -2  -1 9742.71 273.457   1
  -1   2   1 9600.78 199.228   6
  -1   2   1 10258.3 314.132   3
   1  -2  -1 10030.9 322.233   3
  -1  -2   1 10375.7 274.006   2
  -1  -2   1 9972.78 266.215   1
   1  -2  -1 11107.1 214.005   6
  -1  -2   1 9694.91 189.361   4
  -1  -2   0 42.0769 115.140   6
   1  -2   0 75.0906 146.618   3
  -1  -2   0 150.598 121.886   1
   1  -2   0-144.772 98.4508   6
  -1   2   0 102.609 138.872   3
   1   2   0-15.2699 89.3074   4
  -1  -2   0 118.173 91.0381   4
  -1   2   0 121.626 96.7731   6
   1  -2   0 154.184 141.043   1
   1   2   0 115.481 122.434   1
  -1   2   0-108.904 132.916   1
  -1  -2   0-62.0709 127.819   2
   1   2   0-12.5786 116.980   6
  -1  -2  -1 19122.5 355.702   1
  -1  -2  -1 19105.2 371.331   2
  -1   2  -1 18594.0 375.638   1
   1  -2   1 17478.2 364.250   1
  -1   2  -1 18622.1 336.116   6
   1  -2   1 19239.4 337.944   6
   1   2   1 20459.6 385.059   4
  -1  -2  -1 18645.6 372.119   6
   1  -2   1 19089.7 362.198   3
   1   2   1 18889.9 351.948   1
  -1  -2  -1 21150.1 384.828   4
   1   2   1 18690.9 379.516   6
  -1   2  -2 28653.6 473.945   1
  -1  -2  -2 27691.2 468.587   6
  -1   2  -2 28288.8 432.352   7
  -1  -2  -2 32113.9 541.235   4
   1   2   2 28850.8 442.012   1
   1   2   2 31247.4 357.511   5
   1  -2   2 26058.9 458.034   1
  -1  -2  -2 28127.6 439.318   1
   1   2   2 31634.8 523.890   4
   1   2   2 28166.6 368.506   3
  -1   2  -2 28567.2 452.179   6
   1   2   2 29697.5 488.711   6
   1  -2   2 28366.3 457.721   6
  -1   2  -3 2792.08 182.277   7
  -1  -2  -3 3205.70 229.244   4
   1  -2   3 2930.32 198.003   1
   1   2   3 3692.98 238.101   4
   1   2   3 3148.74 213.984   6
  -1  -2  -3 2723.27 173.205   1
   1  -2   3 2880.74 200.708   6
  -1  -2  -3 2771.01 190.511   6
   1   2   3 3311.40 175.875   5
  -1   2  -3 2710.52 190.731   1
   1   2   3 3251.33 191.955   1
  -1  -2  -4 6966.19 243.004   1
  -1   2  -4 6433.09 260.270   1
   1  -2   4 6670.52 292.500   6
  -1   2  -4 7104.44 271.498   7
  -1  -2  -4 7166.27 295.206   6
   1   2   4 6771.55 248.193   1
  -1  -2  -4 7240.70 338.682   4
   1   2   4 7112.32 296.679   6
   1  -2   4 7074.99 269.443   1
   1   2   4 6832.29 314.652   4
   1  -2   5 2166.80 187.824   1
  -1   2  -5 1864.80 187.388   7
  -1  -2  -5 2361.50 248.495   4
   1  -2   5 1972.01 208.118   7
  -1  -2  -5 2392.21 168.474   1
   1   2   5 1974.51 164.965   1
  -1   2  -5 2230.28 172.129   1
   1   2   5 2481.45 233.455   4
  -1  -2  -5 2163.71 208.998   6
  -1  -2  -5 2313.93 201.214   7
   1   2   5 2115.50 211.403   6
   1  -2   5 2087.69 200.744   6
   1   2   6 58.8252 116.997   1
  -1  -2  -6 141.739 173.943   4
  -1   2  -6 96.2607 113.952   1
  -1   2  -6 339.720 175.124   4
  -1  -2  -6-12.8444 108.807   1
  -1   2  -6 58.3606 136.701   7
   1  -2   6 209.886 135.259   1
  -1  -2  -6-49.3638 142.906   7
   1  -2   6 137.890 154.301   6
   1   2   6 100.765 152.558   6
   1  -2   6 272.766 167.192   7
   1   2   7 185.093 165.533   6
  -1  -2  -7 541.910 193.582   4
  -1   2  -7 327.701 197.061   4
   1  -2   7 104.918 146.832   6
   1  -2   7 259.516 129.416   1
  -1   2  -7 213.644 109.264   1
   1   2   7 269.862 118.353   1
   1  -2   7 328.769 171.641   7
  -1  -2  -7 289.496 110.323   1
   1  -2   8 16685.7 500.947   7
  -1   2  -8 16581.0 632.026   4
  -1   2  -8 17270.0 369.143   1
   1  -2   8 17261.4 545.917   6
  -1  -2  -8 17654.1 348.944   1
  -1  -2  -8 17512.4 624.408   4
   1  -2   8 16658.4 424.574   1
  -1  -2  -8 16358.0 335.572   2
   1   2   8 16860.9 384.067   1
   1   2   8 17634.1 536.910   6
  -1   2  -8 15832.0 551.249   5
   1   2   9 1728.07 230.852   6
   1  -2   9 1496.25 182.380   1
  -1   2  -9 1358.16 133.530   1
   1  -2   9 1636.63 227.219   7
  -1  -2  -9 1621.39 268.601   4
  -1  -2  -9 1209.86 128.454   2
   1   2   9 1362.26 153.610   1
  -1  -2  -9 1654.22 133.465   1
  -1   2  -9 1402.11 118.865   2
  -1   2  -9 1257.18 225.080   5
   1  -2   9 1509.41 227.159   6
  -1   2  -9 1684.62 280.281   4
  -1   2 -10 2291.89 294.061   5
   1   2  10 2075.24 178.374   1
   1   2  10 2337.55 258.539   6
   1  -2  10 2132.55 203.805   1
  -1  -2 -10 2367.98 318.023   4
  -1   2 -10 2101.59 139.571   2
  -1  -2 -10 2030.31 138.266   1
   1  -2  10 2137.93 267.947   6
   1   2  10 1991.09 369.930   3
   1  -2  10 1884.89 231.967   7
  -1  -2 -10 1352.42 117.034   2
  -1   2 -10 1811.34 295.505   4
   1   2  11 1384.65 244.138   6
  -1   2 -11 891.559 105.472   2
  -1  -2 -11 597.461 62.3488   2
  -1  -2 -11 734.226 247.502   4
  -1   2 -11 1516.15 287.041   5
  -1   2 -11 1220.71 287.237   4
   1  -2  11 1142.40 185.936   1
   1  -2  11 1124.28 231.891   6
   1   2  11 1057.19 358.220   3
  -1  -2 -11 571.768 78.7412   2
   1   2  11 1137.58 162.171   1
   1   2  12 263.533 214.366   6
   1  -2  12 543.324 176.757   1
  -1   2 -12 579.519 262.930   4
  -1  -2 -12 426.470 253.772   4
  -1   2 -12 410.134 258.911   5
   1  -2  12 242.938 224.176   6
   1   2  12 261.461 128.551   1
   1   2  12 616.064 349.288   3
  -1   2 -13 402.920 274.837   5
   1  -2  13 357.502 243.581   6
   1  -2  13-82.8018 160.146   1
   1   2  13 194.388 252.282   6
  -1  -2 -13 61.2877 233.046   4
   1   2  13-434.012 403.662   3
  -1   2 -13-59.6900 250.444   4
   1  -2  14-100.099 231.915   6
   1   2  14 29.6820 231.301   6
   1   2  14 184.787 382.102   3
  -1  -2 -14-6.72591 266.194   4
  -1   2 -14 276.535 278.766   4
   1   2  15 880.855 276.020   6
  -1   2 -15 1346.89 359.103   4
   1   2  15 91.1403 418.672   3
   1  -2  15 759.960 294.755   6
  -1  -2 -15 891.355 312.412   4
  -1   2 -16 389.945 304.759   4
  -1  -2 -16 729.504 335.166   4
   1  -2  16-59.1779 273.760   6
   1  -2  16 112.094 465.113   3
   1   2  16-125.782 270.098   6
   1   2  16-94.2954 453.434   3
   1  -2  17 50.9614 282.987   6
   1   2  17 799.519 527.523   3
  -1  -2 -17 312.163 308.318   4
  -1   2 -17 595.304 343.654   4
   1  -2  17 725.927 537.426   3
   1   2  17 233.963 293.057   6
  -1   3  18 1127.53 660.032   3
  -1  -3  18 573.292 570.820   3
  -1   3  18 1399.15 298.859   6
  -1  -3  18 59.0717 254.336   7
  -1   3  17 794.255 278.915   6
  -1  -3  17 980.034 287.848   7
  -1   3  17 739.949 245.200   7
  -1  -3  17 24.8237 482.703   3
  -1   3  17 1697.11 647.969   3
   1   3 -16-206.315 211.464   4
   1  -3 -16 395.972 221.096   4
  -1   3  16 158.846 221.232   6
  -1  -3  16 281.545 460.965   3
  -1  -3  16-461.528 223.957   7
  -1   3  16 277.303 234.337   7
  -1   3  16 155.212 484.459   3
  -1  -3  15 346.919 222.184   7
  -1  -3  15 651.470 471.958   3
   1   3 -15 179.701 195.981   4
   1  -3 -15 485.858 208.379   4
  -1   3  15 598.644 499.648   3
  -1   3  15 326.461 209.027   7
  -1   3  14 2002.22 492.852   3
   1  -3 -14 1458.61 244.038   4
   1   3 -14 2233.52 281.390   4
  -1   3  14 2134.21 254.725   7
  -1  -3  14 1840.02 258.511   7
  -1  -3  14 1673.51 478.710   3
  -1  -3  13 1215.58 217.205   7
  -1   3  13 959.981 441.797   3
   1  -3 -13 1141.77 224.353   4
   1   3 -13 839.940 296.233   5
   1   3 -13 1119.31 219.442   4
  -1   3  13 1395.92 216.948   7
  -1  -3  13 1332.11 134.353   1
   1   3 -12 870.334 204.917   4
  -1  -3  12 1185.22 100.631   2
  -1   3  12 933.941 403.041   3
   1   3 -12 1176.96 305.693   5
  -1   3  12 740.777 173.776   7
  -1  -3  12 1125.34 115.509   1
  -1  -3  12 880.765 187.415   7
   1  -3 -12 822.251 190.163   4
   1   3 -11 15866.9 511.946   4
  -1   3  11 17103.1 440.635   7
  -1   3  11 17664.2 875.405   3
   1  -3 -11 16245.8 503.315   4
   1   3 -11 16378.8 646.537   5
  -1  -3  11 18440.1 501.910   7
  -1   3  10 253.378 128.141   7
  -1  -3  10 159.539 137.349   7
   1   3 -10 326.487 151.370   4
  -1   3  10-120.378 320.431   3
  -1  -3  10 167.089 62.0034   2
   1  -3 -10 306.909 132.000   4
   1   3 -10 295.809 124.651   2
   1   3 -10 211.976 205.300   5
   1   3  -9 1127.72 143.908   2
  -1  -3   9 1075.70 158.312   7
   1  -3  -9 1148.92 161.760   4
  -1   3   9 1027.15 132.433   7
   1   3  -9 933.147 153.607   4
  -1   3   9 825.658 166.180   4
  -1  -3   9 1151.54 80.5928   2
  -1   3   9 425.849 292.628   3
   1   3  -9 713.956 211.977   5
  -1   3   9 626.250 51.7247   2
  -1   3   9 915.962 76.3397   1
  -1   3   8 2584.77 120.309   1
  -1  -3   8 3013.17 213.289   7
   1   3  -8 2426.66 265.312   5
   1   3  -8 2455.27 193.913   4
  -1   3   8 2347.09 192.406   4
  -1   3   8 2588.93 378.458   3
  -1   3   8 2467.47 103.230   2
  -1   3   8 2642.92 160.330   7
   1   3  -8 2740.05 175.506   2
  -1  -3   8 2558.84 109.513   2
   1  -3  -8 2332.06 178.419   4
  -1   3   7 8078.57 201.170   1
  -1   3   7 7387.60 218.470   7
  -1  -3   7 7454.53 176.906   2
  -1   3   7 7751.26 191.894   2
   1   3  -7 6835.39 270.814   4
   1   3  -7 7268.23 366.083   5
   1   3  -7 7845.96 254.988   2
  -1   3   7 7494.94 497.943   3
  -1   3   7 6569.97 348.806   5
   1  -3  -7 6436.59 236.602   4
  -1   3   7 7418.90 277.556   4
  -1  -3   7 8074.85 285.860   7
   1   3  -6 4823.80 203.488   2
  -1   3   6 4221.78 200.080   4
  -1  -3   6 5068.18 229.247   7
  -1  -3   6 4634.65 153.680   2
  -1   3   6 5015.78 175.210   1
  -1   3   6 4274.04 277.660   5
  -1   3   6 4481.89 160.190   7
   1  -3  -6 3735.19 168.141   4
  -1   3   6 4757.37 400.228   3
  -1   3   5 48114.2 489.131   1
  -1   3   5 42363.4 401.286   7
   1   3  -5 46472.8 552.170   2
   1  -3  -5 42485.0 455.528   4
   1  -3  -5 44652.2 452.663   1
  -1  -3   5 43987.9 445.127   2
   1  -3  -5 47451.7 917.578   3
  -1   3   5 43328.9 928.136   3
  -1   3   5 43542.9 504.124   4
  -1   3   4 72431.3 575.618   4
   1  -3  -4 68837.4 515.800   4
   1   3  -4 75875.1 687.920   2
  -1  -3   4 73989.5 600.145   2
  -1   3   4 80059.8 658.974   1
   1  -3  -4 74084.8 1060.55   3
  -1  -3   4 75339.0 733.986   6
   1  -3  -4 76226.7 628.713   1
  -1   3   4 74915.4 1098.72   3
   1   3  -3 2365.82 170.011   2
  -1   3   3 2001.07 99.9614   6
  -1   3   3 1838.39 103.231   4
  -1   3   3 1987.06 257.581   3
  -1  -3   3 1801.37 125.506   2
   1   3  -3 1917.14 77.2539   4
   1  -3  -3 1847.78 142.644   1
  -1  -3   3 1893.84 154.219   6
   1  -3  -3 1884.37 263.435   3
  -1   3   3 2223.45 150.928   1
   1  -3  -2 9501.11 159.524   6
   1   3  -2 9714.06 276.401   2
  -1   3   2 9530.16 263.678   1
   1  -3  -2 9424.75 270.699   1
  -1  -3   2 10438.1 166.876   4
  -1   3   2 9204.45 365.948   3
  -1  -3   2 9331.76 250.719   2
   1  -3  -2 9416.82 379.346   3
  -1  -3   2 10010.4 266.143   6
   1   3  -2 9915.39 268.451   6
  -1  -3   2 10079.6 263.939   1
   1   3  -2 9630.74 174.124   4
  -1   3   2 9862.41 172.121   6
  -1  -3   1 10635.7 273.943   6
  -1  -3   1 10535.4 201.318   4
  -1   3   1 9796.42 188.057   6
   1  -3  -1 10435.1 187.929   6
   1  -3  -1 10187.1 359.002   3
   1   3  -1 10054.9 283.674   2
  -1  -3   1 10370.1 271.392   2
  -1   3   1 9481.18 272.143   1
   1  -3  -1 9340.37 267.585   1
  -1   3   1 9465.73 333.896   3
   1   3  -1 10678.3 215.661   4
  -1  -3   1 10310.6 261.607   1
   1   3  -1 10181.6 278.900   6
   1  -3   0 18016.4 284.201   6
   1   3   0 19499.3 327.544   4
  -1   3   0 17667.7 372.171   1
   1   3   0 15321.9 339.484   6
  -1  -3   0 19412.4 322.256   4
   1  -3   0 17899.5 379.336   1
  -1  -3   0 18030.0 348.400   2
  -1   3   0 17962.1 405.388   3
   1  -3   0 16479.6 397.118   3
   1   3   0 17435.4 353.284   2
  -1  -3   0 18567.7 344.517   1
  -1   3   0 17076.7 286.550   6
  -1  -3   0 18124.7 361.121   6
   1   3   1 14.2466 124.993   6
  -1  -3  -1 189.598 127.778   2
   1  -3   1 66.5281 148.617   3
   1  -3   1 34.3473 96.0145   6
  -1  -3  -1 78.9719 123.942   6
   1  -3   1 237.990 138.712   1
   1   3   1 88.2371 112.156   4
  -1  -3  -1 87.4231 108.173   4
  -1  -3  -1 55.9285 124.907   1
  -1   3  -1 219.715 139.601   1
  -1   3  -1 138.730 102.709   6
   1   3   1 73.4762 111.375   1
  -1   3  -1 130.464 113.641   7
   1  -3   2 23225.3 410.038   6
  -1   3  -2 23140.2 437.971   1
  -1  -3  -2 24743.9 462.010   6
  -1  -3  -2 23236.2 397.297   2
   1   3   2 24327.0 395.176   1
   1   3   2 25342.8 477.816   4
  -1  -3  -2 24853.2 468.821   4
   1  -3   2 21809.2 436.579   1
  -1   3  -2 23323.5 390.749   7
  -1  -3  -2 22698.0 398.741   1
   1   3   2 23636.2 335.646   3
   1   3   2 24246.2 457.952   6
   1   3   3 2726.35 162.820   5
   1  -3   3 1808.19 174.827   6
  -1   3  -3 2276.54 175.131   7
   1   3   3 2208.05 189.201   3
  -1   3  -3 1860.91 169.082   1
  -1  -3  -3 2037.66 189.256   4
  -1  -3  -3 2142.09 161.297   1
   1   3   3 2391.26 200.208   4
   1   3   3 2127.96 153.634   1
   1   3   3 2052.39 185.595   6
  -1  -3  -3 2097.25 165.717   2
  -1  -3  -3 1990.83 186.370   6
   1  -3   3 2390.39 194.014   1
   1   3   4 995.651 168.391   4
  -1  -3  -4 1370.28 147.794   1
  -1  -3  -4 1356.63 195.873   4
  -1  -3  -4 1308.82 145.808   2
  -1   3  -4 1144.49 152.414   1
   1   3   4 1439.54 184.651   6
   1   3   4 1150.42 190.009   3
   1  -3   4 1351.05 177.905   7
   1   3   4 1260.92 149.695   5
  -1   3  -4 1610.36 174.543   7
   1   3   4 1463.15 142.220   1
   1  -3   4 1062.35 155.806   1
   1  -3   4 1259.69 174.008   6
  -1  -3  -4 1125.57 168.528   6
   1   3   5 799.115 168.794   6
  -1   3  -5 694.438 155.773   7
   1   3   5 734.057 197.418   3
  -1  -3  -5 1048.79 196.633   4
   1   3   5 786.404 184.737   4
  -1  -3  -5 591.254 155.020   7
  -1  -3  -5 896.877 132.209   1
   1  -3   5 612.951 147.127   1
  -1  -3  -5 527.602 124.732   2
   1   3   5 661.403 150.468   5
   1   3   5 561.029 124.582   1
  -1   3  -5 727.844 139.881   1
   1  -3   5 572.784 152.636   6
  -1  -3  -5 435.266 146.411   6
   1  -3   5 526.646 165.855   7
   1   3   6 779.529 178.417   4
  -1  -3  -6 934.012 131.433   2
   1  -3   6 1032.07 178.704   6
  -1   3  -6 1100.58 179.096   7
  -1   3  -6 911.833 136.026   1
   1   3   6 907.176 137.637   1
   1  -3   6 1081.36 192.291   7
   1   3   6 1088.31 247.677   3
  -1  -3  -6 1168.46 208.298   4
   1  -3   6 782.654 146.767   1
  -1  -3  -6 1065.16 130.863   1
  -1  -3  -6 1105.17 174.934   7
   1   3   6 1077.57 187.259   6
   1   3   7 2069.93 233.672   6
  -1  -3  -7 1962.38 145.678   2
  -1   3  -7 2047.30 157.066   1
   1   3   7 1687.07 161.676   1
   1  -3   7 1720.31 214.612   6
   1  -3   7 1986.63 219.683   7
  -1  -3  -7 2282.56 166.073   1
   1  -3   7 1897.72 183.317   1
   1   3   7 2135.22 296.674   3
  -1  -3  -7 1795.49 242.486   4
   1   3   8 1386.85 301.824   3
  -1  -3  -8 1524.07 135.668   1
  -1  -3  -8 1363.76 233.879   4
  -1   3  -8 1516.64 255.830   4
   1   3   8 1346.81 145.780   1
   1   3   8 1369.09 209.646   6
   1  -3   8 1390.69 210.665   7
  -1   3  -8 1404.39 138.308   1
  -1  -3  -8 1192.42 122.434   2
   1  -3   8 1459.31 178.576   1
   1  -3   8 1184.17 211.225   6
   1  -3   9 5372.80 337.933   6
   1  -3   9 5435.10 335.299   7
  -1  -3  -9 5882.42 398.797   4
   1   3   9 5921.14 237.668   1
  -1  -3  -9 4897.57 174.972   2
   1  -3   9 6263.66 293.413   1
  -1   3  -9 5823.55 388.143   5
   1   3   9 6182.20 355.433   6
  -1   3  -9 5622.28 422.845   4
  -1   3  -9 5846.44 201.233   2
   1   3   9 7346.64 516.503   3
  -1  -3  -9 6167.83 203.514   1
  -1   3  -9 5962.76 233.334   1
   1  -3  10-115.135 183.196   6
  -1  -3 -10 180.380 67.0208   2
   1   3  10 134.575 115.270   1
  -1   3 -10-22.8782 203.049   4
  -1  -3 -10 133.845 194.281   4
  -1  -3 -10 108.941 90.3267   1
   1  -3  10 345.912 186.323   7
   1   3  10 17.6674 286.271   3
  -1   3 -10 207.786 203.034   5
   1  -3  10 89.0836 144.107   1
  -1   3 -10 111.588 96.5231   2
   1   3  10-94.8943 182.841   6
  -1   3 -11 247.203 242.363   5
   1  -3  11 312.245 214.351   7
   1   3  11 433.069 116.866   1
  -1  -3 -11 198.269 43.2616   2
  -1   3 -11 370.308 244.626   4
  -1  -3 -11 345.300 208.503   4
  -1   3 -11 253.532 98.8536   2
   1   3  11 551.380 342.244   3
   1   3  11 921.374 237.443   6
   1  -3  11 603.856 170.530   1
   1  -3  11 720.677 220.512   6
  -1  -3 -11 49.8373 40.8708   2
   1  -3  12 584.484 228.256   6
  -1   3 -12 645.006 261.418   5
   1   3  12 770.214 231.887   6
  -1  -3 -12 551.438 244.089   4
  -1   3 -12 379.470 241.045   4
   1  -3  12 483.697 165.203   1
   1   3  12 621.635 114.322   1
   1  -3  12 489.206 235.258   7
   1   3  12 813.530 383.053   3
  -1   3 -13 71.9560 239.319   4
  -1  -3 -13 416.857 242.129   4
  -1   3 -13 271.140 261.709   5
   1   3  13 990.790 406.526   3
   1  -3  13 434.212 237.490   6
   1  -3  13 519.584 180.985   1
   1   3  13 395.655 235.320   6
   1   3  14 5286.38 614.276   3
  -1  -3 -14 3696.71 413.057   4
   1   3  14 3801.81 382.105   6
  -1   3 -14 3689.88 442.220   4
  -1   3 -14 4732.14 474.029   5
   1  -3  14 4081.14 412.261   6
   1  -3  15 1339.35 317.278   6
  -1  -3 -15 2359.39 370.258   4
  -1   3 -15 2488.86 418.408   4
   1   3  15 2535.18 573.132   3
   1   3  15 1834.37 335.567   6
   1   3  16 875.136 294.681   6
   1   3  16 956.008 528.355   3
  -1   3 -16 643.533 350.755   4
  -1  -3 -16 703.815 331.598   4
   1  -3  16 882.270 300.096   6
   1   3  17 535.784 290.533   6
   1   3  17 1125.06 553.445   3
  -1   3 -17 56.5134 318.778   4
  -1  -3 -17 916.770 340.653   4
   1  -3  17 276.099 516.239   3
   1  -3  17-563.937 335.507   6
  -1  -4  18 3212.39 373.660   7
  -1   4  18 2041.01 330.011   6
  -1  -4  18 3405.09 710.228   3
  -1   4  18 4412.00 804.668   3
  -1   4  17 1113.89 280.549   6
  -1  -4  17 594.927 260.610   7
  -1   4  17 1086.40 592.198   3
  -1  -4  17 1305.91 551.773   3
  -1  -4  16 2033.57 294.999   7
   1  -4 -16 1958.38 292.830   4
  -1   4  16 2025.05 592.386   3
  -1  -4  16 2547.49 612.825   3
   1   4 -16 1589.50 283.212   4
  -1   4  16 1441.25 253.350   7
  -1   4  16 1599.16 291.986   6
  -1   4  15 26.2151 211.502   6
   1   4 -15 13.0966 203.599   4
  -1  -4  15 27.0433 205.801   7
   1  -4 -15 262.282 192.384   4
  -1   4  15-18.7476 461.033   3
  -1   4  15 87.6451 210.460   7
  -1   4  14 461.172 448.550   3
  -1  -4  14 542.881 228.977   7
  -1  -4  14 874.664 151.303   1
   1  -4 -14 533.241 198.627   4
  -1   4  14 463.298 194.681   7
   1   4 -14 429.956 309.495   5
   1   4 -14 543.705 229.250   4
   1  -4 -13 571.322 179.891   4
  -1   4  13 506.840 176.837   7
   1   4 -13 492.913 192.731   4
  -1  -4  13 640.089 212.715   7
  -1   4  13 829.633 464.840   3
  -1  -4  13 701.751 118.604   1
   1   4 -13 411.236 276.682   5
  -1   4  12-155.182 364.372   3
   1   4 -12-32.0793 251.348   5
   1   4 -12 221.891 166.020   4
   1  -4 -12 128.997 152.170   4
  -1   4  12-160.286 147.715   7
  -1  -4  12-25.9559 162.116   7
  -1  -4  12-57.0530 88.3108   2
  -1  -4  11 2585.59 135.239   2
   1   4 -11 2004.44 189.275   2
   1  -4 -11 2139.95 222.970   4
  -1  -4  11 2295.53 225.491   7
  -1   4  11 2222.66 200.269   7
   1   4 -11 2425.12 317.887   5
  -1   4  11 2479.87 470.180   3
   1   4 -11 1894.15 233.006   4
  -1  -4  10 51.7295 66.5691   2
   1   4 -10 5.42168 206.161   5
   1   4 -10-64.5451 140.000   4
  -1   4  10-79.3782 145.185   4
  -1   4  10 138.887 117.970   7
   1   4 -10 38.9377 116.108   2
  -1  -4  10 23.0511 134.633   7
  -1   4  10-128.610 321.259   3
   1  -4 -10-186.146 142.188   4
  -1  -4   9 1181.71 90.5903   2
  -1   4   9 932.660 347.447   3
   1   4  -9 1108.88 170.074   4
  -1   4   9 1140.00 183.472   4
   1  -4  -9 860.788 141.077   4
   1   4  -9 1048.60 142.121   2
  -1   4   9 540.214 52.6913   2
  -1   4   9 1225.58 138.121   7
   1   4  -9 1124.14 244.756   5
  -1  -4   9 970.465 158.926   7
   1  -4  -8 8555.53 294.326   4
  -1  -4   8 10978.9 349.779   7
  -1   4   8 9100.48 176.336   1
  -1  -4   8 9620.33 200.461   2
  -1   4   8 9840.01 200.736   2
   1   4  -8 10103.2 292.313   2
  -1   4   8 9327.43 593.807   3
   1   4  -8 8871.69 331.755   4
  -1   4   8 9882.73 266.254   7
  -1   4   8 9082.61 344.713   4
  -1   4   7 1000.20 294.666   3
   1   4  -7 1440.46 147.997   2
  -1   4   7 1386.58 228.854   5
  -1   4   7 1198.05 98.1762   1
   1  -4  -7 1057.01 129.555   4
  -1   4   7 1098.58 108.265   7
  -1  -4   7 1225.46 160.098   7
  -1  -4   7 1129.47 86.1112   2
  -1   4   7 1051.02 152.304   4
   1  -4  -6 24048.3 739.573   3
  -1  -4   6 24973.3 457.441   7
  -1  -4   6 24627.6 336.036   2
   1   4  -6 24808.1 428.750   2
  -1   4   6 27473.9 361.249   1
  -1   4   6 23043.6 433.594   4
   1  -4  -6 21913.2 394.159   4
   1  -4  -6 23275.2 308.096   1
  -1   4   6 22748.1 314.161   7
  -1   4   6 24479.7 790.761   3
  -1  -4   5 110.526 107.154   6
  -1  -4   5 231.107 72.9974   2
  -1   4   5 266.860 97.4130   1
   1  -4  -5 362.581 101.989   1
   1  -4  -5 204.226 81.1223   4
  -1   4   5 207.768 93.3234   4
   1   4  -5 266.874 116.210   2
   1  -4  -5 38.9784 213.117   3
  -1   4   5 343.346 71.6868   7
  -1   4   5 346.320 243.499   3
  -1   4   4 4195.54 338.009   3
  -1   4   4 3444.67 154.526   4
  -1   4   4 3913.57 167.103   1
  -1  -4   4 3731.39 152.848   2
   1   4  -4 3945.19 194.944   2
  -1   4   4 3307.61 101.509   7
  -1  -4   4 3710.05 198.209   6
   1  -4  -4 4007.08 332.760   3
   1  -4  -4 3614.16 165.196   1
  -1  -4   3 1445.99 149.759   6
  -1  -4   3 1268.18 119.239   2
  -1   4   3 1289.57 127.992   1
  -1   4   3 1573.67 259.478   3
   1  -4  -3 1206.38 137.106   1
  -1   4   3 1140.84 103.128   4
   1   4  -3 1342.94 84.0242   4
  -1   4   3 1055.99 69.9567   6
   1  -4  -3 1072.73 233.452   3
   1   4  -3 1326.12 145.774   2
   1   4  -3 1219.64 139.047   6
   1  -4  -2 1482.13 235.459   3
  -1   4   2 1381.04 153.030   1
   1   4  -2 1350.59 144.756   2
   1  -4  -2 1116.88 57.5343   6
   1   4  -2 1441.97 148.725   6
   1  -4  -2 1304.86 154.667   1
  -1   4   2 1371.94 233.486   3
  -1  -4   2 1450.96 145.271   6
  -1  -4   2 1252.17 127.716   2
  -1   4   2 1104.54 63.5789   6
   1   4  -2 1403.46 94.2138   4
  -1   4   1 5832.00 238.133   1
   1  -4  -1 5829.40 241.835   1
  -1   4   1 5221.24 281.531   3
  -1  -4   1 6176.53 213.104   2
  -1  -4   1 6487.31 180.754   4
   1  -4  -1 5934.72 137.507   6
   1   4  -1 6421.44 187.899   4
   1   4  -1 5320.64 217.167   2
   1  -4  -1 5888.57 312.702   3
  -1   4   1 5496.04 136.040   6
   1   4  -1 5379.19 225.641   6
  -1  -4   1 5697.05 229.850   6
  -1  -4   0 858.471 126.685   1
   1  -4   0 777.859 97.9329   6
   1  -4   0 728.318 190.702   3
   1   4   0 1073.61 124.640   4
  -1  -4   0 933.587 132.029   2
  -1  -4   0 1010.13 142.455   6
   1  -4   0 844.086 154.773   1
  -1   4   0 857.883 181.293   3
  -1   4   0 951.273 112.872   7
   1   4   0 810.053 137.421   2
   1   4   0 699.299 140.324   6
  -1  -4   0 963.117 88.0349   3
  -1  -4   0 1024.98 118.967   4
  -1   4   0 840.609 151.886   1
  -1   4  -1 43122.6 571.354   1
  -1   4  -1 43708.6 485.042   7
  -1  -4  -1 44180.5 583.974   6
   1  -4   1 40814.8 577.374   1
   1  -4   1 44403.1 480.664   6
  -1  -4  -1 44381.9 528.677   1
   1   4   1 45790.8 577.430   4
   1  -4   1 40951.5 647.378   3
   1   4   1 42369.9 543.261   2
  -1  -4  -1 42000.8 383.980   3
  -1  -4  -1 45550.4 575.355   4
  -1  -4  -1 42886.1 520.553   2
   1   4   1 44992.8 602.803   6
  -1  -4  -2 30619.2 460.243   1
   1  -4   2 30467.6 461.636   7
   1   4   2 32924.1 558.626   4
  -1  -4  -2 31958.9 539.625   4
  -1   4  -2 30142.8 446.746   7
  -1  -4  -2 30766.3 519.195   6
   1  -4   2 29031.2 518.182   1
   1   4   2 30566.6 403.322   3
   1  -4   2 30118.6 461.047   6
  -1  -4  -2 30859.7 400.475   3
  -1  -4  -2 30196.5 438.846   2
  -1   4  -2 27704.0 475.432   1
   1   4   2 31734.1 533.872   6
   1   4   2 29156.2 459.028   2
  -1  -4  -3 3763.55 189.858   2
   1   4   3 3951.54 227.882   6
   1   4   3 4092.83 188.568   1
   1  -4   3 3681.78 212.987   6
   1   4   3 4423.36 247.625   4
   1  -4   3 3758.20 233.361   1
   1   4   3 3788.06 227.540   3
  -1   4  -3 3837.99 210.388   1
  -1  -4  -3 3948.10 195.415   1
   1  -4   3 3626.66 214.991   7
  -1  -4  -3 3865.49 227.947   6
  -1   4  -3 3716.53 202.394   7
  -1  -4  -3 4127.72 251.274   4
   1   4   4 6280.66 301.385   4
   1  -4   4 6267.38 273.394   1
   1   4   4 6899.02 258.964   5
   1   4   4 7166.57 306.587   6
   1   4   4 6168.95 220.006   1
  -1  -4  -4 5851.44 295.119   4
  -1   4  -4 6598.88 259.021   1
  -1   4  -4 5819.75 255.389   7
  -1  -4  -4 6291.74 233.817   1
   1  -4   4 5542.26 261.957   7
   1   4   4 6013.29 317.387   3
  -1  -4  -4 5667.81 273.643   6
  -1  -4  -4 6100.18 222.295   2
  -1  -4  -5 10062.9 399.560   4
  -1   4  -5 10367.1 317.788   1
   1   4   5 10753.2 346.870   5
   1  -4   5 9967.81 358.333   7
  -1  -4  -5 9691.62 271.617   2
  -1  -4  -5 10374.4 284.512   1
  -1   4  -5 11061.3 350.663   7
   1   4   5 9532.44 276.917   1
   1   4   5 11342.9 443.495   3
   1   4   5 11247.7 411.307   4
   1   4   5 11150.7 380.678   6
   1  -4   5 10394.0 346.109   1
  -1  -4  -5 10786.4 372.454   6
   1   4   6 6.11255 98.4865   1
  -1  -4  -6-51.1142 160.608   4
  -1   4  -6-29.5711 112.759   1
   1  -4   6 175.917 160.210   7
  -1  -4  -6-11.9629 106.108   1
  -1  -4  -6 110.493 101.511   2
   1   4   6 85.4880 152.801   6
   1  -4   6 163.371 141.037   1
   1   4   6 40.3865 142.755   5
  -1  -4  -6 256.521 152.435   6
   1   4   6-235.536 220.553   3
  -1  -4  -6 236.682 152.809   7
   1  -4   7 20308.6 531.613   7
  -1  -4  -7 19725.2 607.345   4
  -1  -4  -7 20594.9 384.822   1
  -1   4  -7 19658.3 413.315   1
   1  -4   7 19499.1 471.204   1
  -1  -4  -7 19865.8 336.758   2
   1   4   7 22548.1 709.930   3
   1   4   7 18426.1 374.251   1
   1   4   7 21127.3 554.724   6
   1   4   7 19486.1 542.321   5
  -1  -4  -7 21210.5 507.441   7
   1   4   8 5050.02 315.141   6
  -1  -4  -8 4692.39 341.107   4
   1  -4   8 4822.62 306.892   7
  -1  -4  -8 4615.04 170.149   2
  -1   4  -8 4747.20 209.226   1
  -1  -4  -8 5268.31 207.922   1
  -1   4  -8 4588.30 195.356   2
   1   4   8 5359.02 426.777   3
   1   4   8 4539.19 199.632   1
   1  -4   8 4726.39 263.169   1
  -1  -4  -9 386.086 105.031   1
   1   4   9 309.952 110.094   1
   1   4   9 330.344 267.333   3
  -1   4  -9 285.919 214.972   4
  -1   4  -9 440.176 110.173   2
   1  -4   9 170.431 145.661   1
  -1  -4  -9 496.994 204.648   4
  -1  -4  -9 154.260 69.9268   2
   1   4   9 442.801 198.658   6
   1  -4   9 482.744 186.623   7
   1  -4  10 1662.41 256.666   7
   1   4  10 1854.98 145.343   1
  -1  -4 -10 1738.94 125.656   1
  -1   4 -10 1506.68 274.500   5
  -1  -4 -10 1095.56 79.4484   2
   1  -4  10 2147.75 222.645   1
  -1  -4 -10 2186.32 302.422   4
  -1   4 -10 1465.96 130.062   2
  -1   4 -10 1604.20 296.813   4
   1  -4  10 1963.07 264.215   6
   1   4  10 2079.26 268.010   6
   1   4  10 1248.56 343.429   3
  -1   4 -11 106.984 104.757   2
  -1   4 -11-45.6732 237.870   5
  -1   4 -11-59.4761 221.221   4
   1   4  11 271.574 324.799   3
  -1  -4 -11 195.055 219.888   4
   1  -4  11 260.649 167.935   1
   1  -4  11 370.530 217.361   6
   1  -4  11 386.092 215.325   7
   1   4  11 167.505 192.183   6
  -1  -4 -11 72.3962 33.4606   2
  -1  -4 -11 70.0099 29.0622   2
  -1  -4 -11 9.67798 68.0324   1
   1   4  12 1922.20 293.952   6
  -1   4 -12 1765.16 314.516   5
  -1  -4 -12 2352.40 349.870   4
   1  -4  12 2265.73 292.372   7
   1  -4  12 2348.79 238.985   1
   1  -4  12 1898.29 297.932   6
   1   4  12 2581.26 451.393   3
  -1   4 -12 1130.26 301.749   4
  -1   4 -13 667.713 303.728   4
  -1   4 -13 728.525 279.785   5
  -1  -4 -13 605.311 251.827   4
   1   4  13 1033.58 413.841   3
   1   4  13 963.563 252.031   6
   1  -4  13 633.600 190.996   1
   1  -4  13 443.989 224.725   6
   1  -4  13 656.477 258.064   7
   1  -4  14 308.688 195.875   1
  -1   4 -14 58.3670 261.887   4
  -1  -4 -14-323.840 270.220   4
   1   4  14 541.509 261.593   6
   1   4  14 877.154 449.600   3
   1  -4  14 206.094 246.421   6
  -1   4 -14 223.418 288.243   5
   1  -4  15 215.138 260.804   6
  -1  -4 -15-95.4921 259.535   4
   1   4  15-404.236 477.389   3
  -1   4 -15 30.3736 276.865   4
   1   4  15-61.1568 263.854   6
  -1   4 -15 29.1502 303.120   5
   1  -4  16 26.5394 265.795   6
  -1  -4 -16 398.200 340.248   4
  -1   4 -16 1153.54 374.534   4
   1   4  16 54.5916 283.288   6
   1   4  16 797.925 483.453   3
   1  -4  17-120.270 292.424   6
  -1   4 -17 358.516 350.416   4
  -1  -4 -17 350.625 321.371   4
   1   4  17 464.822 315.230   6
  -1  -5  18 143.600 272.535   7
  -1  -5  18 35.7403 543.872   3
  -1   5  18 52.3168 250.580   6
  -1   5  18-616.183 647.538   3
  -1  -5  17-301.729 497.661   3
  -1  -5  17 85.0700 249.745   7
  -1   5  17-683.346 556.536   3
  -1   5  17 214.055 248.354   6
  -1   5  16 299.734 222.028   6
   1   5 -16 551.817 241.261   4
  -1  -5  16-188.758 237.703   7
   1  -5 -16 196.774 186.971   4
  -1   5  16 17.3248 509.464   3
   1   5 -15 5019.33 401.740   4
   1  -5 -15 4421.35 358.716   4
   1   5 -15 5343.75 502.349   5
  -1  -5  15 5762.10 392.505   7
  -1   5  15 5958.10 363.831   7
  -1   5  15 6206.07 406.273   6
  -1   5  15 5776.06 763.551   3
  -1   5  14-106.397 440.631   3
  -1  -5  14 111.153 200.258   7
   1   5 -14 280.556 304.417   5
   1   5 -14 136.116 195.036   4
   1  -5 -14 554.694 212.744   4
  -1  -5  14 160.445 126.648   1
  -1   5  14 236.365 189.102   6
  -1   5  14-50.1316 189.319   7
   1   5 -13 495.163 208.103   4
  -1  -5  13 661.644 215.996   7
   1   5 -13 490.725 290.042   5
  -1   5  13 349.083 176.383   7
   1  -5 -13 256.550 172.250   4
  -1   5  13 343.588 175.030   6
  -1  -5  13 681.231 127.689   1
  -1   5  12 7280.89 675.398   3
   1   5 -12 5923.77 294.296   2
   1  -5 -12 6630.39 365.668   4
   1   5 -12 6764.29 463.915   5
  -1  -5  12 8052.92 234.319   2
  -1   5  12 7363.54 332.371   7
  -1  -5  12 7295.60 373.448   7
   1   5 -12 6966.07 391.275   4
  -1   5  11-281.062 360.519   3
  -1  -5  11 143.529 161.855   7
   1   5 -11 96.3284 161.712   4
   1   5 -11 94.5821 139.806   2
   1   5 -11 82.0717 246.203   5
   1  -5 -11 186.642 143.183   4
  -1   5  11-85.1935 133.444   7
  -1  -5  11 25.5651 82.1875   2
   1  -5 -10 545.432 145.466   4
   1   5 -10 506.634 239.624   5
   1   5 -10 737.693 145.094   2
  -1   5  10 843.345 188.639   4
  -1  -5  10 753.927 95.7824   2
  -1   5  10 570.760 138.616   7
  -1  -5  10 847.617 169.780   7
   1   5 -10 748.169 164.999   4
  -1   5  10 602.725 347.561   3
  -1   5   9 2001.36 92.8152   2
  -1   5   9 2391.09 220.846   4
  -1   5   9 2664.91 400.363   3
  -1  -5   9 3223.73 137.815   2
  -1   5   9 1879.87 73.4346   2
  -1  -5   9 2821.82 218.478   7
   1  -5  -9 2149.19 188.999   4
   1   5  -9 3251.69 197.126   2
  -1   5   9 2624.77 173.669   7
  -1  -5   8 17825.5 456.442   7
   1   5  -8 16157.8 371.896   2
  -1   5   8 15356.5 452.989   4
  -1  -5   8 15383.1 264.269   2
  -1   5   8 13439.8 676.535   3
  -1   5   8 15571.8 315.939   7
   1  -5  -8 13551.3 375.406   4
  -1   5   7 1501.74 91.0574   1
   1   5  -7 1646.40 148.426   2
  -1   5   7 1426.78 164.973   4
  -1  -5   7 1662.82 102.447   2
   1  -5  -7 1497.01 148.843   4
  -1  -5   7 2018.68 184.108   7
  -1   5   7 1500.10 108.393   7
  -1   5   7 1778.21 345.848   3
   1  -5  -7 1251.52 85.9415   1
  -1   5   6 29211.8 339.571   7
  -1   5   6 29295.3 511.031   4
  -1  -5   6 29838.5 376.047   2
  -1   5   6 32232.3 378.074   1
  -1   5   6 28423.2 844.455   3
   1  -5  -6 29503.2 369.451   1
   1  -5  -6 28180.4 807.420   3
  -1  -5   6 30691.0 530.346   7
   1   5  -6 30789.1 477.116   2
   1  -5  -6 27658.0 459.120   4
   1  -5  -5 2068.10 139.268   4
  -1   5   5 1923.60 125.297   1
   1   5  -5 2054.76 153.089   2
   1  -5  -5 1545.11 126.829   1
   1  -5  -5 2031.69 303.697   3
  -1   5   5 1760.44 304.209   3
  -1   5   5 1750.45 89.2955   7
  -1   5   5 1914.14 151.226   4
  -1  -5   5 2196.08 173.532   6
  -1  -5   5 1983.19 125.250   2
  -1  -5   4 2113.86 130.994   2
   1   5  -4 2522.18 163.501   2
  -1   5   4 1611.32 128.654   4
   1  -5  -4 2389.13 163.674   1
  -1   5   4 1538.13 62.4183   7
  -1  -5   4 2287.53 181.088   6
  -1   5   4 1883.75 282.088   3
   1  -5  -4 2330.89 303.083   3
  -1   5   4 2097.83 137.352   1
   1   5  -3 5727.27 216.085   2
   1  -5  -3 5822.43 366.694   3
  -1  -5   3 5607.90 193.785   2
  -1   5   3 4943.79 188.805   4
   1  -5  -3 5536.10 224.591   1
  -1   5   3 5715.04 214.338   1
  -1   5   3 5683.68 367.544   3
  -1  -5   3 5848.83 237.865   6
   1   5  -3 5959.91 166.143   4
  -1  -5   2 9542.82 245.554   2
  -1   5   2 9365.05 274.762   1
   1  -5  -2 9277.78 286.357   1
   1   5  -2 9692.94 217.037   4
  -1  -5   2 9642.79 289.180   6
  -1   5   2 8345.42 384.474   3
   1   5  -2 9630.54 272.918   2
   1   5  -2 9326.63 291.944   6
   1  -5  -2 8382.08 400.182   3
   1   5  -1 656.786 129.834   6
   1  -5  -1 446.562 146.938   1
  -1  -5   1 577.857 133.079   6
   1   5  -1 488.411 101.638   4
   1  -5  -1 372.945 62.4070   6
  -1  -5   1 349.837 82.4379   4
   1   5  -1 506.442 122.346   2
   1  -5  -1 269.156 191.778   3
  -1   5   1 663.316 142.895   1
  -1   5   1 386.775 200.389   3
  -1   5   1 501.157 81.6912   7
  -1  -5   1 636.798 118.788   2
   1  -5   0 150.377 81.3488   6
  -1   5   0 145.898 130.811   1
   1   5   0 120.432 125.139   6
  -1  -5   0 147.916 126.764   6
  -1  -5   0 160.098 100.907   3
   1   5   0 31.5361 98.4688   4
  -1   5   0 191.340 182.726   3
  -1  -5   0 113.748 91.4409   4
  -1  -5   0 151.099 106.482   2
   1   5   0 77.3419 118.124   2
   1  -5   0 160.510 145.905   1
   1  -5   0 213.112 191.141   3
  -1   5   0-23.3565 90.1069   7
  -1  -5  -1 7814.44 236.237   2
  -1  -5  -1 7931.91 221.345   3
   1  -5   1 7482.37 228.632   7
  -1  -5  -1 7694.65 276.039   6
   1  -5   1 7273.52 278.165   1
   1   5   1 7979.29 268.611   4
   1  -5   1 6903.94 327.872   3
  -1  -5  -1 8443.58 274.240   4
   1  -5   1 7818.51 225.550   6
   1   5   1 7582.24 285.102   6
  -1   5  -1 7832.48 222.960   7
  -1  -5  -1 7803.75 244.722   1
  -1   5  -1 6837.49 258.983   1
   1   5   1 7260.54 244.377   2
   1   5   1 8489.30 196.633   3
   1   5   2 3738.69 215.727   4
   1  -5   2 3260.65 223.770   1
  -1  -5  -2 3460.69 211.881   6
   1   5   2 3853.64 188.443   3
  -1   5  -2 3640.67 180.781   7
  -1  -5  -2 3612.79 177.727   2
   1  -5   2 3390.30 191.718   7
  -1  -5  -2 3658.08 185.437   1
  -1  -5  -2 4035.34 196.958   3
   1  -5   2 3480.86 236.646   3
   1   5   2 3677.01 221.136   6
   1   5   2 3337.63 192.296   2
  -1  -5  -2 3673.71 216.641   4
  -1   5  -2 3579.24 203.283   1
   1   5   3 1417.53 172.887   6
   1   5   3 1397.19 155.197   2
  -1  -5  -3 1437.84 135.673   2
   1   5   3 1570.58 177.977   4
   1  -5   3 1495.22 167.808   7
  -1   5  -3 1447.62 165.279   1
   1   5   3 1598.93 190.665   3
  -1   5  -3 1282.50 157.816   7
  -1  -5  -3 1195.48 138.488   1
  -1  -5  -3 1223.55 161.679   3
  -1  -5  -3 1394.28 170.906   6
   1  -5   3 1332.89 169.962   1
  -1  -5  -3 1679.04 195.949   4
  -1  -5  -4 7646.38 233.021   2
  -1   5  -4 8553.55 288.504   1
   1   5   4 8813.93 361.454   4
  -1  -5  -4 8235.94 352.701   4
  -1  -5  -4 7878.63 255.426   1
  -1   5  -4 8652.03 303.380   7
   1   5   4 8044.58 352.683   3
   1  -5   4 7945.07 301.230   7
   1  -5   4 8404.89 311.145   1
  -1  -5  -4 8632.32 326.978   6
   1   5   4 8606.29 327.420   6
  -1   5  -5 538.379 149.610   7
   1   5   5 585.689 213.286   3
   1   5   5 898.308 161.531   5
   1  -5   5 767.237 160.600   1
   1   5   5 586.609 151.965   4
  -1  -5  -5 901.252 132.152   1
  -1  -5  -5 813.718 175.392   4
  -1  -5  -5 535.222 106.696   2
   1   5   5 766.175 169.606   6
  -1   5  -5 933.474 147.978   1
  -1  -5  -5 749.638 166.615   6
   1  -5   5 986.416 185.510   7
  -1   5  -6 1654.60 158.091   1
  -1  -5  -6 1580.24 193.966   6
   1   5   6 1783.62 209.553   6
  -1  -5  -6 1670.55 223.909   4
   1  -5   6 1432.82 185.740   1
  -1  -5  -6 1742.36 187.110   7
   1   5   6 1502.15 179.219   5
  -1  -5  -6 1548.11 145.108   1
   1   5   6 1614.82 268.926   3
  -1  -5  -6 1294.72 119.279   2
   1  -5   6 1393.67 188.595   7
  -1   5  -7 1105.68 131.024   1
   1   5   7 926.993 264.940   3
  -1  -5  -7 1018.76 104.142   2
   1  -5   7 1097.64 173.067   1
   1  -5   7 915.462 191.006   7
  -1  -5  -7 874.635 123.964   1
  -1   5  -7 760.526 118.042   2
   1   5   7 1247.28 205.482   6
  -1  -5  -7 1148.20 206.138   4
   1  -5   8 701.831 172.645   1
  -1  -5  -8 729.275 93.4781   2
   1   5   8 820.462 198.472   6
  -1  -5  -8 838.769 117.816   1
  -1  -5  -8 999.722 225.133   4
   1   5   8 861.582 282.284   3
   1  -5   8 758.294 187.976   7
  -1   5  -8 719.266 114.830   2
   1   5   9 8481.46 409.490   6
   1  -5   9 8205.09 399.233   7
  -1  -5  -9 7286.69 178.047   2
  -1   5  -9 8125.71 256.059   2
   1  -5   9 8440.49 350.300   1
   1   5   9 9722.19 586.144   3
  -1  -5  -9 8493.76 458.027   4
  -1  -5  -9 9062.30 249.084   1
   1  -5  10 282.679 158.477   1
  -1   5 -10 348.412 110.989   2
   1   5  10 458.460 322.426   3
  -1  -5 -10-59.1960 199.041   4
  -1   5 -10 313.617 233.925   4
   1   5  10 256.059 174.373   6
  -1  -5 -10 219.608 54.5652   2
  -1  -5 -10 240.439 84.3513   1
   1  -5  10 413.860 209.376   7
   1   5  11 1199.53 241.169   6
  -1  -5 -11 688.020 79.3524   1
  -1   5 -11 1296.97 305.918   4
  -1  -5 -11 1512.17 293.778   4
  -1   5 -11 854.958 120.897   2
  -1   5 -11 1102.58 286.169   5
   1   5  11 2012.87 429.299   3
   1  -5  11 1464.40 262.461   7
   1  -5  11 1100.64 200.328   1
   1  -5  12 872.737 251.836   6
   1   5  12 878.689 397.046   3
  -1  -5 -12 613.305 258.739   4
   1  -5  12 697.477 196.779   1
  -1   5 -12 823.405 283.292   5
   1  -5  12 579.209 229.805   7
  -1   5 -12 483.183 271.971   4
   1   5  12 547.952 218.332   6
   1   5  13-199.631 232.034   6
  -1   5 -13 133.081 261.298   4
   1  -5  13-139.929 237.024   7
  -1   5 -13 39.6686 270.564   5
   1  -5  13 147.703 194.830   1
  -1  -5 -13-404.519 249.291   4
   1   5  13 280.890 399.801   3
   1  -5  13 75.3213 217.347   6
   1  -5  14 5733.75 345.573   1
   1  -5  14 6177.50 445.289   7
  -1  -5 -14 5638.86 497.334   4
  -1   5 -14 4763.33 495.431   4
   1  -5  14 6051.45 473.352   6
  -1   5 -14 5903.19 506.347   5
   1   5  14 6400.96 464.389   6
   1   5  14 7333.48 705.939   3
   1   5  15 1612.28 339.666   6
   1   5  15 1539.22 514.314   3
  -1   5 -15 1816.56 394.147   5
  -1   5 -15 1172.07 336.390   4
   1  -5  15 1202.66 308.406   6
  -1  -5 -15 1479.90 351.145   4
   1   5  16 1255.58 339.363   6
  -1   5 -16 1428.79 364.201   5
  -1   5 -16 1137.74 364.407   4
   1  -5  16 1303.37 325.837   6
  -1  -5 -16 2044.31 398.362   4
   1   5  16 2084.95 567.479   3
   1   5  17-10.6545 305.746   6
  -1   5 -17-155.662 324.357   4
  -1  -5 -17 405.112 310.649   4
   1  -5  17-378.681 294.016   6
  -1  -6  18 8.29986 569.042   3
  -1   6  18 756.288 297.866   6
  -1  -6  18 899.860 303.358   7
  -1   6  17 73.6252 246.776   6
  -1  -6  17-76.7038 242.673   7
   1  -6 -16 190.985 200.093   4
   1   6 -16 391.778 343.738   5
  -1   6  16 506.266 222.880   6
  -1   6  16 943.716 552.409   3
  -1  -6  16 398.806 230.029   7
  -1   6  15 99.4388 450.542   3
  -1   6  15-53.3930 196.418   6
   1   6 -15 156.666 220.497   4
  -1  -6  15-107.666 216.387   7
   1  -6 -15 212.924 183.974   4
   1   6 -15 266.003 293.207   5
  -1  -6  14 617.419 223.283   7
   1   6 -14 300.778 281.784   5
  -1   6  14 484.938 471.127   3
  -1  -6  14 356.617 141.407   1
  -1   6  14 433.602 215.227   6
   1  -6 -14 391.991 201.445   4
   1   6 -14 559.414 226.427   4
  -1  -6  13 236.397 191.740   7
  -1  -6  13 674.931 140.329   1
  -1   6  13 235.564 172.712   7
   1   6 -13 472.201 282.287   5
   1  -6 -13 176.336 157.869   4
   1   6 -13 316.606 199.300   4
  -1   6  13 125.781 173.256   6
  -1   6  13 790.620 465.443   3
  -1  -6  12 493.646 192.714   7
   1   6 -12 104.360 247.362   5
   1   6 -12 376.203 148.115   2
  -1  -6  12 281.189 104.793   2
   1  -6 -12 551.095 172.098   4
  -1   6  12 581.261 402.506   3
   1   6 -12 280.300 187.356   4
  -1   6  12 544.343 176.571   7
  -1   6  12 233.446 164.575   6
   1   6 -11 1026.09 212.680   4
   1   6 -11 1140.82 273.226   5
  -1  -6  11 988.994 201.215   7
  -1  -6  11 1166.82 119.847   2
   1   6 -11 866.616 155.311   2
  -1   6  11 1241.03 187.552   6
  -1   6  11 908.313 170.578   7
  -1   6  11 1077.12 407.051   3
   1  -6 -11 1132.28 188.548   4
  -1  -6  10 147.323 85.3041   2
  -1  -6  10 164.649 154.193   7
  -1   6  10 235.546 125.070   7
  -1   6  10 391.315 341.334   3
   1  -6 -10 78.7128 129.765   4
   1   6 -10 257.726 124.400   2
  -1   6   9 1093.52 134.933   7
   1   6  -9 1208.52 151.832   2
  -1   6   9 914.681 172.624   4
  -1  -6   9 1268.98 107.447   2
  -1   6   9 816.641 60.2820   2
   1  -6  -9 894.562 154.279   4
  -1  -6   9 1009.93 170.111   7
  -1   6   9 1018.14 351.511   3
   1  -6  -8 898.020 140.666   4
  -1  -6   8 1319.81 171.533   7
   1   6  -8 1461.62 153.116   2
  -1   6   8 1284.57 121.916   7
  -1  -6   8 1339.90 104.497   2
  -1   6   8 1146.95 81.8705   2
  -1   6   8 1100.36 330.158   3
  -1   6   8 1291.28 172.185   4
   1   6  -7 22956.7 431.626   2
  -1  -6   7 21384.0 327.152   2
   1  -6  -7 22146.3 466.181   4
  -1   6   7 22361.0 321.977   7
  -1   6   7 20517.8 264.485   1
  -1  -6   7 25001.7 509.078   7
   1  -6  -7 19541.4 284.679   1
  -1   6   7 20417.3 773.416   3
  -1   6   7 22056.4 501.449   4
  -1  -6   6 3453.50 148.055   2
  -1   6   6 3833.27 407.855   3
   1   6  -6 3736.70 192.241   2
  -1   6   6 3523.65 143.103   1
  -1   6   6 3728.47 213.558   4
   1  -6  -6 3183.87 179.704   4
   1  -6  -6 3532.75 163.722   1
  -1   6   6 3237.26 121.108   7
  -1  -6   6 3065.43 215.184   7
  -1   6   5 3066.32 189.475   4
   1  -6  -5 3069.82 172.613   1
  -1  -6   5 2990.37 149.258   2
  -1  -6   5 3108.97 212.686   6
   1   6  -5 3264.20 184.219   2
   1  -6  -5 2871.77 161.715   4
  -1   6   5 2098.83 82.4169   7
  -1   6   5 2879.85 144.780   1
   1  -6  -5 2930.40 340.793   3
  -1   6   5 3223.96 370.194   3
  -1   6   4-11.9635 34.8877   6
  -1   6   4 5.55418 91.7979   1
  -1   6   4 11.3254 92.2838   4
   1   6  -4 150.370 110.555   2
   1  -6  -4-12.1468 114.170   1
  -1  -6   4-28.5474 118.257   6
   1  -6  -4 47.9325 229.273   3
  -1  -6   4 47.4484 88.8892   2
  -1   6   4 23.5748 241.483   3
  -1   6   3 10937.5 481.339   3
  -1  -6   3 11728.1 265.146   2
   1  -6  -3 10569.7 301.215   1
  -1   6   3 10858.2 283.759   4
   1  -6  -3 10735.3 478.994   3
   1   6  -3 11143.9 244.831   4
   1   6  -3 11051.6 292.185   2
  -1   6   3 10508.8 272.040   1
  -1  -6   3 10719.7 328.756   6
  -1   6   2 10735.3 449.208   3
   1   6  -2 11596.4 296.143   2
   1  -6  -2 10745.1 315.316   1
   1   6  -2 11194.0 329.475   6
   1   6  -2 11653.4 259.964   4
  -1  -6   2 11277.2 326.417   6
   1  -6  -2 9624.15 448.784   3
  -1  -6   2 12023.7 274.449   2
  -1   6   2 10620.2 286.964   1
   1  -6  -1 209.595 193.239   3
  -1   6   1-69.5756 112.094   1
   1   6  -1-3.85538 120.210   6
   1  -6  -1-23.8274 50.8944   6
   1  -6  -1 178.545 136.426   1
  -1  -6   1-18.3639 98.0034   2
  -1  -6   1-123.863 85.8755   4
   1   6  -1-124.815 120.000   2
   1   6  -1 59.7788 91.3258   4
  -1  -6   1 59.6153 119.691   6
  -1   6   1-107.801 203.659   3
  -1   6   1 9.12295 71.8210   7
   1   6   0 11057.1 333.005   6
   1  -6   0 11185.6 222.623   6
  -1   6   0 11124.0 307.908   1
   1  -6   0 10806.1 334.397   1
  -1   6   0 11363.4 418.328   3
   1   6   0 11339.7 294.517   2
  -1   6   0 12120.9 233.868   7
  -1  -6   0 11648.6 275.228   2
   1  -6   0 9682.98 409.702   3
  -1  -6   0 12183.3 298.427   4
   1  -6   0 11651.5 243.511   7
  -1  -6   0 13026.6 319.596   3
  -1  -6   0 11413.3 337.226   6
   1   6   0 11775.6 309.700   4
  -1   6  -1 33401.0 424.140   7
  -1  -6  -1 34455.0 523.565   4
  -1   6  -1 33341.4 525.623   1
   1   6   1 32818.0 489.733   2
   1  -6   1 31798.4 544.066   1
  -1  -6  -1 32680.0 443.385   2
   1   6   1 35122.6 554.344   4
   1  -6   1 33052.8 440.190   7
   1   6   1 35513.2 433.694   3
  -1  -6  -1 34210.0 552.151   6
  -1  -6  -1 33916.4 486.734   3
   1  -6   1 30975.2 670.418   3
   1   6   1 34406.5 571.679   6
  -1  -6  -2 4310.85 194.082   1
  -1  -6  -2 4895.22 246.968   4
  -1   6  -2 4264.24 220.484   1
   1  -6   2 3859.60 258.258   3
   1  -6   2 4199.19 203.028   7
   1   6   2 4718.20 250.289   6
  -1  -6  -2 4491.32 186.702   2
   1   6   2 4946.67 247.725   4
  -1  -6  -2 4708.87 237.279   6
   1  -6   2 4296.08 245.472   1
  -1  -6  -2 4821.35 232.713   3
   1   6   2 4254.81 204.692   2
  -1   6  -2 4412.65 198.461   7
   1   6   2 4972.08 224.888   3
   1  -6   3 5949.48 252.036   7
  -1  -6  -3 6019.86 294.441   4
   1   6   3 5780.40 237.153   2
   1   6   3 6136.77 290.175   3
   1  -6   3 5244.26 259.953   1
   1   6   3 5789.75 278.500   4
  -1  -6  -3 6198.34 276.020   6
   1   6   3 6606.52 288.429   6
  -1  -6  -3 5840.51 223.129   1
  -1  -6  -3 5993.49 279.127   3
  -1   6  -3 6276.31 246.057   7
  -1   6  -3 5704.37 246.949   1
  -1  -6  -3 6156.46 208.900   2
  -1   6  -4 585.068 135.421   1
  -1  -6  -4 614.784 152.720   6
   1   6   4 847.354 199.020   3
   1  -6   4 816.447 169.454   1
  -1  -6  -4 826.383 114.515   2
  -1  -6  -4 841.409 178.557   4
   1   6   4 767.729 164.664   4
   1   6   4 699.045 135.090   2
  -1  -6  -4 908.994 134.766   1
   1  -6   4 925.473 163.522   7
  -1   6  -4 796.388 155.549   7
  -1  -6  -4 849.737 178.061   3
   1   6   4 663.350 165.749   6
   1   6   5 10192.5 378.199   6
   1  -6   5 8267.42 329.683   1
   1   6   5 10238.5 409.748   4
  -1  -6  -5 8373.02 377.985   4
  -1  -6  -5 8859.19 239.034   2
   1   6   5 10308.1 447.170   3
  -1   6  -5 9246.17 331.357   7
  -1  -6  -5 9772.24 360.499   6
  -1   6  -5 8862.95 298.343   1
  -1  -6  -5 8874.25 280.947   1
   1  -6   5 9600.49 353.441   7
  -1   6  -6 545.904 113.881   2
   1   6   6 585.972 152.192   5
  -1  -6  -6 372.560 104.820   1
  -1  -6  -6 608.994 97.8506   2
   1   6   6 704.021 173.725   6
  -1  -6  -6 636.571 179.540   4
   1  -6   6 475.728 160.993   1
   1   6   6 651.352 222.724   3
  -1   6  -6 444.022 123.931   1
  -1  -6  -6 448.308 144.839   6
   1  -6   6 517.211 170.430   7
  -1   6  -7 4670.69 226.306   1
   1  -6   7 4639.02 265.954   1
  -1  -6  -7 4442.36 218.371   1
  -1   6  -7 4525.21 209.385   2
   1   6   7 5345.50 417.873   3
   1   6   7 5279.05 319.803   6
   1  -6   7 4539.28 286.977   7
  -1  -6  -7 4953.39 336.468   4
  -1  -6  -7 4775.11 170.222   2
  -1   6  -8 57.6822 98.0067   2
   1  -6   8 83.3201 141.533   1
  -1  -6  -8-15.4534 182.008   4
  -1  -6  -8 70.7769 106.910   1
  -1  -6  -8 103.289 71.2156   2
   1  -6   8 25.2209 161.076   7
   1   6   8 26.2228 239.083   3
   1   6   8 158.947 158.077   6
  -1   6  -9 1596.67 142.056   2
  -1  -6  -9 1337.00 91.3912   2
  -1  -6  -9 1633.63 139.650   1
   1  -6   9 1518.97 203.923   1
   1  -6   9 1060.42 209.156   7
   1   6   9 1952.34 250.669   6
  -1  -6  -9 1488.92 250.665   4
   1   6   9 1680.80 349.451   3
   1   6  10 2873.08 430.996   3
  -1   6 -10 2469.50 162.389   2
  -1  -6 -10 2320.92 131.609   1
   1  -6  10 2895.25 263.374   1
  -1  -6 -10 2621.67 309.651   4
   1  -6  10 2322.57 273.874   7
  -1  -6 -10 2142.96 88.8716   2
   1   6  10 2921.64 293.487   6
  -1  -6 -11 747.661 75.5437   1
  -1  -6 -11 410.859 37.5267   2
  -1   6 -11 777.078 260.427   4
   1  -6  11 902.348 199.460   1
  -1   6 -11 428.177 112.787   2
  -1  -6 -11 1036.18 278.345   4
   1   6  11 848.997 379.507   3
   1   6  11 1123.85 247.173   6
   1  -6  11 942.330 251.188   7
   1   6  12-174.263 237.336   6
   1  -6  12 45.5139 212.483   7
  -1   6 -12-4.91800 247.876   4
   1  -6  12-76.2703 175.974   1
  -1  -6 -12 575.900 258.729   4
  -1   6 -12 230.169 290.514   5
   1   6  12 333.048 374.152   3
   1   6  13-139.030 227.082   6
  -1   6 -13-17.3179 268.217   5
  -1   6 -13 164.920 272.507   4
  -1  -6 -13 332.170 275.468   4
   1  -6  13-19.1446 193.850   1
   1   6  13 154.527 387.811   3
   1  -6  13-74.0177 228.415   7
   1  -6  13 104.168 228.189   6
  -1   6 -14 4471.60 473.098   5
  -1   6 -14 3775.39 447.879   4
   1  -6  14 4583.00 333.572   1
   1  -6  14 4765.49 410.341   7
   1   6  14 4016.73 398.048   6
   1  -6  14 3871.89 400.168   6
  -1  -6 -14 4692.50 473.545   4
   1   6  15 1358.23 319.498   6
   1   6  15 2417.43 579.286   3
  -1   6 -15 1061.84 353.309   5
  -1   6 -15 1094.87 368.471   4
  -1  -6 -15 1248.03 331.908   4
   1  -6  15 855.340 289.424   6
   1  -6  15 1432.03 342.638   7
   1  -6  16 769.815 318.672   6
  -1  -6 -16 402.853 297.631   4
  -1   6 -16 722.269 330.518   4
   1   6  16 1576.32 351.409   6
  -1   6 -16 646.585 349.102   5
   1   6  16 263.059 487.307   3
   1   6  17 3046.16 674.966   3
  -1   6 -17 954.905 366.837   5
  -1   6 -17 884.380 364.988   4
  -1  -6 -17 1607.47 394.789   4
   1  -6  17 1538.61 382.824   6
   1   6  17 2406.69 400.042   6
  -1  -7  18 613.189 299.573   7
  -1   7  18 202.959 564.281   3
  -1  -7  18 941.495 600.958   3
  -1   7  17 867.157 558.299   3
  -1  -7  17 1391.30 311.864   7
  -1   7  17 1548.73 300.060   6
   1   7 -17 1653.04 401.820   5
   1   7 -16 2.46308 319.376   5
  -1   7  16 0.89273 219.136   6
   1  -7 -16 27.0302 190.655   4
  -1   7  16-404.358 533.873   3
  -1  -7  16 117.386 233.044   7
  -1   7  15-248.730 217.926   6
   1   7 -15 485.825 341.781   5
   1  -7 -15-38.6926 185.326   4
   1   7 -15 307.122 212.917   4
  -1   7  15-11.3910 469.029   3
  -1  -7  15 339.553 239.932   7
  -1  -7  14 649.844 154.889   1
   1   7 -14 439.533 218.118   4
   1   7 -14 800.879 333.243   5
   1  -7 -14 613.977 194.256   4
  -1  -7  14 484.242 225.160   7
  -1   7  14 269.784 181.204   6
   1   7 -13 2.54670 190.967   4
  -1   7  13 109.098 173.148   6
  -1  -7  13 172.474 196.491   7
   1   7 -13 69.2875 267.810   5
  -1  -7  13-33.3180 119.605   1
   1  -7 -13 193.249 161.145   4
  -1  -7  13 53.1559 106.195   2
  -1   7  13 528.938 462.922   3
  -1   7  12 131.768 153.010   6
   1   7 -12 312.415 286.285   5
   1   7 -12-57.9756 189.731   4
  -1  -7  12 188.402 183.086   7
   1  -7 -12 100.552 152.809   4
  -1   7  12 325.294 400.548   3
  -1  -7  12 400.034 115.305   2
   1   7 -11 38.1567 171.794   4
  -1  -7  11 295.068 167.694   7
   1  -7 -11 62.3935 137.810   4
  -1   7  11 259.904 146.661   6
  -1  -7  11 247.530 101.242   2
  -1   7  11 546.088 384.060   3
   1   7 -11-165.960 134.025   2
  -1  -7  10 535.585 168.210   7
  -1   7  10 316.079 53.1259   2
   1   7 -10 711.653 148.627   2
  -1  -7  10 583.422 107.576   2
   1  -7 -10 461.266 141.174   4
  -1   7  10 751.989 152.599   6
  -1   7  10 848.907 380.465   3
   1   7  -9 5366.61 250.289   2
  -1   7   9 5347.79 324.081   4
   1  -7  -9 5364.51 288.105   4
  -1  -7   9 5782.62 202.671   2
  -1   7   9 5396.51 245.593   6
  -1   7   9 5770.16 537.050   3
  -1  -7   9 5420.23 299.588   7
  -1  -7   8 524.870 90.9272   2
  -1   7   8 436.541 111.578   6
  -1  -7   8 471.337 155.235   7
   1  -7  -8 338.965 123.151   4
  -1   7   8 570.979 315.900   3
  -1   7   8 403.782 141.494   4
  -1   7   8 448.659 76.0175   2
   1   7  -8 746.746 132.303   2
   1  -7  -8 323.637 53.3636   1
  -1   7   7 818.010 154.316   4
  -1  -7   7 656.241 93.2053   2
  -1   7   7 959.149 114.471   6
   1   7  -7 695.398 127.749   2
  -1   7   7 776.505 94.7014   2
  -1   7   7 467.631 291.460   3
   1  -7  -7 755.856 93.5599   1
  -1  -7   7 773.959 150.535   7
   1  -7  -7 566.634 121.542   4
  -1   7   7 715.094 69.7677   1
   1  -7  -6 5349.08 202.002   1
  -1   7   6 5222.60 164.746   1
  -1   7   6 5383.20 272.643   4
  -1  -7   6 5577.74 190.562   2
   1  -7  -6 5046.89 235.255   4
   1   7  -6 5640.39 233.623   2
  -1  -7   6 6020.70 277.450   7
  -1   7   6 5605.86 455.464   3
  -1   7   6 5710.12 182.027   6
   1  -7  -5 494.237 262.795   3
  -1  -7   5 674.445 150.338   6
   1   7  -5 758.764 130.081   2
  -1  -7   5 617.899 99.1700   2
   1  -7  -5 633.305 126.002   4
  -1   7   5 503.241 99.2461   1
  -1   7   5 666.102 124.519   4
   1  -7  -5 575.456 120.187   1
  -1   7   5 597.887 72.7896   6
  -1   7   5 832.863 264.595   3
   1   7  -4 14647.5 341.471   2
  -1  -7   4 13105.8 280.781   2
  -1   7   4 14157.0 359.492   4
  -1   7   4 13477.2 580.947   3
   1  -7  -4 13212.4 583.304   3
  -1  -7   4 12585.1 373.094   6
   1  -7  -4 14086.4 344.017   1
  -1   7   4 13289.9 300.103   1
   1   7  -3 7824.00 255.372   2
  -1   7   3 8075.63 269.055   4
  -1  -7   3 8376.84 308.720   6
   1  -7  -3 7571.26 274.225   1
  -1  -7   3 8788.71 241.620   2
   1   7  -3 7994.22 234.151   4
  -1   7   3 8288.89 247.120   1
   1  -7  -3 8103.99 450.861   3
  -1  -7   2 3666.65 174.015   2
   1   7  -2 3327.63 214.243   6
   1  -7  -2 3469.32 210.575   1
   1   7  -2 3358.92 185.003   2
   1   7  -2 3666.18 175.055   4
  -1  -7   2 3567.07 213.375   6
   1  -7  -2 2667.51 309.615   3
  -1   7   2 3131.99 308.259   3
  -1   7   2 3266.76 190.892   1
  -1   7   2 2735.08 74.8158   7
  -1   7   1 42.9563 66.1312   7
   1  -7  -1-98.5824 211.056   3
  -1  -7   1-70.6171 125.069   6
  -1  -7   1 43.4910 96.2313   2
   1   7  -1 4.06042 122.132   6
   1   7  -1 165.848 121.729   2
   1   7  -1 87.0793 96.5127   4
   1  -7  -1-51.3883 133.682   1
  -1  -7   1-24.0943 89.0100   4
   1  -7  -1 83.1199 49.7719   6
  -1   7   1 97.7293 188.034   3
  -1   7   1 47.6816 109.243   1
  -1  -7   0-15.2786 100.491   2
   1  -7   0 87.7290 98.3518   7
  -1   7   0-16.0610 176.147   3
   1  -7   0 249.780 145.481   1
   1  -7   0 50.7318 200.234   3
  -1  -7   0-12.1211 100.412   4
  -1  -7   0 51.9630 126.116   6
   1   7   0-26.2334 102.314   4
  -1   7   0 218.457 126.920   1
  -1   7   0-114.211 89.7596   7
   1   7   0 167.164 133.654   6
  -1  -7   0 1.14687 148.226   3
   1   7   0 155.846 115.688   2
   1  -7   1 629.423 123.076   7
   1   7   1 499.012 138.635   6
   1   7   1 554.742 118.965   3
   1  -7   1 379.118 147.138   1
   1   7   1 555.662 125.219   4
  -1   7  -1 566.748 136.143   1
  -1  -7  -1 520.042 123.150   4
   1   7   1 581.282 122.315   2
  -1  -7  -1 632.632 114.423   2
  -1  -7  -1 448.338 136.699   6
   1  -7   1 317.016 192.450   3
  -1   7  -1 684.678 113.940   7
  -1  -7  -1 602.492 149.196   3
  -1  -7  -2 49950.9 694.092   6
   1   7   2 51358.2 731.160   4
  -1  -7  -2 49233.5 543.212   2
  -1  -7  -2 51137.4 710.753   4
   1   7   2 49812.9 719.215   6
   1  -7   2 48641.6 596.742   7
  -1   7  -2 48002.2 571.563   7
  -1   7  -2 49842.1 651.974   1
  -1  -7  -2 49278.9 688.664   3
   1   7   2 51815.2 656.989   3
   1   7   2 48872.0 608.890   2
   1  -7   2 47954.0 830.345   3
  -1   7  -3 851.888 147.484   1
  -1  -7  -3 531.787 115.811   1
   1   7   3 676.468 158.183   6
   1  -7   3 589.221 147.693   7
   1  -7   3 591.207 160.605   1
   1   7   3 846.368 138.216   2
  -1  -7  -3 722.230 112.087   2
   1   7   3 857.340 190.083   3
  -1  -7  -3 810.885 159.372   6
  -1   7  -3 778.353 138.856   7
  -1  -7  -3 801.967 165.795   4
  -1  -7  -3 539.877 172.060   3
   1   7   3 888.211 160.623   4
  -1   7  -4 8436.48 295.861   1
  -1   7  -4 9786.01 320.417   7
  -1  -7  -4 10364.0 396.432   4
   1   7   4 9135.17 295.201   2
   1  -7   4 8887.43 341.307   1
  -1  -7  -4 9846.58 251.133   2
   1   7   4 9775.32 374.659   4
   1   7   4 9812.21 407.321   3
  -1  -7  -4 9377.52 380.414   3
  -1  -7  -4 9626.49 278.873   1
   1   7   4 9585.11 355.785   6
   1  -7   4 9293.55 331.366   7
  -1  -7  -4 10315.9 358.939   6
  -1  -7  -5 439.636 123.829   1
   1  -7   5 335.463 148.184   1
   1   7   5 411.832 127.351   2
  -1   7  -5 719.154 159.855   7
  -1  -7  -5 360.636 184.502   3
  -1   7  -5 453.034 116.741   1
   1   7   5 553.352 212.659   3
  -1   7  -5 664.312 128.131   2
  -1  -7  -5 537.349 171.365   4
   1   7   5 771.149 168.320   6
   1  -7   5 496.584 159.466   7
  -1  -7  -5 578.019 153.749   6
  -1  -7  -5 558.359 101.061   2
  -1   7  -6 1530.81 155.640   1
   1  -7   6 1463.98 195.689   1
   1   7   6 1731.71 216.778   6
  -1  -7  -6 1851.10 126.025   2
  -1  -7  -6 1740.68 223.559   4
   1  -7   6 1814.87 215.577   7
  -1   7  -6 1550.25 146.392   2
  -1  -7  -6 1393.34 144.628   1
   1   7   6 1737.46 283.430   3
  -1  -7  -7 43.0416 104.090   1
  -1  -7  -7 50.6574 79.3055   2
   1   7   7 49.1800 156.042   6
  -1  -7  -7-122.084 165.929   4
   1  -7   7 161.713 140.698   1
  -1   7  -7 85.6478 103.733   2
   1   7   7-248.214 246.945   3
   1  -7   8 264.537 174.237   7
   1  -7   8 117.376 145.702   1
  -1   7  -8-8.72621 101.836   2
   1   7   8-102.154 253.072   3
  -1  -7  -8 179.634 101.814   1
  -1  -7  -8 67.0729 164.529   4
  -1  -7  -8 145.968 77.6016   2
   1   7   8 113.878 160.885   6
  -1  -7  -9 1716.73 99.1088   2
   1  -7   9 1703.54 210.490   1
   1  -7   9 1545.28 231.733   7
  -1  -7  -9 1916.19 144.725   1
   1   7   9 1874.01 244.576   6
   1   7   9 1797.91 356.620   3
  -1  -7  -9 2147.71 272.285   4
  -1  -7 -10 2064.23 130.108   1
   1  -7  10 2528.55 261.671   1
  -1  -7 -10 1763.66 87.0605   2
  -1  -7 -10 2302.82 302.374   4
   1   7  10 2024.96 398.880   3
   1  -7  10 2133.16 263.117   7
   1   7  10 2103.94 260.220   6
  -1  -7 -11 653.258 76.1308   1
   1   7  11 230.861 213.717   6
  -1  -7 -11 94.3432 214.096   4
  -1  -7 -11-29.1650 34.3856   2
   1  -7  11-38.3191 198.393   7
   1  -7  11 20.4076 169.575   1
   1   7  11 177.106 347.135   3
   1   7  12 1115.49 269.607   6
   1  -7  12 845.588 203.950   1
  -1   7 -12 964.201 318.425   4
  -1  -7 -12 746.737 257.812   4
   1   7  12 1068.33 379.809   3
   1  -7  12 972.113 259.278   7
  -1   7 -13-16.9984 287.562   5
  -1   7 -13-443.811 291.470   4
   1  -7  13 163.890 190.536   1
  -1  -7 -13-460.627 266.492   4
   1   7  13 149.365 403.788   3
   1  -7  13-175.649 235.526   7
   1   7  13 351.087 237.387   6
  -1   7 -14 2725.71 417.728   4
  -1  -7 -14 2889.27 392.898   4
   1   7  14 3090.56 366.426   6
  -1   7 -14 3330.93 457.261   5
   1  -7  14 3078.65 364.374   7
   1   7  14 3697.47 593.130   3
   1  -7  14 2366.29 274.271   1
   1  -7  14 2773.07 365.056   6
   1  -7  15 494.790 267.279   6
  -1   7 -15 262.794 313.497   5
  -1   7 -15 210.460 310.401   4
   1  -7  15-9.19887 256.686   7
  -1  -7 -15 96.7408 270.483   4
   1   7  15 477.929 278.494   6
   1   7  15 383.977 450.438   3
   1  -7  16 210.324 287.875   6
   1   7  16 565.987 304.808   6
  -1   7 -16 764.204 351.577   4
  -1  -7 -16 74.5088 313.150   4
  -1   7 -16 267.382 342.316   5
   1  -7  16 700.659 321.094   7
   1   7  16 1212.21 545.185   3
  -1   7 -17 325.355 338.005   4
   1   7  17 258.960 295.616   6
  -1  -7 -17-138.270 317.579   4
  -1   7 -17-269.297 340.051   5
   1  -7  17 59.3342 290.126   6
   1   7  17 367.983 533.539   3
  -1  -8  17-582.263 297.070   7
   1   8 -17-301.051 371.164   5
  -1   8  17 558.933 569.241   3
  -1  -8  16 1865.23 326.310   7
  -1   8  16 1351.41 562.717   3
   1  -8 -16 1938.05 290.394   4
   1   8 -16 2008.00 409.512   5
  -1   8  16 2401.27 313.254   6
   1   8 -15 745.575 247.089   4
   1  -8 -15 1498.56 265.772   4
   1   8 -15 1364.87 372.039   5
  -1  -8  15 1541.11 296.847   7
  -1   8  15 1575.48 274.257   6
  -1   8  15 1740.44 532.833   3
   1   8 -14-80.3094 213.185   4
  -1   8  14 368.128 472.551   3
   1  -8 -14 119.482 179.402   4
  -1  -8  14 306.297 148.773   1
  -1  -8  14 254.098 219.493   7
  -1   8  14 152.792 193.670   6
   1   8 -14 543.323 327.082   5
  -1   8  13 923.849 439.924   3
  -1  -8  13 1613.94 168.027   2
  -1  -8  13 1736.45 178.277   1
   1  -8 -13 1544.49 241.534   4
   1   8 -13 1427.50 264.009   4
  -1  -8  13 1989.62 263.735   7
   1   8 -13 1823.91 365.803   5
  -1   8  13 1767.44 237.553   6
  -1   8  12 3341.80 260.906   6
  -1  -8  12 2929.46 283.624   7
   1   8 -12 2385.19 287.514   4
   1  -8 -12 2582.18 264.653   4
  -1  -8  12 3102.09 200.404   2
  -1   8  12 3546.80 557.089   3
  -1  -8  11 3620.88 195.115   2
   1  -8 -11 3094.80 264.998   4
  -1   8  11 3633.40 251.853   6
  -1  -8  11 3770.02 285.616   7
  -1   8  11 3062.85 519.416   3
  -1  -8  10 7189.39 353.755   7
  -1   8  10 5935.38 585.018   3
   1  -8 -10 6338.54 335.115   4
  -1  -8  10 7063.75 245.288   2
  -1   8  10 6808.30 293.766   6
   1  -8  -9 708.968 156.150   4
  -1   8   9 577.349 66.7809   2
  -1  -8   9 771.421 115.577   2
  -1   8   9 467.673 319.636   3
  -1  -8   9 720.401 170.955   7
  -1   8   9 854.576 136.651   6
  -1  -8   8 594.252 164.424   7
   1  -8  -8 409.477 128.986   4
  -1   8   8 371.121 136.810   4
   1  -8  -8 404.047 70.3611   1
   1   8  -8 246.550 114.620   2
  -1   8   8 871.742 324.866   3
  -1  -8   8 426.593 96.7415   2
  -1   8   8 475.868 81.7547   2
  -1   8   8 555.821 116.458   6
  -1   8   7-16.9094 268.846   3
  -1  -8   7 116.317 132.329   7
  -1   8   7 82.2747 80.5582   2
  -1   8   7 81.3301 126.734   4
   1  -8  -7 84.0155 84.7534   1
  -1   8   7 77.7990 85.5184   6
   1  -8  -7 115.256 106.317   4
   1   8  -7 120.073 106.743   2
  -1  -8   7 168.033 86.3510   2
  -1   8   6 1512.83 120.342   2
  -1   8   6 1862.54 358.055   3
  -1   8   6 1777.70 112.440   6
  -1   8   6 1422.55 104.167   1
  -1   8   6 1546.78 173.766   4
  -1  -8   6 1671.16 127.307   2
   1  -8  -6 1448.33 156.758   4
  -1  -8   6 1568.74 180.966   7
   1  -8  -6 1569.34 140.688   1
   1   8  -6 1844.28 159.684   2
  -1   8   5 2198.67 327.517   3
  -1   8   5 2311.32 183.636   4
   1   8  -5 2452.56 170.996   2
   1  -8  -5 2162.21 174.932   1
  -1  -8   5 2550.86 147.977   2
  -1   8   5 1809.47 86.8560   6
  -1   8   5 2250.63 133.838   1
  -1  -8   4 2062.53 192.075   6
  -1  -8   4 1809.68 136.720   2
   1   8  -4 2057.47 164.033   2
  -1   8   4 1982.06 172.852   4
  -1   8   4 1790.30 136.153   1
   1  -8  -4 1742.35 170.405   1
  -1   8   4 1815.82 329.824   3
   1  -8  -4 1787.38 293.572   3
  -1   8   3 118.054 244.857   3
   1  -8  -3 331.462 265.613   3
  -1  -8   3 338.130 138.393   6
  -1   8   3 215.179 104.019   4
   1  -8  -3 546.817 144.027   1
   1   8  -3 412.523 101.360   4
  -1  -8   3 236.324 99.2062   2
  -1   8   3 158.666 100.631   1
   1   8  -3 411.647 123.542   2
  -1   8   2 122.274 216.390   3
   1  -8  -2 25.1604 225.779   3
  -1  -8   2 88.8901 119.880   6
   1   8  -2-31.8287 93.2818   4
   1   8  -2 52.7560 112.224   2
   1  -8  -2-23.4538 134.056   1
   1   8  -2 107.316 119.000   6
  -1  -8   2-19.7719 94.1229   2
  -1   8   2-5.53335 104.084   1
   1  -8  -1 8508.73 307.182   1
  -1   8   1 8342.95 271.364   1
   1  -8  -1 7189.43 423.690   3
   1   8  -1 8751.51 276.916   4
  -1  -8   1 9280.60 286.218   4
  -1  -8   1 8035.96 309.498   6
  -1   8   1 7712.88 409.525   3
   1  -8  -1 8723.03 190.419   7
  -1  -8   1 9296.64 322.598   3
   1   8  -1 8704.13 275.031   2
  -1   8   1 8400.48 175.936   7
  -1  -8   1 8491.04 250.198   2
   1   8  -1 8739.76 315.071   6
  -1  -8   0 175.246 132.668   6
  -1   8   0 77.0580 190.465   3
  -1  -8   0 224.697 105.549   2
   1   8   0 324.001 124.849   6
   1  -8   0 488.026 226.014   3
  -1   8   0 25.5570 118.345   1
   1   8   0 179.225 106.324   4
  -1  -8   0 147.110 101.350   4
   1   8   0 81.0810 108.732   2
  -1   8   0 109.097 83.7556   7
   1  -8   0 143.642 148.501   1
  -1  -8   0 192.877 163.783   3
   1  -8   0 140.742 96.6809   7
  -1  -8  -1 236.240 166.464   3
  -1   8  -1 111.703 99.5653   7
  -1   8  -1 150.019 116.199   1
  -1  -8  -1 194.048 133.522   6
   1  -8   1 151.673 146.954   1
   1   8   1 215.551 123.060   3
   1   8   1 226.968 131.089   6
  -1  -8  -1 260.179 106.415   2
   1  -8   1 367.466 116.412   7
   1   8   1 209.065 122.981   4
  -1  -8  -1 439.325 130.033   4
   1   8   1 214.556 105.261   2
   1  -8   1 124.376 207.352   3
   1  -8   2 20.7018 116.669   7
   1  -8   2-112.985 140.892   1
   1  -8   2 198.261 192.153   3
  -1   8  -2-52.8271 111.525   7
   1   8   2 21.6882 134.934   6
  -1  -8  -2-23.9091 94.6628   2
  -1  -8  -2 80.0032 161.493   3
   1   8   2-108.485 165.645   3
  -1  -8  -2 179.381 114.712   4
   1   8   2-98.6682 117.056   2
  -1  -8  -2-77.7997 130.147   6
  -1   8  -2-76.8167 112.250   1
   1   8   2-21.9822 122.364   4
   1   8   3 19063.4 476.658   6
   1   8   3 18918.9 401.913   2
  -1  -8  -3 19732.4 353.647   2
   1   8   3 21346.8 516.920   3
   1  -8   3 17561.3 404.445   7
  -1   8  -3 18322.7 419.621   1
  -1  -8  -3 19937.8 519.168   3
   1  -8   3 18475.3 546.689   3
  -1  -8  -3 19372.8 391.136   1
   1  -8   3 17830.1 460.209   1
  -1  -8  -3 19607.1 491.467   4
  -1  -8  -3 19809.1 471.407   6
  -1   8  -3 18220.5 397.498   7
   1   8   3 19959.5 504.958   4
   1   8   4 479.941 150.653   6
   1  -8   4 342.636 158.651   1
  -1  -8  -4 462.535 152.715   6
   1  -8   4 456.753 143.850   7
  -1   8  -4 394.674 116.536   2
  -1  -8  -4 579.620 104.668   2
   1   8   4 398.687 147.690   4
  -1  -8  -4 395.236 170.192   4
   1   8   4 404.353 128.953   2
  -1  -8  -4 483.207 195.687   3
  -1  -8  -4 463.185 121.026   1
  -1   8  -4 443.853 130.631   1
   1   8   4 311.673 206.430   3
  -1   8  -4 554.733 149.512   7
   1   8   5 2036.10 173.852   2
  -1   8  -5 2948.92 217.934   1
  -1  -8  -5 2153.01 139.242   2
  -1  -8  -5 2493.03 241.101   4
   1  -8   5 2228.02 210.842   7
   1   8   5 2692.45 232.256   6
  -1   8  -5 2034.10 165.963   2
  -1  -8  -5 2245.20 245.785   3
  -1  -8  -5 1801.97 163.221   1
   1   8   5 2481.99 279.991   3
   1  -8   5 2155.23 210.691   1
  -1  -8  -5 2191.23 205.876   6
  -1  -8  -6 4753.26 326.533   4
   1  -8   6 4383.02 276.933   1
  -1  -8  -6 4667.24 176.959   2
   1  -8   6 3676.44 257.172   7
   1   8   6 4281.72 281.042   6
  -1   8  -6 4536.49 214.569   2
  -1  -8  -6 3640.07 208.296   1
   1   8   6 4557.61 357.224   3
   1  -8   7-16.1733 154.890   7
   1   8   7 417.040 257.872   3
  -1  -8  -7-126.039 166.969   4
  -1  -8  -7 136.814 74.3362   2
  -1  -8  -7-85.4358 110.543   1
   1   8   7 59.4975 156.063   6
   1  -8   7 70.1038 141.138   1
   1   8   8 825.719 195.306   6
   1   8   8 783.716 294.139   3
  -1  -8  -8 649.000 133.465   1
   1  -8   8 330.966 151.466   1
  -1  -8  -8 618.527 193.465   4
  -1  -8  -8 792.639 89.9918   2
   1  -8   8 470.377 189.048   7
   1  -8   9 6820.32 373.122   7
  -1  -8  -9 7610.65 453.894   4
   1  -8   9 7001.56 357.388   1
  -1  -8  -9 7718.52 250.339   1
  -1  -8  -9 6910.45 173.946   2
   1   8   9 8202.46 577.400   3
   1   8   9 7425.19 399.479   6
  -1  -8 -10 1611.80 123.342   1
   1  -8  10 1726.10 228.895   1
  -1  -8 -10 1489.46 93.4083   2
   1  -8  10 1761.71 255.120   7
  -1  -8 -10 1560.94 278.380   4
   1   8  10 1662.64 393.322   3
   1   8  10 2116.15 281.241   6
   1   8  11 482.206 226.125   6
  -1  -8 -11 191.825 48.6105   2
   1  -8  11 429.326 194.394   1
  -1  -8 -11 149.548 214.619   4
   1   8  11 794.422 388.012   3
   1  -8  11 147.211 204.932   7
   1  -8  12 2595.28 281.445   1
  -1   8 -12 2244.08 372.358   4
  -1  -8 -12 3546.56 384.843   4
   1  -8  12 3156.87 338.394   7
   1   8  12 3219.07 534.096   3
   1   8  12 2816.15 330.467   6
   1   8  13 1324.15 463.680   3
  -1   8 -13 546.578 294.660   4
   1  -8  13 1142.64 244.419   1
   1   8  13 880.408 270.484   6
  -1  -8 -13 1215.70 313.660   4
   1  -8  13 942.214 262.145   7
  -1   8 -14 1364.55 379.953   5
  -1  -8 -14 1230.87 337.307   4
   1  -8  14 1167.52 255.927   1
  -1   8 -14 901.738 330.685   4
   1   8  14 2048.19 545.936   3
   1  -8  14 982.344 272.337   7
   1   8  14 498.947 251.425   6
   1  -8  15 737.570 282.773   6
  -1   8 -15 672.331 354.426   5
  -1   8 -15 136.012 322.252   4
  -1  -8 -15 667.399 307.282   4
   1   8  15 860.938 314.765   6
   1  -8  15 263.587 268.679   7
   1   8  15 663.963 461.030   3
   1  -8  16-10.2403 277.569   7
  -1   8 -16 176.950 323.651   5
   1   8  16-4.67465 282.460   6
   1   8  16-62.4887 483.617   3
  -1  -8 -16-220.643 281.793   4
   1  -8  16-228.321 274.961   6
  -1   8 -16 414.683 332.537   4
   1   8  17 1405.00 404.042   6
  -1   8 -17 1146.55 410.524   5
  -1   8 -17 37.0758 320.388   4
  -1  -8 -17 1656.69 397.668   4
   1  -8  17 1764.32 384.748   7
   1  -8  17 1465.64 383.023   6
   1   8  17 2118.55 620.896   3
  -1  -9  17 1001.84 299.184   7
   1   9 -17 1109.63 420.609   5
  -1   9  17 270.577 574.607   3
  -1  -9  16-59.5807 248.996   7
  -1   9  16 429.460 545.303   3
   1   9 -16-229.338 319.401   5
   1  -9 -16 118.039 204.064   4
   1   9 -15 662.794 265.207   4
  -1   9  15 303.745 508.214   3
   1  -9 -15 737.005 229.877   4
  -1   9  15 947.151 232.703   6
  -1  -9  15 956.151 243.226   7
  -1  -9  15 759.435 184.648   1
  -1  -9  14 1904.93 285.040   7
  -1  -9  14 1520.98 195.695   1
   1   9 -14 1717.76 306.520   4
   1  -9 -14 1755.53 258.520   4
  -1   9  14 1955.39 257.614   6
   1   9 -14 1310.54 385.391   5
  -1   9  14 1145.54 519.039   3
  -1   9  13-151.723 172.386   6
  -1  -9  13-10.0381 201.795   7
   1   9 -13-40.8885 282.556   5
   1  -9 -13 72.3411 166.405   4
  -1  -9  13 9.08504 115.131   2
   1   9 -13 192.120 213.544   4
  -1  -9  13 196.225 132.328   1
  -1   9  13 215.892 429.345   3
   1  -9 -12-54.5978 161.055   4
  -1  -9  12 219.821 125.845   2
  -1   9  12 459.720 167.195   6
  -1  -9  12 297.835 204.867   7
  -1   9  12 163.895 385.029   3
  -1   9  11-136.611 141.541   6
  -1   9  11-10.0041 33.3094   2
  -1  -9  11 172.294 116.546   2
   1  -9 -11 74.1090 141.597   4
  -1   9  11 9.46579 23.3657   2
  -1  -9  11-123.654 175.289   7
  -1   9  11 282.732 375.326   3
  -1   9  10 661.150 148.017   6
  -1  -9  10 635.252 121.209   2
  -1  -9  10 798.453 194.463   7
   1  -9 -10 590.667 169.012   4
  -1   9  10 265.925 50.9383   2
  -1   9   9 827.898 346.366   3
  -1  -9   9 1116.42 197.476   7
  -1  -9   9 1216.65 131.617   2
  -1   9   9 1302.11 154.103   6
  -1   9   9 805.555 82.1861   2
   1  -9  -9 1028.08 165.722   4
  -1   9   8 313.435 313.969   3
  -1  -9   8 142.255 90.8438   2
  -1  -9   8 132.675 145.626   7
   1  -9  -8 196.324 79.8240   1
  -1   9   8 237.403 108.548   6
   1  -9  -8 97.4993 127.303   4
  -1   9   8 146.378 74.5610   2
  -1   9   7 11300.8 415.758   4
   1  -9  -7 11577.9 379.623   4
   1  -9  -7 12193.1 300.438   1
  -1  -9   7 11937.2 304.524   2
  -1   9   7 10937.0 248.622   2
  -1   9   7 11689.4 655.712   3
  -1   9   7 12760.1 279.174   6
  -1  -9   7 12374.0 408.182   7
  -1   9   6 136.839 88.1178   2
   1   9  -6 535.387 137.149   2
  -1   9   6 141.557 118.282   4
  -1   9   6 158.328 67.0124   6
  -1  -9   6 207.020 136.697   7
   1  -9  -6 223.094 116.569   1
   1  -9  -6 126.752 115.215   4
  -1  -9   6 353.805 93.8641   2
  -1   9   6 280.719 280.490   3
  -1   9   5 51.3281 36.1505   6
   1  -9  -5 184.215 128.541   1
  -1   9   5-16.1431 281.147   3
  -1   9   5 74.4250 89.8365   2
  -1   9   5 77.7668 105.459   4
   1   9  -5 169.391 110.831   2
  -1  -9   5 178.606 91.9041   2
  -1   9   4 573.498 277.357   3
   1  -9  -4 638.810 271.726   3
  -1  -9   4 559.845 151.350   6
   1   9  -4 660.224 128.261   2
   1  -9  -4 715.228 150.405   1
  -1   9   4 667.776 120.691   2
  -1   9   4 587.546 132.388   4
  -1   9   4 585.438 103.160   1
  -1  -9   4 697.093 108.275   2
  -1   9   3 13833.8 580.652   3
  -1  -9   3 14725.1 318.508   2
  -1  -9   3 15431.1 428.181   6
  -1   9   3 15371.6 405.963   4
   1  -9  -3 15859.9 399.474   1
  -1   9   3 14951.5 323.476   1
   1  -9  -3 14289.8 604.993   3
   1   9  -3 15384.8 365.016   4
   1   9  -3 16251.0 369.203   2
   1  -9  -2 909.430 171.951   1
  -1   9   2 1067.70 136.482   1
   1  -9  -2 663.006 247.604   3
   1   9  -2 1024.43 163.283   6
  -1  -9   2 1142.74 132.339   2
  -1   9   2 651.475 249.353   3
   1   9  -2 1046.95 130.397   4
   1   9  -2 1127.02 142.431   2
  -1  -9   2 1082.54 161.698   6
  -1   9   1 13080.6 334.094   1
   1  -9  -1 11529.4 534.688   3
   1   9  -1 12470.3 377.010   6
   1  -9  -1 13016.5 380.217   1
   1   9  -1 13730.1 339.919   2
  -1  -9   1 14283.2 315.963   2
   1   9  -1 13713.8 356.129   4
  -1  -9   1 14287.6 420.096   3
  -1  -9   1 13015.6 391.398   6
  -1   9   1 12291.5 218.451   7
   1  -9  -1 14324.3 240.437   7
  -1   9   1 12518.2 537.112   3
   1  -9   0 330.050 151.885   1
  -1  -9   0 552.808 186.454   3
  -1  -9   0 495.669 144.894   6
   1   9   0 391.813 141.057   6
   1  -9   0-30.8165 228.109   3
  -1   9   0 379.417 99.5316   7
   1  -9   0 267.669 99.9306   7
   1   9   0 364.138 115.898   4
  -1  -9   0 361.583 101.453   2
  -1  -9   0 430.322 119.409   4
   1   9   0 339.322 115.268   2
  -1   9   0 368.935 125.041   1
  -1   9   0 500.818 203.730   3
  -1  -9  -1 15555.6 409.097   4
  -1  -9  -1 14232.4 401.912   6
  -1   9  -1 13005.3 357.244   1
   1  -9   1 12678.0 531.503   3
   1  -9   1 12921.4 393.300   1
   1   9   1 13847.3 342.322   2
  -1   9  -1 13964.6 307.810   7
   1   9   1 15357.6 426.092   4
   1   9   1 15540.2 406.654   3
   1  -9   1 14177.6 312.231   7
  -1  -9  -1 14424.4 443.040   3
  -1  -9  -1 15009.3 323.598   2
   1   9   1 12937.7 392.009   6
   1   9   2 1647.14 184.535   4
   1  -9   2 1747.32 270.553   3
   1   9   2 1362.95 149.118   2
   1   9   2 2008.66 229.051   3
   1  -9   2 1273.20 186.503   1
  -1  -9  -2 1776.26 145.397   2
  -1  -9  -2 1548.60 173.579   4
   1   9   2 1696.96 187.448   6
  -1   9  -2 1161.03 149.345   1
   1  -9   2 1345.51 157.894   7
  -1   9  -2 1206.28 151.233   2
  -1  -9  -2 1923.79 234.781   3
  -1  -9  -2 1427.59 175.130   6
  -1   9  -2 1315.18 150.581   7
   1   9   3 800.907 138.365   2
  -1  -9  -3 548.380 154.674   6
   1  -9   3 269.113 181.346   3
   1  -9   3 674.949 148.829   7
  -1  -9  -3 663.065 108.340   2
   1   9   3 896.599 172.282   4
  -1   9  -3 609.954 137.419   7
  -1   9  -3 435.695 120.474   2
  -1   9  -3 510.117 127.048   1
  -1  -9  -3 562.714 145.651   4
   1  -9   3 330.848 153.293   1
   1   9   3 783.753 205.680   3
   1   9   3 587.068 169.288   6
  -1  -9  -3 770.375 201.150   3
   1   9   4 4968.58 283.578   6
  -1  -9  -4 5195.36 291.387   4
   1   9   4 5242.42 334.246   3
  -1  -9  -4 4253.25 212.250   1
   1  -9   4 3620.13 250.200   1
   1   9   4 4540.39 227.021   2
  -1   9  -4 3428.29 206.561   2
  -1   9  -4 4236.57 241.725   7
  -1  -9  -4 4536.21 267.762   6
  -1  -9  -4 4666.53 323.938   3
   1  -9   4 4538.99 250.542   7
  -1  -9  -4 4876.16 189.851   2
   1   9   5 173.319 139.268   6
   1  -9   5 220.986 154.868   1
   1  -9   5 560.929 160.809   7
   1   9   5 291.408 122.425   2
   1   9   5 374.378 219.129   3
  -1  -9  -5 80.9205 194.929   3
  -1  -9  -5 35.9741 100.877   1
  -1  -9  -5 224.140 159.264   4
  -1  -9  -5 273.669 92.1029   2
  -1  -9  -5 398.749 148.251   6
   1   9   6 2038.64 301.131   3
   1   9   6 1560.67 168.683   2
   1  -9   6 1344.11 205.540   1
  -1  -9  -6 1700.19 123.340   2
  -1  -9  -6 1608.87 228.807   4
   1   9   6 1737.14 211.153   6
   1  -9   6 1265.99 189.567   7
  -1  -9  -6 1463.98 156.691   1
  -1  -9  -6 1621.75 261.483   3
  -1  -9  -7 1000.73 220.731   4
   1  -9   7 861.824 188.280   7
   1  -9   7 814.924 175.621   1
  -1  -9  -7 729.660 93.9950   2
  -1  -9  -7 623.524 132.664   1
   1   9   7 933.949 277.136   3
   1   9   7 816.630 193.280   6
   1  -9   8 902.759 199.674   1
  -1  -9  -8 842.484 95.4488   2
  -1  -9  -8 821.742 231.745   4
  -1  -9  -8 713.801 130.138   1
   1  -9   8 906.929 211.829   7
   1   9   8 724.553 272.197   3
   1   9   8 930.940 199.758   6
  -1  -9  -9 10317.0 220.324   2
   1  -9   9 10583.1 431.021   1
  -1  -9  -9 11180.5 541.294   4
  -1  -9  -9 10507.5 289.927   1
   1   9   9 11298.9 643.936   3
   1  -9   9 10575.7 456.957   7
   1   9   9 10804.7 472.334   6
   1  -9  10 2111.85 284.884   7
   1  -9  10 1453.80 216.058   1
  -1  -9 -10 1682.29 127.313   1
   1   9  10 2153.70 276.895   6
   1   9  10 2395.68 414.347   3
  -1  -9 -10 1872.55 108.668   2
  -1  -9 -10 1752.52 289.722   4
   1  -9  11 2709.46 266.770   1
  -1  -9 -11 2560.30 101.767   2
   1   9  11 2512.51 309.828   6
   1  -9  11 2755.39 309.713   7
   1   9  11 3078.08 482.106   3
   1   9  12 760.578 409.551   3
   1  -9  12-210.655 201.954   1
   1   9  12 462.663 238.160   6
  -1  -9 -12 294.232 262.351   4
   1  -9  12 314.205 230.973   7
   1  -9  13 2494.85 333.440   7
  -1   9 -13 2492.75 404.198   4
   1  -9  13 2242.94 290.289   1
  -1  -9 -13 2605.34 367.944   4
   1   9  13 1972.37 317.360   6
   1   9  13 2764.97 526.145   3
  -1   9 -14 112.687 291.963   4
   1   9  14-40.7916 248.378   6
   1   9  14 582.778 433.204   3
   1  -9  14 240.435 258.771   7
  -1  -9 -14 374.886 287.102   4
   1  -9  14 435.994 225.445   1
  -1   9 -14-73.9650 308.469   5
   1  -9  15 649.452 298.026   7
  -1   9 -15-116.954 322.116   5
  -1   9 -15 136.712 304.473   4
  -1  -9 -15-296.733 317.504   4
   1  -9  15-46.9979 261.770   6
   1   9  15-147.419 267.809   6
   1   9  15 959.282 512.502   3
   1  -9  16 777.176 319.467   6
   1   9  16 756.273 302.786   6
  -1   9 -16 359.290 339.851   4
  -1   9 -16 439.508 364.856   5
   1   9  16 860.046 523.341   3
  -1  -9 -16 527.535 334.929   4
   1  -9  16 853.541 331.451   7
   1   9  17-279.478 330.473   6
  -1   9 -17 57.5593 377.624   5
   1  -9  17 243.951 318.895   7
   1  -9  17 120.858 295.897   6
   1  10 -17-208.937 364.582   5
  -1 -10  17 20.6325 268.210   7
  -1  10  17 254.187 561.352   3
   1  10 -16 874.807 386.657   5
   1 -10 -16 1112.66 251.841   4
  -1  10  16 1554.29 628.692   3
  -1 -10  16 1179.05 292.147   7
  -1  10  15 253.310 214.264   6
  -1  10  15 370.260 501.993   3
   1  10 -15 387.038 256.676   4
  -1 -10  15 612.440 175.495   1
   1 -10 -15 279.054 204.212   4
  -1 -10  15 562.994 266.948   7
   1  10 -15 319.147 345.565   5
   1  10 -14 2029.92 394.997   5
   1  10 -14 1959.93 318.140   4
  -1  10  14 2507.59 579.328   3
   1 -10 -14 1719.99 258.602   4
  -1 -10  14 2106.37 229.460   1
  -1 -10  14 2301.41 308.539   7
  -1  10  14 2239.94 276.910   6
  -1 -10  13 427.388 133.444   2
  -1  10  13 102.907 416.297   3
  -1  10  13 405.017 190.091   6
  -1 -10  13 446.149 147.225   1
   1 -10 -13 197.511 180.386   4
  -1 -10  13 348.923 220.743   7
   1 -10 -12 831.269 213.506   4
  -1 -10  12 1384.83 175.092   2
  -1  10  12 647.964 417.974   3
  -1 -10  12 1109.40 218.084   7
  -1  10  12 1207.94 197.831   6
  -1  10  11 440.091 402.368   3
  -1 -10  11 488.095 133.264   2
   1 -10 -11 647.990 186.720   4
  -1 -10  11 686.316 204.907   7
  -1  10  11 542.700 161.749   6
  -1  10  10 2798.99 473.566   3
   1 -10 -10 2959.10 258.204   4
  -1 -10  10 3057.02 200.655   2
  -1  10  10 2125.08 96.1893   2
  -1 -10  10 3120.51 275.578   7
  -1  10  10 3340.52 223.058   6
  -1  10   9 55.0667 109.547   6
   1 -10  -9 12.6868 50.0418   1
  -1 -10   9 149.978 164.009   7
  -1 -10   9-38.3556 108.897   2
  -1  10   9 11.3624 321.535   3
   1 -10  -9 97.7141 124.438   4
  -1  10   9 22.0343 70.3504   2
   1 -10  -8 7968.86 349.528   4
  -1 -10   8 8265.62 267.807   2
  -1  10   8 7201.01 199.868   2
   1 -10  -8 7576.97 221.973   1
  -1  10   8 8776.55 263.118   6
  -1  10   8 7376.18 594.109   3
  -1 -10   8 8675.12 376.097   7
  -1  10   7 38.2877 82.8018   2
  -1  10   7-354.914 327.224   3
   1 -10  -7-87.6980 119.168   4
   1 -10  -7-97.5188 107.220   1
  -1 -10   7 247.402 149.883   7
  -1  10   7-25.4437 76.9187   6
  -1 -10   7 7.02838 91.8916   2
  -1  10   6 9192.20 390.324   4
  -1 -10   6 9198.08 273.280   2
  -1  10   6 8835.47 251.203   2
  -1  10   6 7889.43 181.564   6
   1 -10  -6 9594.88 301.954   1
  -1 -10   6 8654.46 344.060   7
  -1  10   6 8621.29 578.793   3
  -1  10   5 60.3415 248.662   3
  -1  10   5 73.8852 96.2021   2
   1 -10  -5 139.106 124.919   1
  -1 -10   5 240.184 97.0518   2
  -1  10   5 61.8074 115.709   4
  -1  10   4 2714.04 362.042   3
  -1 -10   4 3030.77 167.642   2
  -1  10   4 2832.34 213.490   4
   1 -10  -4 2856.16 210.188   1
  -1  10   4 2560.13 174.686   2
  -1  10   3 301.377 108.058   1
   1  10  -3 440.092 118.067   2
  -1  10   3 628.829 141.635   4
   1 -10  -3 250.353 137.549   1
  -1  10   3 370.631 245.769   3
  -1  10   3 281.721 115.418   2
   1  10  -3 488.212 109.210   4
  -1 -10   3 477.710 107.436   2
  -1 -10   3 469.803 155.896   6
  -1 -10   2 12764.7 404.781   6
   1  10  -2 11579.6 382.525   6
   1 -10  -2 11916.9 186.355   7
  -1  10   2 12048.6 318.467   1
   1  10  -2 13297.3 363.180   4
  -1  10   2 12247.9 411.600   4
   1  10  -2 12446.4 340.331   2
  -1 -10   2 12829.5 305.453   2
  -1  10   2 11437.8 315.716   2
   1 -10  -2 12465.2 376.816   1
   1 -10  -2 11749.9 560.708   3
  -1  10   2 11485.0 523.578   3
   1  10  -1 1842.09 191.708   6
   1 -10  -1 1904.06 99.6858   6
  -1  10   1 2412.13 329.160   3
  -1  10   1 2047.58 166.289   1
   1  10  -1 1918.06 161.858   2
   1 -10  -1 2096.45 205.319   1
   1  10  -1 2262.69 178.944   4
   1 -10  -1 1877.90 293.378   3
  -1 -10   1 2049.97 153.917   2
  -1  10   1 1849.43 166.963   2
   1 -10  -1 2345.72 124.474   7
  -1 -10   1 2331.45 245.901   3
  -1 -10   1 2042.66 200.730   6
   1 -10   0 106.939 140.345   1
  -1 -10   0 220.549 178.595   3
   1 -10   0 8.40292 235.989   3
  -1  10   0 305.226 120.667   1
  -1 -10   0 165.776 140.186   6
  -1 -10   0 250.251 108.092   2
  -1  10   0 333.655 206.238   3
   1  10   0 197.006 123.055   6
  -1  10   0 276.162 123.175   2
   1  10   0 435.655 123.733   4
  -1 -10   0 277.455 118.496   4
  -1  10   0 226.730 91.6621   7
   1  10   0 275.458 116.982   2
   1 -10   0 212.464 98.9751   7
   1 -10   1 751.757 258.173   3
  -1  10  -1 619.884 136.789   1
   1  10   1 537.243 143.545   6
   1 -10   1 787.458 168.096   1
   1  10   1 865.630 134.399   2
  -1 -10  -1 589.743 191.458   3
  -1 -10  -1 810.531 120.728   2
  -1 -10  -1 859.654 145.996   4
   1 -10   1 701.873 120.173   7
   1  10   1 567.308 143.286   4
  -1  10  -1 530.069 125.887   2
   1  10   1 820.147 168.425   3
  -1 -10  -1 634.988 151.921   6
  -1  10  -1 707.468 122.180   7
  -1 -10  -2 416.088 202.921   3
  -1  10  -2 339.360 124.965   2
  -1 -10  -2 274.817 143.294   6
   1 -10   2 71.3147 221.143   3
  -1 -10  -2 340.991 106.425   2
   1  10   2 261.902 188.890   3
   1  10   2 317.716 149.630   6
  -1  10  -2 333.949 128.033   7
   1 -10   2 74.7429 138.830   1
   1  10   2 286.851 140.186   4
   1 -10   2 239.057 126.725   7
  -1  10  -2 120.240 114.408   1
  -1 -10  -2 400.372 139.453   4
   1  10   2 279.571 116.396   2
  -1 -10  -3 71.2580 182.052   3
  -1 -10  -3 193.212 141.145   6
   1  10   3 123.825 186.019   3
   1  10   3 236.602 146.834   6
  -1 -10  -3 110.829 93.9402   2
  -1 -10  -3 16.3064 130.916   4
   1  10   3 136.241 113.619   2
  -1  10  -3 213.018 134.917   7
   1 -10   3 83.4338 143.690   1
   1 -10   3 88.0896 127.773   7
   1  10   4 1097.29 170.980   6
   1 -10   4 994.935 162.427   7
   1 -10   4 926.291 182.895   1
  -1 -10  -4 1065.95 119.230   2
  -1 -10  -4 1169.64 181.002   4
  -1  10  -4 1101.30 167.688   7
   1  10   4 1276.45 234.477   3
   1  10   4 955.156 146.428   2
  -1 -10  -4 1059.57 225.625   3
  -1 -10  -4 1156.72 179.810   6
  -1 -10  -5 5713.72 306.536   6
   1  10   5 4930.87 247.227   2
  -1 -10  -5 5250.71 318.188   4
   1  10   5 5185.09 294.566   6
  -1 -10  -5 5385.92 194.878   2
   1 -10   5 4859.74 276.611   7
  -1 -10  -5 5129.68 362.789   3
   1 -10   5 4270.49 278.778   1
  -1 -10  -5 4223.74 223.089   1
   1  10   5 5568.11 374.477   3
  -1 -10  -6 399.907 205.221   3
  -1 -10  -6 604.421 95.0481   2
   1 -10   6 409.786 157.194   1
   1 -10   6 549.028 169.713   7
   1  10   6 494.319 136.520   2
  -1 -10  -6 647.427 189.640   4
  -1 -10  -6 432.118 121.922   1
   1  10   6 562.171 253.562   3
   1  10   6 767.536 186.750   6
   1  10   7 344.810 267.001   3
   1  10   7 257.425 170.100   6
   1 -10   7 189.288 156.245   1
   1  10   7-11.1806 122.159   2
  -1 -10  -7 184.455 166.145   4
  -1 -10  -7 230.828 85.6870   2
   1 -10   7 415.973 171.795   7
  -1 -10  -7 90.7344 117.054   1
   1  10   8 578.642 193.153   6
   1 -10   8 379.351 183.488   7
   1 -10   8 199.011 159.196   1
  -1 -10  -8 226.502 123.710   1
  -1 -10  -8 111.057 172.256   4
  -1 -10  -8 323.972 89.8127   2
   1  10   8 89.4959 273.551   3
   1 -10   9 2536.03 265.123   1
   1  10   9 2705.06 409.189   3
  -1 -10  -9 2309.54 297.621   4
  -1 -10  -9 2529.71 137.501   2
  -1 -10  -9 2475.82 177.438   1
   1  10   9 2191.39 273.195   6
   1 -10   9 2207.58 272.858   7
  -1 -10 -10 2407.92 155.429   1
  -1 -10 -10 2950.57 335.707   4
  -1 -10 -10 2443.35 132.048   2
   1 -10  10 2466.76 293.897   7
   1  10  10 2302.06 288.319   6
   1  10  10 2639.47 448.596   3
   1 -10  10 1735.86 240.423   1
   1  10  11 743.185 225.295   6
   1 -10  11 1290.17 250.156   1
  -1 -10 -11 1027.07 90.4066   2
  -1 -10 -11 1173.98 273.216   4
   1 -10  11 1155.99 254.289   7
   1  10  11 1292.74 423.880   3
   1  10  12 576.816 238.388   6
   1 -10  12 774.030 230.513   1
   1  10  12 702.547 380.724   3
  -1 -10 -12 505.222 258.531   4
   1 -10  12 787.427 252.830   7
   1  10  13 349.058 236.779   6
   1 -10  13 118.489 203.478   1
   1  10  13 188.531 393.068   3
  -1 -10 -13-242.552 261.249   4
   1 -10  13 272.967 246.148   7
   1  10  14 16.2255 245.582   6
   1 -10  14 193.874 215.214   1
  -1  10 -14 617.963 346.461   4
  -1 -10 -14 93.5051 256.165   4
   1 -10  14-166.202 290.711   7
   1  10  14-137.385 457.172   3
   1 -10  15 304.384 280.475   7
  -1  10 -15 467.497 363.104   5
  -1  10 -15 150.335 303.909   4
   1 -10  15 706.729 238.965   1
  -1 -10 -15 357.683 284.810   4
   1  10  15-537.754 485.865   3
   1  10  15 300.332 269.426   6
   1 -10  16 265.071 299.035   7
   1  10  16-54.6149 290.187   6
   1 -10  16-507.337 295.388   6
  -1  10 -16-136.292 358.983   5
   1  10  16 648.865 501.943   3
  -1  10 -16 145.474 344.180   4
  -1 -10 -16-173.878 285.974   4
  -1  11  17 850.164 618.266   3
  -1 -11  17-126.722 269.782   7
   1  11 -17 36.1595 383.923   5
  -1  11  16 926.288 605.257   3
   1  11 -16 305.838 338.050   5
   1 -11 -16-48.4352 207.246   4
  -1 -11  16 47.6610 254.052   7
   1  11 -15 722.441 361.465   5
  -1  11  15 863.339 474.567   3
   1  11 -15 1050.93 292.790   4
  -1 -11  15 903.292 205.480   1
  -1 -11  15 945.858 276.572   7
   1 -11 -15 862.363 250.301   4
  -1 -11  14-155.718 231.626   7
  -1  11  14-26.5200 190.383   6
   1  11 -14-70.0490 234.267   4
   1 -11 -14 153.005 203.517   4
  -1 -11  14-114.048 148.925   1
  -1  11  14-356.876 510.993   3
  -1  11  13-64.0457 437.484   3
  -1 -11  13 61.0883 145.737   1
   1 -11 -13-98.6236 169.157   4
  -1 -11  13 5.13971 205.917   7
  -1 -11  13 145.747 134.802   2
  -1  11  13-192.571 185.106   6
  -1 -11  12 721.256 161.906   2
  -1  11  12 898.930 190.382   6
  -1 -11  12 1007.64 240.909   7
   1 -11 -12 566.710 196.055   4
  -1  11  12 945.173 466.444   3
   1 -11 -11 132.531 165.600   4
  -1  11  11-47.3899 140.849   6
  -1 -11  11 202.417 185.186   7
  -1  11  11 203.103 400.510   3
  -1 -11  11-122.050 127.235   2
  -1  11  10 124.916 67.4630   2
  -1  11  10 491.013 148.418   6
  -1 -11  10 380.238 186.266   7
   1 -11 -10 597.736 180.762   4
  -1 -11  10 296.028 127.499   2
  -1  11  10 472.680 378.073   3
  -1 -11   9 1220.54 218.243   7
  -1  11   9 1204.06 105.052   2
  -1 -11   9 1291.48 154.669   2
   1 -11  -9 1257.85 104.569   1
  -1  11   9 1630.24 426.140   3
  -1  11   9 1442.06 154.905   6
   1 -11  -9 1179.06 194.230   4
  -1  11   8 270.146 101.495   6
  -1 -11   8 75.4852 104.267   2
  -1  11   8 365.298 345.075   3
   1 -11  -8 275.322 108.911   1
   1 -11  -8 244.880 135.469   4
  -1 -11   8 408.678 171.852   7
  -1  11   8 92.0201 81.9993   2
  -1 -11   7 22.6588 143.604   7
  -1  11   7 329.223 293.264   3
  -1 -11   7 208.125 106.835   2
   1 -11  -7 287.288 128.402   1
   1 -11  -7 181.435 125.469   4
  -1  11   7 70.9130 71.2993   6
  -1  11   7 174.915 93.8859   2
  -1  11   6 21.9345 94.1731   2
   1 -11  -6-46.5541 123.736   1
  -1  11   6 25.4383 47.4827   6
  -1 -11   6 65.0379 101.652   2
  -1 -11   6-87.4380 139.051   7
  -1  11   6 162.495 276.469   3
  -1  11   5 21.4705 100.539   2
  -1  11   5 17.4010 258.505   3
  -1 -11   5 108.327 93.0684   2
   1 -11  -5 139.265 133.379   1
   1 -11  -4 430.239 142.215   1
  -1  11   4 760.079 278.578   3
  -1  11   4 463.032 148.909   4
  -1 -11   4 586.029 114.088   2
  -1  11   4 503.161 125.798   2
   1  11  -4 452.473 120.241   4
   1 -11  -3 3583.31 233.442   1
  -1  11   3 4024.61 244.481   4
   1  11  -3 3353.50 210.004   4
  -1  11   3 3787.29 206.534   2
  -1 -11   3 3524.10 182.015   2
  -1  11   3 3277.55 362.240   3
  -1  11   2 5373.24 292.739   4
  -1  11   2 5300.72 411.673   3
  -1 -11   2 6267.40 332.254   3
   1 -11  -2 6281.56 292.516   1
  -1 -11   2 6031.19 226.162   2
   1  11  -2 5610.80 263.571   4
   1 -11  -2 5873.10 144.392   7
  -1  11   2 5466.76 239.203   2
   1  11  -2 5475.94 277.532   6
  -1 -11   2 5180.89 298.287   6
   1 -11  -2 4336.34 118.612   6
  -1  11   1 716.388 265.052   3
   1  11  -1 543.574 142.911   6
   1 -11  -1 919.888 170.759   1
  -1  11   1 974.807 143.425   2
  -1 -11   1 1088.77 129.786   2
   1  11  -1 891.306 148.937   4
   1 -11  -1 888.513 83.8309   6
  -1 -11   1 1292.26 231.455   3
   1 -11  -1 1088.57 108.023   7
  -1 -11   1 1006.39 167.484   6
  -1 -11   0 468.247 160.197   6
   1 -11   0 380.091 106.222   7
  -1 -11   0 360.866 197.367   3
   1  11   0 306.655 133.826   6
  -1  11   0 495.416 220.850   3
   1  11   0 321.208 118.257   4
   1  11   0 161.237 106.349   2
  -1 -11   0 433.228 133.604   4
  -1  11   0 533.981 147.467   2
   1 -11   0 231.643 143.627   1
  -1 -11   0 259.614 107.984   2
  -1 -11  -1 1043.10 164.547   6
   1 -11   1 1193.94 177.945   1
   1  11   1 1177.38 146.679   2
  -1 -11  -1 1174.78 129.788   2
   1  11   1 821.430 156.458   6
   1 -11   1 1364.78 147.380   7
  -1  11  -1 1164.25 139.807   7
  -1 -11  -1 931.393 210.462   3
  -1 -11  -1 1257.61 162.893   4
   1  11   1 1208.92 170.086   4
  -1  11  -2 7439.72 274.098   7
  -1 -11  -2 8759.98 350.486   4
   1 -11   2 7249.76 332.998   1
   1  11   2 8044.96 338.427   6
   1  11   2 8104.66 292.700   2
  -1 -11  -2 8349.61 255.022   2
  -1 -11  -2 8572.27 421.425   3
   1 -11   2 7705.87 277.131   7
  -1 -11  -2 7944.50 333.397   6
   1  11   2 9398.51 397.564   3
   1 -11   3 1044.88 161.407   7
  -1 -11  -3 1142.17 121.354   2
   1 -11   3 811.139 172.243   1
   1  11   3 1001.66 143.429   2
  -1 -11  -3 1215.61 178.585   4
  -1  11  -3 1129.34 159.696   7
   1  11   3 1391.04 236.289   3
   1  11   3 981.219 174.411   6
  -1 -11  -3 1172.91 178.322   6
  -1 -11  -3 930.173 236.121   3
   1  11   4 2968.88 239.798   6
   1  11   4 2996.31 202.784   2
  -1 -11  -4 2923.56 163.744   2
  -1 -11  -4 3154.30 250.675   4
   1  11   4 3077.52 293.005   3
   1 -11   4 2914.37 223.467   7
  -1 -11  -4 3067.20 316.262   3
   1 -11   4 2844.75 236.225   1
  -1 -11  -4 2936.38 235.268   6
  -1 -11  -5 5323.14 328.412   4
   1  11   5 4774.20 245.031   2
   1  11   5 4772.85 289.886   6
  -1 -11  -5 4830.95 190.581   2
  -1 -11  -5 3989.54 226.908   1
   1  11   5 6135.08 398.157   3
   1 -11   5 5115.04 303.024   1
   1 -11   5 4800.08 281.381   7
  -1 -11  -5 5747.31 394.241   3
   1  11   6 3697.80 272.412   6
   1  11   6 3275.21 219.139   2
   1  11   6 3660.10 363.976   3
  -1 -11  -6 3651.60 170.173   2
   1 -11   6 3733.02 263.794   7
   1 -11   6 3342.79 264.222   1
  -1 -11  -6 3154.47 208.065   1
  -1 -11  -6 3784.39 347.357   3
  -1 -11  -6 3759.32 291.173   4
   1  11   7 4085.97 252.676   2
   1 -11   7 3829.64 278.541   1
  -1 -11  -7 4760.33 339.193   4
  -1 -11  -7 4470.12 180.327   2
   1  11   7 4482.37 310.842   6
  -1 -11  -7 3470.74 224.249   1
   1  11   7 4903.24 430.044   3
   1 -11   7 4805.15 309.069   7
   1 -11   8 4847.53 322.410   1
  -1 -11  -8 4757.35 189.644   2
  -1 -11  -8 4954.00 371.780   4
  -1 -11  -8 4989.06 240.887   1
   1 -11   8 4702.25 317.485   7
   1  11   8 5689.64 485.712   3
   1  11   8 4880.57 335.488   6
  -1 -11  -9 5495.06 198.148   2
   1 -11   9 4925.49 328.411   1
  -1 -11  -9 5736.38 411.831   4
   1 -11   9 5167.18 348.946   7
  -1 -11  -9 4899.91 225.197   1
   1  11   9 5230.01 500.671   3
   1  11   9 4916.39 347.327   6
  -1 -11 -10 1829.49 300.912   4
   1 -11  10 1817.09 256.327   1
  -1 -11 -10 1608.64 128.829   2
   1 -11  10 1598.54 261.476   7
   1  11  10 2009.76 415.197   3
   1  11  10 1561.86 264.861   6
   1  11  11 1028.77 385.624   3
   1 -11  11 562.919 217.863   1
  -1 -11 -11 614.176 240.571   4
   1  11  11 1125.35 252.331   6
   1 -11  11 1115.80 259.026   7
  -1 -11 -11 1071.76 109.326   2
   1 -11  12 143.621 200.345   1
   1 -11  12 762.225 255.880   7
   1  11  12 851.981 408.228   3
  -1 -11 -12 814.429 279.644   4
   1  11  12 720.108 255.429   6
   1 -11  13 1759.31 279.015   1
   1 -11  13 2173.43 319.300   7
  -1 -11 -13 2282.92 360.609   4
   1  11  13 2118.14 314.494   6
   1 -11  14 753.353 289.707   7
   1  11  14 418.448 280.083   6
   1 -11  14 595.112 244.569   1
  -1  11 -14 605.898 345.499   4
   1  11  14 585.734 462.507   3
  -1 -11 -14 303.604 260.054   4
  -1  11 -15 590.979 361.600   5
   1 -11  15-70.1835 278.948   7
  -1  11 -15-338.709 343.442   4
   1 -11  15 21.6900 222.411   1
   1  11  15 206.535 281.659   6
  -1 -11 -15 146.427 268.987   4
   1  11  15 319.329 469.883   3
   1  11  16 546.216 503.866   3
  -1  11 -16 402.098 380.779   5
   1 -11  16-39.8279 295.974   7
  -1  11 -16-150.448 352.184   4
  -1 -11 -16 171.456 318.543   4
   1  11  16 265.649 298.273   6
   1 -11  16-167.967 297.524   6
   1  12 -17 627.500 430.149   5
  -1 -12  17 157.438 287.557   7
  -1  12  17 951.391 678.921   3
   1 -12 -16 729.113 255.976   4
  -1 -12  16 1113.73 298.607   7
  -1  12  16 723.338 577.493   3
   1  12 -16 415.659 370.269   5
  -1 -12  15 4300.59 328.747   1
   1  12 -15 3415.64 496.935   5
   1 -12 -15 3232.97 357.118   4
  -1 -12  15 4387.01 414.001   7
  -1  12  15 3611.08 685.859   3
   1  12 -15 2684.49 377.604   4
  -1  12  14 672.112 501.581   3
   1 -12 -14-98.7081 186.013   4
  -1 -12  14 396.528 239.877   7
  -1 -12  14-148.212 157.792   1
  -1 -12  13 188.329 141.757   2
  -1 -12  13 150.327 220.302   7
  -1 -12  13-33.2090 140.939   1
  -1  12  13-250.394 186.732   6
   1 -12 -13 83.6769 178.663   4
  -1  12  13-61.5175 444.666   3
   1 -12 -12 580.446 216.116   4
  -1 -12  12 789.950 163.378   2
  -1  12  12 880.006 193.076   6
  -1 -12  12 867.612 228.973   7
  -1  12  12 577.845 431.008   3
  -1  12  11 346.431 152.335   6
  -1  12  11 411.862 428.717   3
  -1 -12  11 540.394 209.597   7
   1 -12 -11 501.710 191.892   4
  -1 -12  11 617.203 152.888   2
  -1 -12  10 280.832 131.945   2
  -1  12  10 232.786 379.230   3
  -1  12  10 135.907 125.706   6
   1 -12 -10 337.793 160.733   4
  -1 -12  10 280.385 186.480   7
  -1 -12   9 3338.43 285.227   7
  -1  12   9 2448.88 133.058   2
   1 -12  -9 2882.68 271.600   4
  -1 -12   9 3381.14 215.620   2
   1 -12  -9 2864.65 153.984   1
  -1  12   9 3069.49 478.721   3
  -1  12   9 3320.55 195.609   6
   1 -12  -8 2825.49 247.454   4
  -1  12   8 2612.10 147.636   2
  -1 -12   8 3086.62 210.760   2
  -1  12   8 3069.83 450.855   3
  -1 -12   8 3031.98 263.680   7
   1 -12  -8 2945.21 188.659   1
  -1  12   8 2901.32 158.148   6
   1 -12  -7-205.927 134.629   1
  -1 -12   7 215.555 116.464   2
  -1  12   7 123.822 67.6841   6
  -1 -12   7 216.602 165.938   7
  -1  12   7 274.051 100.883   2
  -1  12   7-210.415 283.516   3
  -1 -12   6-135.614 151.262   7
  -1  12   6-59.1378 95.1343   2
  -1  12   6 9.06934 38.4685   6
   1 -12  -6-121.730 134.607   1
  -1 -12   6-8.24082 100.301   2
   1 -12  -5 1300.46 176.116   1
  -1  12   5 1237.79 139.245   2
  -1 -12   5 1232.91 140.902   2
  -1  12   5 832.911 294.960   3
  -1  12   4 5387.28 466.308   3
   1 -12  -4 6102.81 293.604   1
  -1 -12   4 6034.02 238.575   2
  -1  12   4 5742.81 233.488   2
   1  12  -4 5192.05 277.335   4
  -1  12   3 642.432 127.560   2
   1 -12  -3 278.475 40.9401   7
   1 -12  -3 636.389 150.916   1
  -1 -12   3 518.519 115.863   2
  -1  12   3 643.366 279.079   3
   1  12  -3 570.721 128.674   4
  -1  12   2 269.509 240.696   3
   1 -12  -2 348.626 151.958   1
   1 -12  -2 180.367 55.8080   6
   1  12  -2 226.992 123.928   6
  -1 -12   2 74.7166 167.885   3
   1  12  -2 288.291 119.257   4
   1 -12  -2 87.8550 64.6165   7
  -1 -12   2 300.150 102.074   2
   1 -12  -1 112.805 137.764   1
  -1 -12   1-16.6845 207.219   3
   1 -12  -1 67.2253 71.9408   6
  -1  12   1-143.545 214.136   3
  -1 -12   1-10.3296 131.041   6
   1  12  -1-19.4406 120.558   6
  -1 -12   1-28.4773 99.7149   2
   1  12  -1 60.5226 109.588   4
   1 -12  -1 117.338 85.8317   7
   1  12   0 267.201 133.054   6
  -1 -12   0 580.525 118.089   2
  -1 -12   0 419.191 151.165   6
   1 -12   0 476.012 160.389   1
   1 -12   0 535.649 89.0832   6
   1 -12   0 461.711 110.493   7
  -1  12   0 977.615 241.943   3
  -1 -12   0 542.583 214.847   3
  -1 -12  -1 7803.79 325.964   4
   1 -12   1 7237.15 328.215   1
  -1 -12  -1 7632.46 402.900   3
   1 -12   1 8054.03 269.983   7
  -1 -12  -1 7100.01 245.449   2
  -1 -12  -1 6818.48 312.313   6
  -1  12  -1 6342.40 250.798   7
   1  12   1 6830.55 314.101   6
   1 -12   2 2845.35 238.948   1
   1  12   2 2600.01 220.513   6
  -1 -12  -2 2946.08 172.851   2
   1  12   2 3387.95 285.088   3
  -1  12  -2 2469.72 189.077   7
  -1 -12  -2 3059.86 220.880   4
   1 -12   2 2857.24 199.469   7
  -1 -12  -2 2825.76 303.761   3
  -1 -12  -2 2832.31 225.148   6
  -1 -12  -3-38.7659 95.4776   2
   1 -12   3-56.7914 138.486   1
  -1 -12  -3-51.5263 212.558   3
   1  12   3-153.175 212.486   3
   1  12   3 134.015 137.946   6
  -1 -12  -3-210.764 154.005   6
  -1 -12  -3 220.817 141.153   4
  -1  12  -3 144.102 128.451   7
   1 -12   3 77.6944 127.782   7
   1 -12   4 5.93696 141.686   1
   1 -12   4-84.2212 130.967   7
   1  12   4 131.164 146.898   6
  -1 -12  -4 62.2390 138.009   4
   1  12   4-12.7961 113.081   2
   1  12   4 184.185 218.950   3
  -1 -12  -4 41.5300 95.7137   2
  -1 -12  -4 187.395 212.309   3
   1  12   5 546.701 235.658   3
  -1 -12  -5 534.556 242.561   3
  -1 -12  -5 596.037 107.487   2
   1 -12   5 645.241 161.197   7
   1  12   5 477.160 166.247   6
   1  12   5 419.195 128.756   2
  -1 -12  -5 801.196 179.842   4
  -1 -12  -5 501.800 125.347   1
   1 -12   5 725.498 175.368   1
   1  12   6 807.293 275.685   3
   1  12   6 638.779 181.437   6
  -1 -12  -6 641.948 188.613   4
   1  12   6 528.179 138.998   2
  -1 -12  -6 555.455 102.459   2
  -1 -12  -6 561.346 127.206   1
   1 -12   6 204.853 149.888   1
   1 -12   6 511.147 167.025   7
   1 -12   7 2141.39 242.012   1
  -1 -12  -7 2450.09 271.264   4
  -1 -12  -7 2399.78 159.833   2
  -1 -12  -7 1912.31 177.415   1
   1  12   7 2160.64 200.125   2
   1 -12   7 2486.62 244.670   7
   1  12   7 2174.03 242.753   6
   1  12   8 1113.93 343.604   3
   1 -12   8 1002.99 207.860   1
  -1 -12  -8 1031.96 128.057   2
   1 -12   8 952.981 206.131   7
  -1 -12  -8 666.986 192.925   4
   1  12   8 744.182 167.814   2
  -1 -12  -8 792.868 147.930   1
   1  12   8 1157.96 222.872   6
   1 -12   9 3858.78 316.542   7
  -1 -12  -9 3753.55 353.308   4
  -1 -12  -9 3963.71 190.000   2
  -1 -12  -9 3560.90 212.895   1
   1 -12   9 3914.59 311.728   1
   1  12   9 3632.96 310.494   6
   1  12   9 4016.46 471.020   3
   1  12  10 1055.09 394.860   3
   1 -12  10 831.812 221.112   1
   1  12  10 1235.63 251.037   6
   1 -12  10 771.065 219.905   7
  -1 -12 -10 974.137 128.089   2
  -1 -12 -10 834.896 244.430   4
   1 -12  11 3158.54 313.925   1
  -1 -12 -11 3630.85 380.718   4
   1  12  11 4091.69 543.020   3
   1 -12  11 3307.44 345.281   7
   1  12  11 3189.92 335.136   6
  -1 -12 -12 482.581 260.190   4
   1 -12  12-102.084 208.995   1
   1  12  12 184.451 229.516   6
   1  12  12 511.102 438.979   3
   1 -12  12 216.128 245.051   7
   1 -12  13 232.005 229.492   1
  -1 -12 -13 533.147 266.818   4
   1 -12  13 386.893 255.626   7
   1  12  13 112.889 236.166   6
   1  12  13-139.587 414.415   3
   1 -12  14 2263.68 356.740   7
   1 -12  14 2170.20 314.005   1
   1  12  14 2245.05 542.803   3
  -1 -12 -14 2306.75 370.124   4
   1  12  14 2184.09 347.668   6
   1  12  15 1455.60 337.879   6
   1 -12  15 2389.40 393.111   7
   1 -12  15 1930.31 306.128   1
  -1  12 -15 1669.75 412.536   4
   1  12  15 2336.26 580.711   3
  -1 -12 -15 2440.76 404.639   4
   1  12  16-350.767 316.999   6
  -1  12 -16-80.4029 341.054   4
  -1  12 -16-296.104 356.387   5
   1  12  16-316.762 514.455   3
  -1 -12 -16-54.5629 277.204   4
   1 -12  16-40.3158 299.861   7
   1 -13 -16 674.211 236.483   4
   1  13 -16 197.777 395.946   5
  -1 -13  16 1028.18 305.260   7
  -1  13  16 290.770 576.390   3
  -1 -13  15 275.168 184.748   1
   1 -13 -15 79.6053 221.571   4
  -1 -13  15 262.843 258.269   7
  -1 -13  14 322.138 254.812   7
   1 -13 -14 462.527 207.695   4
  -1 -13  14 505.514 177.958   1
  -1  13  14 1027.41 545.782   3
  -1 -13  13 184.609 136.873   2
  -1 -13  13 275.729 165.103   1
  -1 -13  13 20.4643 215.291   7
   1 -13 -13-42.3326 187.363   4
   1 -13 -12 1224.50 249.329   4
  -1 -13  12 1202.32 189.802   2
  -1  13  12 864.944 494.616   3
  -1 -13  12 1436.83 260.388   7
  -1  13  12 1084.41 192.156   6
  -1  13  11 1506.11 457.279   3
   1 -13 -11 1448.32 245.379   4
  -1 -13  11 1491.90 195.374   2
  -1 -13  11 1639.70 248.329   7
  -1  13  11 1477.92 189.829   6
  -1  13  10 524.077 131.165   6
  -1 -13  10 976.073 222.837   7
   1 -13 -10 245.679 162.485   4
   1 -13 -10 382.055 72.7042   1
  -1 -13  10 536.500 150.141   2
  -1  13  10 423.566 395.332   3
   1 -13  -9 702.430 176.954   4
  -1  13   9 880.232 403.673   3
  -1  13   9 501.099 94.3108   2
  -1 -13   9 531.496 197.260   7
   1 -13  -9 751.541 129.246   1
  -1 -13   9 871.516 157.434   2
  -1  13   9 941.862 132.042   6
  -1 -13   8 4648.51 256.662   2
   1 -13  -8 5144.79 249.469   1
  -1  13   8 4053.26 171.320   6
  -1  13   8 4158.63 188.183   2
   1 -13  -8 5146.38 350.821   4
  -1 -13   8 4678.50 316.330   7
  -1  13   8 3350.96 464.311   3
  -1  13   7 876.474 361.160   3
  -1  13   7 184.544 59.4635   6
  -1 -13   7 459.324 175.878   7
   1 -13  -7 462.794 149.928   1
  -1  13   7 616.502 114.683   2
  -1 -13   7 744.484 141.148   2
  -1  13   6 336.324 109.978   2
  -1 -13   6 248.002 149.777   7
  -1 -13   6 526.391 129.509   2
  -1  13   6 179.603 36.7486   6
   1 -13  -6 618.152 164.798   1
  -1  13   6 390.167 313.491   3
  -1  13   5-61.4031 288.720   3
   1 -13  -5 389.702 149.740   1
  -1 -13   5 309.457 124.483   2
   1 -13  -4 786.002 168.888   1
  -1  13   4 1100.01 319.299   3
  -1 -13   4 1264.93 146.202   2
   1 -13  -3 1316.27 187.216   1
   1 -13  -3 814.871 54.2322   6
   1 -13  -3 916.549 64.6375   7
  -1  13   3 1282.09 301.969   3
  -1 -13   3 1365.11 150.991   2
   1 -13  -2 12735.0 417.847   1
   1  13  -2 11983.2 403.865   6
  -1  13   2 10343.6 578.648   3
  -1 -13   2 12383.1 333.480   2
  -1 -13   2 14526.9 556.734   3
   1 -13  -2 13249.5 234.101   7
   1 -13  -2 11779.7 223.960   6
  -1  13   1 267.602 222.155   3
   1  13  -1 202.560 125.514   6
   1 -13  -1 81.1464 138.081   1
  -1 -13   1 357.876 240.603   3
   1 -13  -1 140.743 75.5261   6
  -1 -13   1 142.115 101.096   2
   1 -13  -1 122.507 90.1280   7
   1  13   0 2740.52 226.036   6
   1 -13   0 3047.79 236.910   1
  -1  13   0 2167.57 278.804   3
   1 -13   0 3561.45 179.540   7
  -1 -13   0 3225.13 187.977   2
  -1 -13   0 3133.40 309.629   3
   1 -13   0 2778.69 158.402   6
  -1 -13  -1 3610.80 191.684   2
  -1 -13  -1 3686.13 250.273   4
  -1 -13  -1 3547.56 325.105   3
   1 -13   1 3408.20 194.686   7
   1  13   1 3216.16 237.521   6
   1 -13   1 3224.94 248.775   1
   1  13   2 546.776 191.939   3
   1  13   2 279.365 142.845   6
   1 -13   2 406.563 170.432   1
  -1 -13  -2 569.302 147.682   4
  -1  13  -2 892.641 144.867   7
  -1 -13  -2 410.276 223.080   3
   1 -13   2 310.127 132.114   7
  -1 -13  -2 404.196 108.263   2
  -1 -13  -3 745.871 254.604   3
   1 -13   3 1162.04 169.953   7
   1  13   3 1157.46 250.546   3
   1  13   3 903.579 163.694   6
  -1 -13  -3 1249.45 176.908   4
  -1 -13  -3 988.376 127.709   2
   1 -13   3 896.659 180.401   1
   1  13   4 2060.58 219.502   6
  -1 -13  -4 2607.62 253.308   4
   1 -13   4 2443.80 223.988   7
  -1 -13  -4 2286.13 159.198   2
   1  13   4 2339.36 293.547   3
  -1 -13  -4 2900.56 331.562   3
   1 -13   4 2296.89 233.671   1
   1  13   5 3495.53 365.548   3
  -1 -13  -5 3782.61 303.150   4
  -1 -13  -5 3018.53 181.576   2
   1  13   5 3080.42 267.744   6
   1 -13   5 3291.21 248.830   7
   1 -13   5 2760.77 250.732   1
   1  13   6 4139.66 400.402   3
  -1 -13  -6 3568.66 302.066   4
  -1 -13  -6 3708.47 195.564   2
   1 -13   6 3638.10 277.166   7
   1  13   6 3566.04 274.910   6
  -1 -13  -6 3239.65 209.167   1
   1 -13   6 3074.05 263.859   1
  -1 -13  -7 684.865 122.052   2
  -1 -13  -7 686.899 144.059   1
   1 -13   7 831.229 210.203   1
   1  13   7 390.348 178.521   6
   1  13   7 738.068 157.139   2
  -1 -13  -7 444.538 176.549   4
   1 -13   7 1065.89 219.927   7
   1  13   7 1130.29 323.905   3
   1  13   8 7175.24 537.209   3
   1  13   8 5773.07 306.739   2
   1 -13   8 6619.38 375.397   7
   1 -13   8 5816.93 367.517   1
  -1 -13  -8 6836.80 432.109   4
  -1 -13  -8 6863.74 247.199   2
  -1 -13  -8 6210.52 292.524   1
   1  13   8 7064.42 386.602   6
   1 -13   9 148.636 199.051   7
   1 -13   9 188.207 192.736   1
   1  13   9 166.086 313.003   3
  -1 -13  -9 56.4969 187.387   4
  -1 -13  -9 165.585 114.027   2
   1  13   9 339.975 201.569   6
   1  13  10 94.2077 357.018   3
   1 -13  10 303.536 194.066   1
  -1 -13 -10 581.935 238.176   4
  -1 -13 -10 274.521 115.148   2
   1  13  10 183.314 203.688   6
   1 -13  10 347.717 217.107   7
   1  13  11 397.519 220.287   6
  -1 -13 -11 660.685 244.125   4
   1 -13  11 353.187 235.561   7
   1  13  11 1106.63 416.197   3
   1 -13  11 882.305 242.769   1
   1  13  12 698.544 256.398   6
   1 -13  12 360.504 256.729   7
   1 -13  12 432.924 217.292   1
   1  13  12 747.158 433.527   3
  -1 -13 -12 319.811 249.924   4
   1 -13  13-131.708 259.877   7
   1  13  13 319.468 251.021   6
   1 -13  13 60.1941 232.183   1
   1  13  13 716.290 446.284   3
  -1 -13 -13 54.9343 247.186   4
   1 -13  14 726.626 295.627   7
   1  13  14 763.536 281.240   6
   1 -13  14 254.387 232.182   1
  -1 -13 -14 521.930 275.508   4
   1  13  14 896.193 515.913   3
   1  13  15 541.672 290.727   6
   1 -13  15 745.145 286.372   1
  -1  13 -15-9.21625 314.853   4
  -1 -13 -15-376.466 278.636   4
   1 -13  15 68.1524 283.247   7
   1  13  15-19.4387 507.739   3
   1  13  16 940.134 335.333   6
  -1  13 -16 977.632 393.593   5
   1 -13  16 862.862 330.655   7
   1 -14 -16 534.914 244.087   4
   1  14 -16 748.326 427.874   5
  -1 -14  16 344.515 296.987   7
  -1 -14  15 670.237 214.372   1
   1 -14 -15 867.926 253.594   4
  -1 -14  15 1192.44 302.575   7
  -1  14  15 460.660 588.829   3
  -1  14  14 272.082 516.556   3
  -1 -14  14-68.8237 229.070   7
  -1 -14  14 134.618 172.059   1
   1 -14 -14-3.86262 195.986   4
  -1 -14  13 322.882 169.491   2
  -1 -14  13 347.388 164.519   1
  -1 -14  13 839.057 265.168   7
   1 -14 -13 476.040 206.498   4
  -1  14  13 409.474 472.006   3
  -1 -14  12 541.856 237.542   7
   1 -14 -12 103.127 196.815   4
  -1  14  12 173.578 436.090   3
  -1 -14  12 218.250 161.877   1
  -1 -14  12 110.541 145.136   2
  -1  14  11 881.907 452.917   3
  -1 -14  11 744.639 173.832   2
  -1  14  11 631.782 153.416   6
   1 -14 -11 760.825 226.710   4
  -1 -14  11 760.044 221.778   7
  -1  14  10 1371.81 435.656   3
   1 -14 -10 1409.05 254.338   4
  -1 -14  10 1685.90 249.089   7
   1 -14 -10 1264.88 111.659   1
  -1 -14  10 1472.58 186.818   2
  -1  14  10 1521.43 158.551   6
  -1  14   9 762.548 410.102   3
  -1  14   9 931.060 117.798   6
   1 -14  -9 829.167 142.760   1
   1 -14  -9 929.752 224.873   4
  -1 -14   9 1171.89 172.991   2
  -1 -14   9 901.108 227.522   7
  -1  14   8 1667.43 432.404   3
  -1  14   8 1613.68 140.237   2
  -1 -14   8 1915.84 199.484   2
  -1 -14   8 2514.93 274.850   7
   1 -14  -8 2489.57 207.045   1
  -1  14   8 1411.25 116.239   6
  -1  14   7 109.446 50.9998   6
  -1 -14   7 83.4233 166.246   7
  -1  14   7-208.662 315.338   3
   1 -14  -7 10.2570 148.018   1
  -1 -14   7 157.676 129.921   2
   1 -14  -6 4328.10 271.502   1
  -1 -14   6 4169.16 242.234   2
  -1 -14   6 4377.96 282.761   7
  -1  14   5 282.405 284.931   3
   1 -14  -5 280.729 159.837   1
  -1 -14   5 387.118 156.379   7
  -1 -14   5 347.275 126.495   2
  -1  14   4 6988.79 522.196   3
   1 -14  -4 7712.59 343.090   1
  -1 -14   4 7998.84 295.236   2
  -1  14   3 5102.90 456.114   3
   1 -14  -3 3825.45 115.683   6
  -1 -14   3 6292.33 269.344   2
   1 -14  -3 4479.20 122.109   7
   1 -14  -3 5993.86 311.952   1
   1 -14  -2 5903.39 304.824   1
  -1 -14   2 5497.31 248.718   2
  -1  14   2 6321.95 480.865   3
   1 -14  -2 6306.77 184.344   7
   1 -14  -2 5891.32 177.358   6
   1 -14  -1 392.671 147.638   1
   1 -14  -1 351.528 100.007   7
  -1  14   1 476.058 244.669   3
   1 -14  -1 406.720 91.6054   6
   1  14  -1 416.532 134.414   6
  -1 -14   1 332.049 121.473   2
   1 -14   0 735.593 115.238   6
  -1 -14   0 796.927 242.989   3
   1 -14   0 852.853 179.200   1
  -1 -14   0 725.967 132.087   2
  -1  14   0 491.901 200.425   3
   1 -14   0 938.372 131.682   7
   1  14   0 560.178 149.011   6
   1 -14   1-103.225 147.940   1
   1 -14   1 115.466 96.6076   6
   1  14   1-60.3899 123.682   6
  -1 -14  -1 57.8213 232.396   3
  -1 -14  -1 129.831 111.794   2
   1 -14   1 107.446 115.765   7
  -1 -14  -2 682.246 250.568   3
   1  14   2 555.937 155.637   6
   1  14   2 339.572 176.180   3
  -1 -14  -2 428.453 138.836   4
   1 -14   2 453.841 143.272   7
   1 -14   2 311.834 152.443   1
  -1 -14  -2 417.519 119.502   2
   1 -14   3 565.181 179.846   1
  -1 -14  -3 647.006 251.400   3
   1  14   3 761.445 235.600   3
  -1 -14  -3 713.345 128.985   2
   1  14   3 508.643 149.779   6
  -1 -14  -3 361.342 144.724   4
   1 -14   3 385.398 144.747   7
  -1 -14  -4 8644.08 291.564   2
   1 -14   4 7185.04 367.108   1
  -1 -14  -4 8504.40 401.288   4
   1 -14   4 8386.44 347.743   7
   1  14   4 9101.70 496.502   3
   1  14   4 7502.31 360.430   6
   1 -14   5 1383.33 218.143   1
  -1 -14  -5 1798.49 168.969   2
  -1 -14  -5 2087.69 253.427   4
   1 -14   5 1938.69 219.994   7
   1  14   5 1803.45 307.663   3
   1  14   5 1453.86 206.715   6
   1  14   6 162.476 273.537   3
   1 -14   6-66.9311 164.499   1
   1  14   6-28.0997 165.059   6
  -1 -14  -6-84.4002 112.869   2
  -1 -14  -6 116.400 127.447   1
   1 -14   6 353.220 180.104   7
  -1 -14  -6 67.0295 166.853   4
   1 -14   7 537.916 196.054   1
  -1 -14  -7 314.584 190.689   4
   1  14   7 439.686 191.758   6
  -1 -14  -7 258.444 135.467   1
   1  14   7 527.176 298.179   3
  -1 -14  -7 259.362 127.686   2
   1 -14   7 662.547 204.210   7
   1  14   8 870.503 342.164   3
   1  14   8 928.706 212.059   6
  -1 -14  -8 977.891 235.791   4
  -1 -14  -8 1363.81 160.473   2
  -1 -14  -8 887.763 160.915   1
   1 -14   8 898.904 219.726   1
   1 -14   8 1139.49 232.631   7
   1 -14   9 479.490 214.488   1
   1  14   9 675.155 219.979   6
   1  14   9 843.223 360.313   3
  -1 -14  -9 562.740 139.342   2
  -1 -14  -9 402.265 213.859   4
   1 -14   9 1023.12 245.410   7
   1 -14  10 1058.01 238.258   1
  -1 -14 -10 1117.31 155.410   2
  -1 -14 -10 1264.47 258.957   4
   1  14  10 999.227 249.611   6
   1 -14  10 1069.28 260.897   7
   1  14  10 1530.40 406.018   3
   1 -14  11 289.630 207.380   1
   1  14  11 976.073 415.656   3
   1  14  11 230.933 231.237   6
  -1 -14 -11 437.799 253.376   4
   1 -14  11 336.215 233.665   7
   1  14  12 411.382 413.208   3
   1  14  12 122.901 243.339   6
   1 -14  12 144.469 225.680   1
  -1 -14 -12-95.7777 223.425   4
   1 -14  12 448.643 261.600   7
   1  14  13-29.1711 251.851   6
   1  14  13 427.823 446.310   3
   1 -14  13-16.5287 228.831   1
  -1 -14 -13-55.0680 236.853   4
   1 -14  13 172.904 268.061   7
   1 -14  14 68.2860 246.363   1
   1  14  14 271.889 467.454   3
   1  14  14 358.282 270.814   6
  -1 -14 -14 530.825 285.346   4
   1 -14  14-194.858 276.053   7
   1 -14  15-105.782 271.017   1
   1  14  15 501.063 318.280   6
  -1 -14 -15 386.611 304.074   4
   1  14  15 868.631 522.373   3
   1 -14  15 122.867 295.191   7
  -1  15  16 419.727 560.759   3
   1 -15 -16 134.376 221.089   4
  -1 -15  16-141.631 268.280   7
  -1 -15  15-179.127 250.832   7
   1 -15 -15-177.194 217.835   4
  -1 -15  15 154.250 190.948   1
  -1 -15  14-18.5792 242.948   7
  -1 -15  14-45.9180 175.427   1
   1 -15 -14-30.4868 204.340   4
  -1  15  14 100.037 505.087   3
  -1 -15  13 708.526 180.107   2
  -1 -15  13 1220.26 214.156   1
  -1 -15  13 1458.53 297.845   7
   1 -15 -13 1093.20 254.191   4
  -1  15  13 893.581 511.809   3
  -1 -15  12 2.84267 151.199   2
  -1 -15  12-91.3489 221.598   7
  -1 -15  12 190.082 164.186   1
  -1  15  12-174.736 437.468   3
   1 -15 -12 76.8234 181.570   4
  -1  15  11 1787.27 520.494   3
  -1 -15  11 1979.92 284.853   7
   1 -15 -11 2110.79 286.619   4
  -1 -15  11 1997.91 227.554   2
  -1 -15  10 435.564 156.676   2
  -1  15  10 98.8046 394.886   3
   1 -15 -10 438.381 210.582   4
  -1 -15  10 183.440 195.472   7
   1 -15  -9 1780.56 189.117   1
  -1  15   9 1725.81 461.080   3
  -1 -15   9 1671.91 194.809   2
  -1 -15   9 1835.51 253.663   7
  -1  15   9 1409.54 131.905   6
  -1 -15   8 22.1413 134.252   2
  -1  15   8-204.652 359.180   3
   1 -15  -8 51.9629 152.969   1
  -1 -15   8 30.3296 178.479   7
  -1  15   8 51.8919 67.1623   6
  -1  15   7 698.388 344.958   3
   1 -15  -7 448.749 170.861   1
  -1 -15   7 216.771 167.490   7
  -1  15   7 196.101 45.0375   6
  -1 -15   7 295.138 142.769   2
   1 -15  -6 345.723 163.768   1
  -1 -15   6 431.879 151.349   2
  -1 -15   6 404.706 168.729   7
  -1  15   6 321.849 321.236   3
  -1  15   5 1022.53 342.324   3
  -1 -15   5 1033.71 164.382   2
   1 -15  -5 1103.98 193.132   1
  -1 -15   5 1137.97 199.563   7
   1 -15  -4 390.895 41.6884   6
  -1  15   4 498.513 282.930   3
   1 -15  -4 363.273 161.375   1
  -1 -15   4 374.129 129.721   2
   1 -15  -3 1491.31 90.1676   6
  -1 -15   3 2090.14 183.965   2
  -1  15   3 1831.31 358.230   3
   1 -15  -3 1717.72 92.4665   7
   1 -15  -3 2038.35 221.266   1
   1 -15  -2 1862.74 207.669   1
   1 -15  -2 1924.09 124.382   6
   1 -15  -2 2387.17 138.458   7
  -1  15   2 1661.20 335.714   3
  -1 -15   2 2211.40 188.592   2
   1 -15  -1-48.9209 87.1775   6
  -1  15   1 101.335 233.466   3
   1  15  -1 61.2999 119.401   6
   1 -15  -1-110.858 151.412   1
   1 -15  -1 21.3224 97.2118   7
  -1 -15   1 14.7567 115.584   2
  -1  15   0 3.31277 206.947   3
   1 -15   0-58.6497 94.0378   6
   1  15   0-22.4251 130.829   6
   1 -15   0 276.356 160.998   1
  -1 -15   0 101.863 124.360   2
   1 -15   0 64.3136 111.690   7
   1 -15   1 5348.71 245.531   6
   1 -15   1 6371.32 343.608   1
   1  15   1 5782.74 312.592   6
  -1 -15  -1 6659.91 280.215   2
   1 -15   1 6610.52 266.145   7
   1  15   2-68.2917 138.405   6
   1  15   2-135.955 180.363   3
   1 -15   2 28.1384 155.001   1
  -1 -15  -2 298.835 146.828   4
  -1 -15  -2 80.3512 115.246   2
   1 -15   2 212.034 134.960   7
   1  15   3 1398.67 259.747   3
   1 -15   3 1640.14 229.582   1
  -1 -15  -3 1590.76 207.410   4
  -1 -15  -3 1674.29 170.021   2
   1  15   3 1280.25 180.492   6
   1 -15   3 1587.35 191.294   7
   1  15   4 1666.86 298.879   3
   1 -15   4 1731.41 238.335   1
  -1 -15  -4 1484.07 209.199   4
  -1 -15  -4 1666.33 161.219   2
   1 -15   4 1467.01 204.142   7
   1  15   4 1359.68 193.436   6
   1 -15   5 244.600 172.411   1
   1  15   5 908.137 295.172   3
   1  15   5 355.424 170.437   6
  -1 -15  -5 724.244 191.056   4
   1 -15   5 510.868 182.251   7
  -1 -15  -5 491.974 136.507   2
   1 -15   6-80.6915 168.502   7
   1  15   6 97.8027 167.050   6
  -1 -15  -6 139.274 122.861   2
  -1 -15  -6 222.915 168.621   4
   1  15   6-49.1684 270.144   3
   1 -15   6 212.233 175.389   1
   1 -15   7 5746.04 342.943   7
   1 -15   7 5568.15 362.368   1
  -1 -15  -7 6207.27 409.599   4
  -1 -15  -7 5789.86 265.352   2
   1  15   7 6833.00 520.877   3
   1  15   7 5983.90 364.293   6
   1 -15   8 11.2881 184.527   7
   1  15   8 181.080 309.581   3
  -1 -15  -8 79.6806 133.423   2
  -1 -15  -8 210.150 208.904   4
   1 -15   8 211.761 181.520   1
   1  15   8 229.300 189.600   6
   1  15   9 1086.03 380.699   3
   1  15   9 982.687 223.805   6
   1 -15   9 543.505 219.806   1
   1 -15   9 1057.32 246.630   7
  -1 -15  -9 916.070 158.761   2
  -1 -15  -9 1169.03 257.918   4
   1  15  10 479.844 203.496   6
   1  15  10 1070.71 404.080   3
   1 -15  10 992.998 252.203   1
  -1 -15 -10 756.145 160.504   2
  -1 -15 -10 967.963 259.163   4
   1 -15  10 599.741 243.503   7
   1 -15  11 3557.59 357.970   1
   1  15  11 3736.22 360.008   6
  -1 -15 -11 4264.89 420.183   4
   1 -15  11 3137.12 344.508   7
   1  15  11 4464.86 573.346   3
   1 -15  12 1027.80 281.905   1
   1  15  12 1414.00 293.624   6
  -1 -15 -12 1273.50 305.518   4
   1  15  12 1507.23 475.611   3
   1 -15  12 969.786 279.192   7
   1 -15  13 722.168 266.037   1
   1  15  13 546.699 265.255   6
  -1 -15 -13 963.481 308.522   4
   1 -15  13 1566.59 328.602   7
   1  15  13 1868.11 531.659   3
   1  15  14 113.934 258.181   6
  -1 -15 -14 317.752 274.179   4
   1 -15  14 491.167 267.331   1
   1 -15  14-156.616 265.165   7
   1  15  15 22.6542 492.329   3
   1 -15  15-177.632 258.199   1
  -1 -15 -15-304.026 316.470   4
   1  15  15 210.803 275.130   6
   1 -15  15 474.099 302.374   7
  -1  16  15-165.228 536.769   3
  -1 -16  15-271.375 204.339   1
   1 -16 -15-92.8334 226.885   4
  -1 -16  15-201.829 267.660   7
  -1 -16  14 1206.07 293.797   7
  -1  16  14 1335.49 604.961   3
  -1 -16  14 1405.36 252.492   1
   1 -16 -14 1244.12 287.174   4
  -1  16  13 297.255 522.340   3
  -1 -16  13-133.468 238.250   7
   1 -16 -13-134.292 218.633   4
  -1 -16  13 34.8669 169.957   1
  -1 -16  12 308.333 158.666   2
  -1  16  12 105.026 454.697   3
   1 -16 -12 422.798 230.416   4
  -1 -16  12 55.9054 159.660   1
  -1 -16  12-256.019 231.875   7
  -1 -16  11 1008.29 197.094   2
   1 -16 -11 818.411 233.299   4
  -1  16  11 941.630 470.612   3
  -1 -16  11 921.202 242.333   7
  -1 -16  10 4161.10 336.854   7
  -1 -16  10 3675.68 273.589   2
  -1  16  10 3543.54 572.346   3
  -1  16   9 3029.72 522.003   3
  -1 -16   9 3667.70 263.776   2
  -1 -16   9 3672.07 313.412   7
   1 -16  -9 4091.06 255.650   1
  -1 -16   8 165.403 154.387   2
  -1 -16   8-69.0216 185.733   7
   1 -16  -8 376.203 173.348   1
  -1  16   8 160.071 58.5968   6
  -1  16   8 11.5339 352.421   3
  -1 -16   7 414.902 157.739   2
   1 -16  -7 240.400 169.358   1
  -1  16   7-39.7549 345.442   3
  -1  16   7 170.496 38.7572   6
   1 -16  -6 6691.41 347.350   1
  -1 -16   6 6431.91 321.059   2
  -1  16   6 5666.12 564.919   3
  -1 -16   6 6287.55 353.335   7
  -1  16   5 142.431 320.690   3
   1 -16  -5-13.5236 163.438   1
  -1 -16   5 396.946 185.814   7
  -1 -16   5-119.836 141.192   2
  -1  16   4 3664.27 432.717   3
   1 -16  -4 4143.88 283.792   1
  -1 -16   4 3819.94 244.493   2
   1 -16  -3 1442.75 203.008   1
  -1 -16   3 1358.84 168.709   2
  -1  16   3 1584.14 362.602   3
   1 -16  -3 1277.69 93.8258   7
   1 -16  -3 928.608 87.1377   6
   1 -16  -2 2185.47 234.973   1
  -1 -16   2 1941.48 190.999   2
   1 -16  -2 1922.38 135.287   6
   1 -16  -2 2051.79 137.860   7
  -1  16   2 1641.93 324.688   3
   1 -16  -1 2206.69 155.435   6
   1  16  -1 1692.51 203.584   6
   1 -16  -1 2105.92 227.402   1
  -1 -16   1 2194.94 197.262   2
   1 -16  -1 2291.36 155.174   7
  -1  16   1 1556.24 293.731   3
   1  16   0 1597.15 199.439   6
   1 -16   0 1391.35 216.934   1
  -1 -16   0 1479.34 170.876   2
   1 -16   0 1226.80 137.743   6
   1 -16   0 1489.55 152.036   7
   1 -16   1 666.136 192.279   1
   1 -16   1 469.271 121.829   6
  -1 -16  -1 714.161 150.931   2
   1  16   1 549.210 157.174   6
   1 -16   1 416.246 133.736   7
   1 -16   2 333.017 184.246   1
   1 -16   2 178.219 142.297   7
   1  16   2 110.093 147.465   6
   1 -16   2 327.762 121.429   6
   1  16   2 113.529 192.995   3
  -1 -16  -2-118.977 124.277   2
  -1 -16  -2 158.311 159.209   4
   1 -16   3-55.8738 169.007   1
   1  16   3 99.2867 140.230   6
   1  16   3 226.320 219.773   3
  -1 -16  -3 268.657 168.848   4
   1 -16   3 75.9883 151.896   7
  -1 -16  -3 317.218 136.479   2
   1 -16   4 4209.10 315.616   1
  -1 -16  -4 4490.30 329.768   4
  -1 -16  -4 4516.21 249.519   2
   1 -16   4 4370.00 287.161   7
   1  16   4 4250.37 406.404   3
   1  16   4 4006.77 284.633   6
   1 -16   5 2005.67 232.255   7
   1 -16   5 1913.65 248.763   1
  -1 -16  -5 1986.42 244.594   4
  -1 -16  -5 2443.14 203.588   2
   1  16   5 2304.87 365.080   3
   1  16   5 2171.29 244.908   6
   1 -16   6 716.494 208.107   1
   1  16   6 570.480 284.826   3
   1  16   6 730.071 198.162   6
  -1 -16  -6 639.221 202.805   4
  -1 -16  -6 727.895 151.398   2
   1 -16   6 848.866 204.221   7
   1 -16   7 1617.43 238.335   7
  -1 -16  -7 1924.95 278.467   4
  -1 -16  -7 1757.00 191.022   2
   1  16   7 1784.32 246.022   6
   1 -16   7 1315.89 242.316   1
   1  16   7 2097.73 389.259   3
  -1 -16  -8 75.7248 133.362   2
   1 -16   8-3.96127 196.834   1
   1  16   8 67.1936 309.200   3
  -1 -16  -8 80.8572 184.019   4
   1 -16   8 159.213 196.384   7
   1  16   8 334.084 200.722   6
   1  16   9 417.306 221.044   6
  -1 -16  -9 159.881 133.908   2
  -1 -16  -9 305.921 228.608   4
   1  16   9 592.543 349.197   3
   1 -16   9 261.849 212.786   1
   1 -16   9 272.219 214.040   7
   1  16  10 1161.17 396.022   3
   1 -16  10 820.477 248.272   1
  -1 -16 -10 1166.37 180.440   2
   1 -16  10 909.158 252.374   7
   1  16  10 1678.77 278.508   6
  -1 -16 -10 1551.51 306.884   4
   1  16  11 392.169 379.582   3
   1 -16  11 376.873 227.632   1
   1  16  11 608.347 250.505   6
  -1 -16 -11 527.055 241.237   4
   1 -16  11 452.487 252.674   7
   1  16  12 262.216 418.349   3
   1  16  12 532.452 258.008   6
   1 -16  12-15.7566 227.687   1
  -1 -16 -12 253.073 256.889   4
   1 -16  12-97.8081 253.029   7
   1  16  13-356.914 255.416   6
   1 -16  13-143.490 246.018   1
   1 -16  13 105.348 261.628   7
  -1 -16 -13-25.3228 255.825   4
   1  16  13-59.9532 451.592   3
   1 -16  14 712.644 306.549   7
   1 -16  14 183.006 257.793   1
   1  16  14 329.593 270.874   6
  -1 -16 -14 199.029 282.268   4
  -1  17  15 880.549 593.302   3
   1 -17 -15 294.242 245.221   4
  -1 -17  15 720.520 308.933   7
  -1 -17  15-20.0558 216.157   1
  -1 -17  14 508.828 262.073   7
   1 -17 -14 720.725 268.859   4
  -1 -17  14 609.191 215.842   1
  -1  17  14-176.051 504.867   3
  -1  17  13 919.926 538.833   3
   1 -17 -13 875.275 271.923   4
  -1 -17  13 1550.96 315.488   7
  -1 -17  13 845.098 217.796   1
  -1 -17  12 133.451 167.728   2
  -1 -17  12 284.854 181.496   1
  -1 -17  12 208.184 237.618   7
  -1  17  11-358.997 421.835   3
  -1 -17  11-84.9506 156.646   2
  -1 -17  11 53.6571 213.991   7
  -1  17  10 997.979 442.046   3
  -1 -17  10 1406.48 213.474   2
  -1 -17  10 1260.77 263.557   7
  -1  17   9 390.753 376.037   3
  -1 -17   9 640.006 231.181   7
   1 -17  -9 543.628 181.257   1
  -1 -17   9 258.014 153.921   2
  -1 -17   8-153.335 159.726   2
   1 -17  -8 40.9422 179.794   1
  -1  17   8 164.656 377.707   3
  -1 -17   8 101.257 197.035   7
   1 -17  -7 3746.97 282.465   1
  -1 -17   7 2935.16 243.465   2
  -1 -17   7 3582.48 302.833   7
   1 -17  -6 571.259 192.951   1
  -1 -17   6 422.804 168.065   2
  -1 -17   6 523.579 198.347   7
  -1  17   6 604.643 328.480   3
  -1  17   5 468.644 351.129   3
  -1 -17   5 212.899 149.084   2
  -1 -17   5 435.525 189.771   7
   1 -17  -5 314.398 188.487   1
   1 -17  -4-139.075 183.272   1
   1 -17  -4 22.3323 46.2719   6
  -1  17   4 306.622 323.350   3
   1 -17  -4 95.3582 43.9359   7
  -1 -17   4 256.757 153.038   2
   1 -17  -3 7651.63 376.711   1
  -1 -17   3 7529.42 331.449   2
  -1  17   3 7011.15 582.746   3
   1 -17  -3 6827.18 184.753   7
   1 -17  -2 1505.56 219.777   1
   1 -17  -2 1274.93 125.529   6
   1 -17  -2 1592.42 136.469   7
  -1 -17   2 1518.88 187.387   2
  -1  17   2 1534.03 345.116   3
   1 -17  -1-67.7935 105.427   6
   1 -17  -1 139.770 172.701   1
  -1  17   1-64.7747 234.574   3
   1 -17  -1 29.2892 107.960   7
  -1 -17   1-167.167 141.131   2
   1 -17   0 1310.37 154.500   6
   1 -17   0 1695.98 168.793   7
   1 -17   0 1632.44 234.999   1
   1  17   0 1600.55 194.264   6
  -1 -17   0 1409.12 175.178   2
   1 -17   1-81.6634 110.389   6
   1  17   1 180.719 146.514   6
   1 -17   1-116.736 138.109   7
   1 -17   1-3.99656 173.523   1
  -1 -17  -1 31.8271 128.556   2
   1 -17   2 1093.20 158.773   6
   1 -17   2 1230.59 223.768   1
  -1 -17  -2 1318.85 180.896   2
   1 -17   2 1215.70 181.627   7
   1  17   2 917.553 180.761   6
   1  17   3 2125.48 229.799   6
   1 -17   3 2099.66 260.653   1
  -1 -17  -3 2300.33 257.970   4
  -1 -17  -3 2340.48 205.915   2
   1  17   3 2435.36 309.048   3
   1 -17   3 2370.35 223.793   7
  -1 -17  -4 5077.58 359.374   4
  -1 -17  -4 4764.97 262.656   2
   1 -17   4 4581.74 298.387   7
   1  17   4 5292.02 442.681   3
   1 -17   4 4392.42 335.537   1
   1  17   4 4209.05 292.169   6
   1 -17   5 595.463 217.904   1
   1  17   5 525.027 300.021   3
   1  17   5 569.256 181.022   6
  -1 -17  -5 388.580 156.961   2
  -1 -17  -5 508.593 187.465   4
   1 -17   5 701.278 206.835   7
   1 -17   6 1990.47 272.812   1
   1  17   6 2257.98 376.112   3
  -1 -17  -6 2525.79 289.860   4
  -1 -17  -6 2867.71 222.244   2
   1  17   6 2687.94 269.663   6
   1 -17   6 2918.13 276.334   7
   1 -17   7 2665.69 303.626   1
  -1 -17  -7 3080.41 319.778   4
  -1 -17  -7 3057.68 230.178   2
   1  17   7 2679.50 277.700   6
   1 -17   7 3067.04 294.965   7
   1  17   7 3222.40 432.041   3
   1 -17   8 744.346 237.200   7
  -1 -17  -8 388.533 149.803   2
   1  17   8 799.170 350.412   3
   1 -17   8 240.687 192.037   1
   1  17   8-11.8677 187.706   6
  -1 -17  -8 469.506 210.734   4
   1 -17   9 777.539 247.929   7
   1 -17   9 357.354 234.828   1
   1  17   9-39.3703 208.457   6
  -1 -17  -9 666.921 172.081   2
   1  17   9 1021.43 380.642   3
  -1 -17  -9 291.268 227.574   4
  -1 -17 -10 315.780 156.641   2
   1 -17  10 286.545 237.294   1
   1  17  10 459.146 386.807   3
  -1 -17 -10 189.835 217.524   4
   1  17  10 379.535 213.318   6
   1 -17  10 606.132 245.043   7
   1  17  11 328.731 225.549   6
   1 -17  11 126.207 221.126   1
  -1 -17 -11 202.034 241.190   4
   1  17  11 65.6328 397.503   3
   1 -17  11-204.876 256.982   7
   1  17  12-450.417 411.287   3
   1 -17  12 286.047 261.443   7
  -1 -17 -12-14.8395 250.245   4
   1  17  12 97.2997 224.878   6
   1 -17  12-361.319 247.526   1
   1  17  13 926.365 467.562   3
   1  17  13 403.118 263.225   6
   1 -17  13 161.629 250.716   1
  -1 -17 -13 244.128 275.124   4
   1 -17  13-209.754 285.065   7
   1 -17  14 418.390 274.668   1
  -1 -17 -14 867.265 339.100   4
   1 -17  14 98.1647 287.942   7
  -1  18  14-517.295 552.663   3
  -1 -18  14-44.5806 204.503   1
  -1 -18  14 199.527 287.484   7
  -1  18  13 442.882 536.053   3
  -1 -18  13 303.514 204.790   1
  -1 -18  13 345.926 255.616   7
  -1  18  12 20.8422 449.347   3
  -1 -18  12-206.497 174.204   2
  -1 -18  12-7.05087 177.828   1
  -1 -18  12-53.7893 234.947   7
  -1  18  11 1128.34 503.949   3
  -1 -18  11 485.344 201.279   1
  -1 -18  11 447.165 184.866   2
  -1 -18  11 610.833 246.545   7
  -1 -18  10 237.104 173.864   2
  -1 -18  10 245.379 219.733   7
  -1  18  10 765.535 430.673   3
   1 -18  -9 4731.50 302.693   1
  -1 -18   9 4974.68 317.619   2
  -1 -18   9 5746.70 391.011   7
  -1  18   9 4611.64 566.999   3
   1 -18  -8 3483.27 286.682   1
  -1 -18   8 2733.69 250.005   2
  -1  18   8 2766.41 512.469   3
  -1 -18   8 3951.23 337.149   7
  -1  18   7 2457.95 499.901   3
   1 -18  -7 2877.30 271.883   1
  -1 -18   7 3000.10 256.130   2
  -1 -18   7 3131.75 303.817   7
  -1  18   6 2250.91 461.114   3
   1 -18  -6 2199.80 254.120   1
  -1 -18   6 2169.92 232.545   2
  -1 -18   6 2265.72 259.676   7
  -1  18   5-110.158 340.308   3
   1 -18  -5 588.630 197.340   1
  -1 -18   5 263.914 183.535   7
  -1 -18   5 303.114 163.356   2
   1 -18  -4 171.643 57.5654   6
  -1  18   4 623.076 370.481   3
   1 -18  -4 408.263 194.019   1
  -1 -18   4 370.179 177.281   7
   1 -18  -4 223.453 53.1380   7
  -1 -18   4 296.069 159.680   2
   1 -18  -3-23.4143 172.065   1
   1 -18  -3 91.3850 80.5870   6
  -1  18   3 191.364 307.079   3
   1 -18  -3 69.1962 83.3037   7
  -1 -18   3 106.173 149.830   2
   1 -18  -2 15.5063 96.1231   6
  -1  18   2-26.3130 275.050   3
   1 -18  -2 265.867 111.153   7
   1 -18  -2-1.58940 169.260   1
  -1 -18   2 50.5046 155.196   2
   1 -18  -1 279.386 116.117   6
   1 -18  -1 738.068 136.926   7
   1 -18  -1 382.537 197.531   1
  -1  18   1 72.3519 239.301   3
  -1 -18   1 349.225 163.172   2
   1 -18   0 1711.66 172.853   6
   1  18   0 2025.77 220.152   6
   1 -18   0 1735.27 175.039   7
   1 -18   0 2370.11 269.334   1
  -1 -18   0 2085.18 221.335   2
   1 -18   1 2545.52 210.936   6
   1 -18   1 3338.72 305.857   1
  -1 -18  -1 3246.47 247.877   2
   1  18   1 2925.11 252.034   6
   1 -18   1 3268.45 230.797   7
   1 -18   2 348.160 196.223   1
  -1 -18  -2 227.695 148.977   2
   1  18   2-58.8834 152.483   6
   1 -18   2 241.105 159.410   7
  -1 -18  -3 557.788 165.988   2
   1  18   3 476.705 239.498   3
   1  18   3 416.646 168.502   6
   1 -18   3 835.396 180.770   7
   1 -18   3 853.180 236.483   1
   1 -18   4-76.5015 184.601   1
   1  18   4-17.1415 262.813   3
   1  18   4 123.743 160.693   6
  -1 -18  -4 284.428 158.414   2
  -1 -18  -4-43.9781 167.431   4
   1 -18   4 165.861 176.330   7
   1 -18   5 405.963 209.951   1
   1  18   5 912.378 337.874   3
   1  18   5 673.553 187.362   6
  -1 -18  -5 694.625 181.405   2
   1 -18   5 333.115 187.449   7
  -1 -18  -5 541.989 192.526   4
   1 -18   6 2638.41 278.456   7
  -1 -18  -6 2714.98 300.950   4
  -1 -18  -6 2532.03 227.968   2
   1  18   6 2734.17 276.995   6
   1 -18   6 2440.94 298.492   1
   1  18   6 2713.27 403.802   3
   1 -18   7 1544.29 267.686   1
  -1 -18  -7 1428.24 262.440   4
  -1 -18  -7 1473.94 205.475   2
   1  18   7 1772.68 383.533   3
   1 -18   7 1602.34 255.646   7
   1  18   7 1366.80 237.592   6
   1  18   8 173.462 192.191   6
   1  18   8 99.8766 326.400   3
   1 -18   8-58.1086 212.026   7
  -1 -18  -8 728.721 172.542   2
  -1 -18  -8 494.320 220.909   4
   1 -18   8 228.706 212.346   1
   1  18   9 495.853 365.003   3
   1 -18   9 713.965 240.168   1
   1  18   9 1046.66 249.233   6
  -1 -18  -9 1491.76 289.730   4
  -1 -18  -9 1081.45 192.759   2
   1 -18   9 808.301 240.694   7
   1  18  10-213.479 234.652   6
   1 -18  10 10.7413 227.586   1
   1 -18  10-130.657 229.171   7
  -1 -18 -10 297.079 257.674   4
   1  18  11 676.083 402.016   3
   1  18  11 375.947 234.008   6
   1 -18  11 356.767 253.731   1
  -1 -18 -11 869.184 291.059   4
   1 -18  11 1401.27 308.744   7
   1  18  12-99.7375 242.749   6
   1  18  12-534.420 432.451   3
  -1 -18 -12 20.9373 253.098   4
   1 -18  12 2.87019 244.616   1
   1 -18  12-372.476 282.455   7
   1  18  13 897.143 466.011   3
   1 -18  13 906.575 317.324   7
   1 -18  13 342.287 275.468   1
  -1 -18 -13 679.381 316.944   4
   1  18  14 146.212 478.968   3
   1 -18  14 543.368 316.225   1
  -1 -18 -14 33.9161 277.607   4
   1 -18  14 159.387 289.629   7
  -1  19  14 904.171 582.393   3
  -1 -19  14 272.751 228.693   1
  -1 -19  14 259.823 280.089   7
  -1  19  13 111.599 518.346   3
  -1 -19  13-420.437 281.568   7
  -1 -19  13 231.695 207.539   1
  -1 -19  12 105.246 187.451   1
  -1 -19  12 188.545 253.293   7
  -1 -19  12-84.4363 177.597   2
  -1  19  11 192.989 441.179   3
  -1 -19  11 494.204 189.517   1
  -1 -19  11 228.623 192.372   2
  -1 -19  11 56.9294 235.328   7
  -1 -19  10 660.970 197.526   2
  -1  19  10 426.659 414.506   3
  -1 -19  10 958.853 253.359   7
  -1 -19   9 137.899 166.170   2
  -1  19   9 117.201 397.836   3
  -1 -19   9 288.646 225.006   7
  -1 -19   8 900.829 200.096   2
  -1  19   8 887.733 438.126   3
   1 -19  -8 531.463 205.809   1
  -1 -19   8 1345.68 260.751   7
  -1 -19   7 1350.79 203.947   2
   1 -19  -7 1900.22 251.497   1
  -1 -19   7 1654.11 256.108   7
  -1  19   7 1931.38 476.546   3
  -1 -19   6 373.086 164.747   2
  -1  19   6 461.396 373.613   3
   1 -19  -6 68.0273 194.062   1
  -1 -19   6 346.882 194.888   7
  -1  19   5 61.4023 359.338   3
   1 -19  -5-387.133 215.459   1
  -1 -19   5-43.7291 174.868   7
  -1 -19   5 120.071 159.554   2
  -1 -19   4 592.942 171.913   2
   1 -19  -4 909.836 213.795   1
  -1  19   4 518.498 363.431   3
  -1 -19   4-51.6833 176.071   7
   1 -19  -4 131.313 56.0786   7
   1 -19  -3 4330.24 319.886   1
  -1 -19   3 3723.15 270.281   2
   1 -19  -3 3330.24 165.484   6
   1 -19  -3 3401.50 156.961   7
  -1  19   3 3523.96 467.514   3
   1 -19  -2 73.9234 178.144   1
   1 -19  -2-84.4213 106.170   6
  -1  19   2-125.190 279.350   3
  -1 -19   2 16.3063 157.188   2
   1 -19  -2 38.2625 107.783   7
   1 -19  -1 257.580 180.254   1
   1 -19  -1 76.4006 118.814   6
  -1  19   1 85.0005 244.786   3
  -1 -19   1 446.227 172.498   2
   1 -19  -1 305.168 131.921   7
   1 -19   0 297.565 193.478   1
   1 -19   0 214.055 129.298   6
   1  19   0 92.8707 144.938   6
   1 -19   0 63.8212 136.736   7
  -1 -19   0-94.1374 156.256   2
   1 -19   1 805.103 223.856   1
   1 -19   1 684.098 153.919   6
   1 -19   1 874.662 170.550   7
   1  19   1 827.699 180.370   6
  -1 -19  -1 805.077 188.662   2
   1  19   2 4623.43 307.520   6
   1 -19   2 5155.46 370.520   1
   1 -19   2 5118.97 296.431   7
   1  19   3 1130.52 281.321   3
  -1 -19  -3 1178.79 198.795   2
   1  19   3 1196.85 197.887   6
   1 -19   3 1182.98 241.813   1
   1 -19   3 926.887 193.656   7
   1  19   4 2123.54 249.417   6
   1 -19   4 1760.31 265.307   1
   1  19   4 1782.81 323.209   3
  -1 -19  -4 1827.13 280.488   4
  -1 -19  -4 1762.10 211.904   2
   1 -19   4 1874.77 240.553   7
   1  19   5 4071.86 314.217   6
   1 -19   5 3735.62 335.583   1
  -1 -19  -5 4518.00 381.986   4
  -1 -19  -5 4063.86 278.281   2
   1  19   5 4064.67 435.639   3
   1 -19   5 4563.72 329.844   7
   1 -19   6 5579.04 394.609   1
  -1 -19  -6 6557.71 436.968   4
  -1 -19  -6 7048.22 350.994   2
   1  19   6 7127.58 574.062   3
   1  19   6 6371.89 376.573   6
   1 -19   6 6482.95 383.059   7
  -1 -19  -7 347.152 168.841   2
   1 -19   7 389.405 231.268   1
   1  19   7 133.502 191.572   6
   1 -19   7 247.882 208.657   7
  -1 -19  -7 127.979 194.660   4
   1  19   7 48.2281 326.755   3
   1  19   8 1972.98 411.465   3
  -1 -19  -8 1910.19 308.851   4
  -1 -19  -8 2027.79 233.640   2
   1  19   8 1659.34 261.605   6
   1 -19   8 1278.51 269.008   1
   1 -19   8 1646.14 277.560   7
  -1 -19  -9 229.299 165.422   2
   1 -19   9 128.544 222.056   1
   1  19   9-72.2327 197.256   6
   1 -19   9-111.348 229.682   7
  -1 -19  -9 16.7449 224.878   4
   1  19  10 532.803 393.071   3
   1  19  10 419.296 236.974   6
   1 -19  10-26.0422 237.227   7
  -1 -19 -10 336.059 242.717   4
   1 -19  10 165.330 227.398   1
   1  19  11 658.513 266.700   6
   1 -19  11-6.65875 252.855   1
   1  19  11 559.748 424.695   3
   1 -19  11-364.756 259.227   7
  -1 -19 -11 163.548 249.556   4
   1 -19  12 928.372 297.715   1
  -1 -19 -12 1383.73 338.878   4
   1 -19  12 986.920 302.439   7
   1 -19  13 1058.08 306.781   1
  -1 -19 -13 909.249 314.656   4
   1 -19  13 569.881 292.066   7
  -1  20  13 432.022 517.062   3
  -1 -20  13-34.8440 258.464   7
  -1 -20  13 230.427 214.052   1
  -1  20  12-337.805 481.072   3
  -1 -20  12 174.130 187.965   2
  -1 -20  12-28.3248 184.155   1
  -1 -20  12-73.0209 250.717   7
  -1 -20  11 151.260 187.986   2
  -1 -20  11 240.061 200.004   1
  -1  20  11 3.45347 447.357   3
  -1 -20  11-206.554 230.692   7
  -1 -20  10 809.710 211.131   2
  -1 -20  10 1167.23 272.823   7
  -1 -20   9-348.051 195.848   2
  -1 -20   9-102.727 214.417   7
  -1  20   9 180.632 423.279   3
  -1  20   8 1397.18 454.148   3
   1 -20  -8 2054.71 265.189   1
  -1 -20   8 1689.95 247.258   2
  -1 -20   8 1408.74 256.455   7
  -1  20   7 2332.32 471.507   3
   1 -20  -7 2912.90 295.276   1
  -1 -20   7 2922.07 286.897   2
  -1 -20   7 2520.25 289.827   7
  -1  20   6 330.091 392.486   3
   1 -20  -6 517.763 214.569   1
  -1 -20   6 576.113 194.840   2
  -1 -20   6 860.121 226.995   7
  -1 -20   5-126.656 166.611   2
  -1  20   5 177.962 380.896   3
   1 -20  -5-90.9144 204.383   1
  -1 -20   5 130.639 192.906   7
  -1 -20   4 838.349 186.999   2
   1 -20  -4 647.671 221.424   1
  -1  20   4 482.682 357.820   3
   1 -20  -4 809.355 80.7088   7
  -1 -20   4 610.845 199.494   7
  -1 -20   3 1681.82 217.067   2
   1 -20  -3 2001.48 267.016   1
   1 -20  -3 1711.39 133.208   7
  -1  20   3 1206.36 368.036   3
   1 -20  -2 3894.04 328.732   1
   1 -20  -2 4189.31 207.837   7
  -1 -20   2 4055.32 292.152   2
   1 -20  -1 1610.12 255.070   1
  -1 -20   1 1468.30 211.267   2
   1 -20  -1 1766.74 175.401   7
   1 -20   0 733.432 213.956   1
  -1 -20   0 962.427 200.099   2
   1 -20   0 1003.75 169.206   7
   1 -20   1 53.2250 209.704   1
   1  20   1-82.2193 143.541   6
   1 -20   1-74.8363 152.016   7
  -1 -20  -1 71.1616 163.084   2
   1 -20   2 27.3049 196.919   1
   1  20   2-361.420 159.987   6
   1 -20   2 47.7204 159.367   7
  -1 -20  -2 206.738 167.631   2
  -1 -20  -3 350.839 169.413   2
   1 -20   3 586.891 186.550   7
   1 -20   3 404.305 221.457   1
   1  20   3 1043.88 200.731   6
  -1 -20  -4 591.012 182.932   2
   1 -20   4 581.000 232.039   1
   1  20   4 471.535 257.589   3
   1  20   4 533.917 192.403   6
   1 -20   4 599.708 197.375   7
   1 -20   5 2882.96 317.137   1
   1 -20   5 3054.64 295.654   7
  -1 -20  -5 3232.11 360.786   4
  -1 -20  -5 2760.85 265.137   2
   1  20   5 3742.99 432.093   3
   1  20   5 2882.29 279.449   6
   1 -20   6 484.009 229.916   1
   1  20   6 1069.91 380.051   3
  -1 -20  -6 413.681 180.548   2
   1  20   6 360.518 186.470   6
  -1 -20  -6 194.364 202.189   4
   1 -20   6 261.582 196.353   7
   1 -20   7 1057.40 258.403   1
   1  20   7 1220.42 388.663   3
   1  20   7 785.965 222.267   6
   1 -20   7 493.674 227.645   7
  -1 -20  -7 642.770 186.202   2
  -1 -20  -7 747.137 250.596   4
   1 -20   8-86.3277 231.154   1
   1  20   8 674.279 393.561   3
   1  20   8-234.140 205.384   6
  -1 -20  -8 72.5724 177.217   2
  -1 -20  -8-169.589 223.792   4
   1 -20   8-166.723 216.065   7
  -1 -20  -9 42.2534 166.372   2
   1  20   9 445.585 349.988   3
   1 -20   9-80.2252 229.038   1
   1  20   9-65.3197 214.091   6
  -1 -20  -9 283.764 250.902   4
   1 -20   9 672.642 263.159   7
   1  20  10 217.427 393.766   3
   1 -20  10 414.684 250.075   7
   1 -20  10 820.087 286.473   1
   1  20  10 471.453 241.655   6
  -1 -20 -10 643.320 272.109   4
   1 -20  11 171.247 244.913   1
   1  20  11 903.639 439.477   3
  -1 -20 -11 878.716 289.118   4
   1 -20  11 1441.52 319.531   7
   1 -20  12 889.736 297.673   1
  -1 -20 -12 1532.43 347.609   4
   1  20  12 418.909 430.562   3
   1 -20  12 1148.38 317.076   7
   1 -20  13 213.668 264.390   1
  -1 -20 -13 124.747 263.255   4
   1  20  13 82.9696 450.879   3
   1 -20  13 529.162 314.384   7
  -1 -21  13 84.9297 217.211   1
  -1  21  13 472.652 513.464   3
  -1 -21  13-169.159 265.448   7
  -1  21  12 439.420 500.392   3
  -1 -21  12 209.504 252.050   7
  -1 -21  12 132.095 211.142   1
  -1  21  11 1030.82 526.677   3
  -1 -21  11 373.656 205.671   2
  -1 -21  11 58.6975 199.219   1
  -1 -21  11 1112.01 292.755   7
  -1  21  10 405.364 443.765   3
  -1 -21  10 2.05031 185.643   1
  -1 -21  10-27.1953 243.148   7
  -1 -21  10-144.909 183.969   2
  -1 -21   9 2853.93 305.237   2
  -1 -21   9 2788.42 325.656   7
  -1  21   9 2394.38 535.034   3
  -1 -21   8 439.660 196.458   2
  -1  21   8-218.720 395.074   3
   1 -21  -8 53.5533 205.004   1
  -1 -21   8 113.711 219.803   7
  -1  21   7 1206.08 434.709   3
  -1 -21   7 1666.74 277.179   7
   1 -21  -7 1355.06 272.630   1
  -1 -21   7 1464.99 242.345   2
  -1 -21   6 74.4008 175.480   2
   1 -21  -6 446.928 224.018   1
  -1  21   6 133.572 389.366   3
  -1 -21   6 322.079 211.050   7
  -1  21   5 160.590 374.266   3
   1 -21  -5 231.624 207.113   1
  -1 -21   5 272.241 181.295   2
  -1 -21   5 343.090 190.207   7
  -1  21   4 124.842 331.221   3
  -1 -21   4 47.8572 183.145   7
   1 -21  -4-47.4841 196.633   1
  -1 -21   4 217.292 174.293   2
   1 -21  -3 530.800 223.416   1
  -1  21   3 19.7697 302.992   3
   1 -21  -3 603.228 114.437   7
  -1 -21   3 731.327 208.428   7
  -1 -21   3 678.473 189.214   2
   1 -21  -2-70.1348 196.727   1
  -1  21   2 183.951 277.041   3
  -1 -21   2 245.150 173.390   2
   1 -21  -2 116.706 122.854   7
  -1 -21   1 3174.10 270.828   2
   1 -21  -1 2659.28 294.014   1
   1 -21  -1 3366.54 215.822   7
   1 -21   0-83.5675 212.261   1
  -1 -21   0 161.008 170.213   2
   1 -21   0-13.0059 144.185   7
   1 -21   1 953.142 241.040   1
  -1 -21  -1 1013.44 208.148   2
   1  21   1 778.155 187.092   6
   1 -21   1 1213.30 193.599   7
  -1 -21  -2 85.9412 185.226   2
   1 -21   2 249.793 210.787   1
   1 -21   2 485.237 173.948   7
   1  21   2 198.625 163.473   6
   1  21   3 1144.70 214.102   6
   1 -21   3 1108.71 246.311   1
   1 -21   3 1237.68 224.328   7
  -1 -21  -3 903.893 210.674   2
   1 -21   4 312.408 219.485   1
  -1 -21  -4-6.95353 179.599   2
   1  21   4 99.3304 268.758   3
   1 -21   4 138.949 207.025   7
   1  21   4 141.247 158.018   6
  -1 -21  -5 71.4770 178.532   2
   1 -21   5 228.324 207.687   1
   1  21   5 408.952 290.951   3
   1  21   5 139.281 178.979   6
   1 -21   5 81.0785 195.596   7
   1 -21   6 942.855 244.313   7
   1  21   6 982.778 362.217   3
   1  21   6 766.866 205.235   6
  -1 -21  -6 720.989 212.291   2
  -1 -21  -6 597.605 246.113   4
   1 -21   6 370.704 239.744   1
   1  21   7 687.941 375.481   3
   1  21   7-252.195 205.041   6
   1 -21   7-111.940 237.656   1
  -1 -21  -7 117.665 220.250   4
  -1 -21  -7-95.4773 186.987   2
   1 -21   7-31.1530 206.106   7
   1 -21   8-278.601 251.958   1
   1  21   8 383.736 384.020   3
   1  21   8 552.771 227.781   6
  -1 -21  -8 571.602 198.506   2
  -1 -21  -8 605.624 263.624   4
   1 -21   8-32.6329 224.442   7
  -1 -21  -9 632.888 195.610   2
   1  21   9 1196.75 414.074   3
   1 -21   9 652.175 268.275   1
   1  21   9 1076.08 255.913   6
  -1 -21  -9 1558.25 312.732   4
   1 -21   9 320.050 247.827   7
   1  21  10 514.905 403.128   3
   1 -21  10 357.322 259.581   1
   1 -21  10 93.2720 254.690   7
  -1 -21 -10-51.1600 238.260   4
   1  21  11 243.610 407.093   3
   1 -21  11 1112.90 316.133   1
  -1 -21 -11 709.310 291.622   4
   1 -21  11 388.464 280.516   7
   1  21  12-185.881 447.510   3
   1 -21  12 314.639 285.832   1
  -1 -21 -12 664.012 305.813   4
   1 -21  12 484.908 301.019   7
  -1 -22  12 423.597 281.365   7
  -1  22  12 989.531 559.312   3
  -1 -22  12 480.006 221.319   1
  -1 -22  11-211.852 217.920   1
  -1 -22  11-10.4909 247.420   7
  -1 -22  11 307.630 206.626   2
  -1  22  11-359.361 502.661   3
  -1 -22  10 590.558 206.487   2
  -1  22  10 753.698 492.464   3
  -1 -22  10 400.832 221.599   1
  -1 -22  10 1106.85 286.029   7
  -1  22   9 24.5637 421.113   3
  -1 -22   9 266.134 231.431   7
  -1 -22   9 182.584 197.229   2
  -1  22   8 1766.15 514.730   3
  -1 -22   8 1892.12 297.587   7
  -1 -22   8 1594.68 254.182   2
  -1  22   7 257.393 415.290   3
  -1 -22   7 269.465 247.900   7
   1 -22  -7 411.629 228.096   1
  -1 -22   7 193.501 204.762   2
  -1 -22   6 933.679 220.945   2
  -1  22   6 1305.20 451.897   3
  -1 -22   6 692.936 231.516   7
   1 -22  -6 1304.12 272.743   1
  -1 -22   5-195.060 203.475   2
  -1  22   5-496.465 391.963   3
   1 -22  -5 264.685 213.900   1
  -1 -22   5 92.8818 202.165   7
  -1 -22   4 105.638 178.571   2
   1 -22  -4 240.287 224.165   1
  -1  22   4 445.498 380.633   3
  -1 -22   4-69.4635 204.621   7
  -1 -22   3 131.933 174.687   2
  -1  22   3 236.210 312.077   3
   1 -22  -3 150.780 210.732   1
  -1 -22   3 144.169 187.665   7
   1 -22  -2 180.269 216.693   1
  -1  22   2 577.404 322.748   3
   1 -22  -2 246.865 138.379   7
  -1 -22   2 351.106 198.375   2
  -1 -22   1 727.536 200.779   2
   1 -22  -1 818.380 236.677   1
   1 -22  -1 611.650 155.662   7
  -1 -22   0 228.556 178.180   2
   1 -22   0 459.427 164.006   7
   1 -22   1 9.54534 210.800   1
  -1 -22  -1 54.4003 175.455   2
   1 -22   1 9.34523 160.147   7
   1  22   2 2675.38 269.131   6
   1 -22   2 2788.63 330.921   1
   1 -22   2 2684.07 254.247   7
  -1 -22  -2 2355.42 262.780   2
  -1 -22  -3 108.841 181.372   2
   1 -22   3 352.115 222.323   1
   1 -22   3 175.763 186.773   7
   1  22   3 438.421 171.153   6
  -1 -22  -4-58.1259 177.715   2
   1 -22   4 168.230 218.317   1
   1  22   4-465.884 292.189   3
   1  22   4 143.907 171.432   6
   1 -22   4-193.029 197.616   7
  -1 -22  -5 22.9748 184.757   2
   1  22   5-320.817 285.042   3
   1  22   5 155.264 166.999   6
   1 -22   5 93.1654 221.993   1
   1 -22   5 291.546 209.552   7
   1  22   6 974.469 233.358   6
   1 -22   6 1039.21 265.756   1
   1  22   6 174.464 310.953   3
  -1 -22  -6 1072.50 237.179   2
   1 -22   6 518.140 224.361   7
  -1 -22  -7 242.863 195.395   2
   1  22   7-74.5904 347.305   3
   1  22   7 442.660 216.656   6
   1 -22   7 76.2455 229.660   1
   1 -22   7 96.4773 210.436   7
  -1 -22  -7 193.155 255.466   4
   1  22   8 1003.48 407.452   3
  -1 -22  -8 471.625 213.178   2
   1  22   8 304.660 201.954   6
   1 -22   8 608.034 262.812   1
  -1 -22  -8 369.380 240.964   4
   1 -22   8 616.897 261.045   7
   1  22   9 3307.05 538.519   3
   1 -22   9 2473.80 352.796   1
  -1 -22  -9 4156.60 313.353   2
  -1 -22  -9 3646.75 423.728   4
   1 -22   9 1959.57 327.062   7
   1 -22  10 69.1140 264.574   1
  -1 -22 -10 439.403 266.897   4
   1 -22  10 603.861 277.780   7
   1  22  10 797.147 424.439   3
   1  22  11-91.0043 407.953   3
   1 -22  11 42.3984 268.718   1
  -1 -22 -11 105.662 260.787   4
   1 -22  11 523.213 283.368   7
  -1  23  11 1145.09 538.183   3
  -1 -23  11 1577.26 326.063   7
  -1 -23  11 858.535 244.252   1
  -1 -23  10 178.955 212.044   1
  -1 -23  10-111.834 197.887   2
  -1  23  10 212.200 477.433   3
  -1 -23   9 1353.29 281.692   7
  -1  23   9 698.878 502.170   3
  -1 -23   9 1095.75 250.589   1
  -1 -23   9 1287.55 249.772   2
  -1 -23   8 68.5264 196.128   2
  -1  23   8 503.537 478.979   3
  -1 -23   8-268.856 244.801   7
  -1  23   7 299.561 427.516   3
  -1 -23   7 181.593 232.813   7
   1 -23  -7 139.547 231.068   1
  -1 -23   7-105.249 203.123   2
  -1  23   6 500.442 399.446   3
   1 -23  -6 292.937 240.428   1
  -1 -23   6 315.047 222.859   2
  -1 -23   6 342.307 233.030   7
   1 -23  -5 1632.77 286.635   1
  -1 -23   5 1877.12 276.310   2
  -1 -23   5 1921.26 275.823   7
  -1  23   5 2465.84 492.367   3
   1 -23  -4 8956.08 495.687   1
  -1 -23   4 7866.23 454.445   2
  -1 -23   4 7468.09 421.693   7
  -1  23   4 7110.88 654.411   3
  -1 -23   3 69.3955 184.998   2
   1 -23  -3-0.47441 228.589   1
  -1  23   3 134.329 325.977   3
  -1 -23   3-409.731 210.447   7
   1 -23  -2 1987.44 298.843   1
  -1 -23   2 2086.10 275.915   2
  -1 -23   2 2209.18 261.959   7
  -1 -23   1 459.463 198.103   2
   1 -23  -1 876.348 254.330   1
   1 -23  -1 474.043 160.003   7
   1 -23   0 164.985 219.077   1
  -1 -23   0 299.246 198.688   2
   1 -23   0 41.8441 159.914   7
  -1 -23  -1 283.576 210.993   2
   1 -23   1-192.994 236.053   1
   1 -23   1 167.214 175.659   7
  -1 -23  -2 928.760 223.932   2
   1 -23   2 765.204 261.889   1
   1 -23   2 663.782 195.075   7
   1  23   2 328.686 166.188   6
  -1 -23  -3 238.423 188.036   2
   1 -23   3-284.745 240.633   1
   1  23   3 196.137 163.094   6
   1 -23   3 206.633 204.380   7
   1 -23   4 632.079 224.126   7
   1  23   4 402.759 189.931   6
   1 -23   4 788.024 258.053   1
  -1 -23  -4 337.391 199.469   2
   1 -23   5 376.614 217.185   7
   1  23   5 242.069 284.549   3
   1  23   5 241.997 181.870   6
   1 -23   5-439.990 252.619   1
  -1 -23  -5-68.2778 200.814   2
  -1 -23  -6 679.532 226.638   2
   1 -23   6 493.966 254.728   1
   1  23   6 588.293 331.757   3
   1  23   6 576.214 213.147   6
   1 -23   6 717.677 230.282   7
  -1 -23  -7 412.516 212.056   2
   1 -23   7 461.633 262.535   1
   1  23   7 1207.91 399.193   3
   1  23   7 736.999 229.652   6
   1 -23   7 525.673 240.504   7
  -1 -23  -8-16.5797 184.151   2
   1  23   8-237.357 367.841   3
   1 -23   8 5.41884 244.578   1
  -1 -23  -8-186.286 282.406   4
   1 -23   8 164.420 239.236   7
   1 -23   9-180.917 282.258   1
   1  23   9 531.418 439.348   3
   1 -23   9 134.051 254.180   7
  -1 -23  -9 125.829 259.445   4
   1  23  10 535.525 444.465   3
   1 -23  10-242.323 300.565   1
  -1 -23 -10-149.096 260.265   4
   1 -23  10 28.7836 264.424   7
   1 -23  11 333.610 285.999   7
   1  23  11 648.833 458.397   3
   1 -23  11-235.596 291.847   1
  -1 -23 -11 505.860 294.004   4
  -1 -24  10-115.766 215.641   1
  -1  24  10-99.0004 474.070   3
  -1 -24  10 78.4093 216.688   2
  -1 -24  10 27.2176 263.657   7
  -1 -24   9 90.3193 201.238   2
  -1  24   9 10.7470 467.897   3
  -1 -24   9-162.905 245.111   7
  -1 -24   9 200.364 217.421   1
  -1 -24   8 251.509 219.211   2
  -1 -24   8-95.7489 236.880   7
  -1 -24   8-85.2766 199.477   1
  -1  24   7 2631.46 567.094   3
   1 -24  -7 3698.67 367.445   1
  -1 -24   7 2536.14 306.756   2
  -1 -24   7 3145.15 350.008   7
  -1 -24   6 418.623 225.690   2
  -1  24   6 637.500 425.998   3
   1 -24  -6-192.554 239.929   1
  -1 -24   6-17.1804 237.846   7
  -1 -24   5 357.402 218.488   2
   1 -24  -5 285.119 239.255   1
  -1  24   5 446.377 398.132   3
  -1 -24   5 402.197 222.700   7
   1 -24  -4 560.234 259.402   1
  -1  24   4 55.7123 323.430   3
  -1 -24   4 694.904 243.240   2
  -1 -24   4 481.466 223.624   7
   1 -24  -3 154.888 227.407   1
  -1  24   3-29.9403 312.243   3
  -1 -24   3 29.1540 191.939   7
  -1 -24   3-128.738 203.883   2
   1 -24  -2 2454.57 317.243   1
  -1 -24   2 2223.01 285.055   2
  -1 -24   2 2893.51 293.054   7
   1 -24  -1 2903.40 344.908   1
  -1 -24   1 2177.51 283.224   2
   1 -24   0 130.613 238.210   1
  -1 -24   0 227.977 204.347   2
   1 -24   0 207.304 171.864   7
  -1 -24  -1 415.393 216.185   2
   1 -24   1 447.471 240.371   1
   1 -24   1 457.875 189.338   7
   1 -24   2-266.074 242.891   1
  -1 -24  -2 3.01267 204.741   2
   1 -24   2-117.564 196.734   7
  -1 -24  -3 913.040 239.642   2
   1 -24   3 850.174 270.001   1
   1  24   3 780.471 208.769   6
   1 -24   3 657.996 220.047   7
  -1 -24  -4 446.444 226.278   2
   1 -24   4 534.741 268.296   1
   1  24   4 177.489 177.665   6
   1 -24   4 103.607 206.004   7
   1  24   5 1080.60 232.404   6
   1 -24   5 847.818 289.538   1
   1  24   5 1143.02 337.674   3
  -1 -24  -5 1330.24 270.747   2
   1 -24   5 925.741 228.381   7
  -1 -24  -6 322.354 214.738   2
   1  24   6 50.8204 312.329   3
   1  24   6 45.7388 194.477   6
   1 -24   6 71.2913 237.352   1
   1 -24   6 455.238 236.295   7
  -1 -24  -7 967.409 245.137   2
   1 -24   7 935.543 299.546   1
   1  24   7 1021.67 395.421   3
   1 -24   7 642.130 244.001   7
  -1 -24  -8 231.556 204.755   2
   1 -24   8 394.226 247.466   7
   1  24   8 481.721 388.505   3
   1 -24   8 416.592 269.401   1
   1  24   9 2352.20 500.239   3
  -1 -24  -9 2614.89 430.943   4
   1 -24   9 1266.57 320.151   1
   1 -24   9 1150.72 302.273   7
   1 -24  10 437.448 304.208   1
  -1 -24 -10 149.707 291.374   4
   1 -24  10 174.369 275.011   7
  -1  25  10 37.7846 490.681   3
  -1 -25  10 30.5997 225.518   1
  -1 -25  10 527.501 282.824   7
  -1  25   9-6.06008 478.022   3
  -1 -25   9 315.191 231.658   1
  -1 -25   9 92.1657 206.555   2
  -1 -25   9 309.088 248.841   7
  -1 -25   8 1817.86 300.235   1
  -1  25   8 2324.79 611.323   3
  -1 -25   8 2223.19 304.314   2
  -1 -25   8 2746.25 360.206   7
  -1 -25   7 416.492 236.026   2
  -1  25   7 119.775 435.307   3
  -1 -25   7 855.592 244.700   1
  -1 -25   7 371.185 271.500   7
  -1 -25   6 656.206 237.969   2
  -1  25   6-264.189 390.959   3
   1 -25  -6 504.089 270.812   1
  -1 -25   6 36.4937 235.828   7
  -1 -25   5 795.850 240.120   2
   1 -25  -5 409.990 252.778   1
  -1  25   5 433.557 401.261   3
  -1 -25   5 702.642 247.489   7
   1 -25  -4 666.854 285.949   1
  -1  25   4 597.437 360.475   3
  -1 -25   4 190.629 221.936   7
  -1 -25   4 205.019 218.345   2
  -1 -25   3-326.770 210.437   7
  -1  25   3-108.665 323.488   3
  -1 -25   3-178.897 218.413   2
   1 -25  -3 39.3125 241.639   1
   1 -25  -2 321.447 237.174   1
  -1 -25   2 465.906 232.455   2
  -1 -25   2 517.238 219.818   7
  -1 -25   1 236.973 231.079   2
   1 -25  -1-129.210 241.315   1
  -1 -25   1 407.310 201.318   7
   1 -25   0 2254.77 330.634   1
  -1 -25   0 2429.97 320.136   2
  -1 -25  -1 128.806 234.682   2
   1 -25   1-183.259 180.705   7
   1 -25   1 236.918 253.460   1
   1 -25   2-264.786 252.616   1
  -1 -25  -2-142.373 207.722   2
   1 -25   2 246.337 189.772   7
  -1 -25  -3 118.960 221.337   2
   1 -25   3-326.706 204.112   7
   1 -25   3-142.088 248.065   1
  -1 -25  -4 570.378 236.904   2
   1 -25   4-99.5107 244.154   1
   1 -25   4 542.183 226.879   7
   1  25   4 265.062 179.449   6
  -1 -25  -5-82.8889 208.235   2
   1  25   5-41.8640 189.212   6
   1 -25   5 470.005 284.023   1
   1 -25   5 44.9147 217.175   7
   1 -25   6 876.828 287.608   1
   1  25   6 589.454 316.004   3
   1 -25   6 1452.16 284.223   7
  -1 -25  -6 1162.38 259.521   2
  -1 -25  -7-496.061 221.391   2
   1 -25   7-298.462 263.064   1
   1  25   7 141.169 321.441   3
   1 -25   7-441.201 257.207   7
   1 -25   8-7.04417 273.997   1
   1  25   8-189.101 375.825   3
   1 -25   8 595.352 289.749   7
   1  25   9 270.988 405.303   3
   1 -25   9 606.595 281.533   7
   1 -25   9 1238.22 335.052   1
  -1  26   8 339.824 458.251   3
  -1 -26   8 131.715 236.951   2
  -1 -26   8 640.281 285.159   7
  -1 -26   8 228.610 232.678   1
  -1 -26   7-328.349 231.198   2
  -1  26   7 386.992 453.286   3
  -1 -26   7 746.257 265.471   1
  -1 -26   7 511.146 264.838   7
  -1 -26   6 582.838 243.176   1
  -1  26   6 478.956 426.725   3
  -1 -26   6 479.401 245.925   7
   1 -26  -6 343.813 271.770   1
  -1 -26   6 305.375 229.122   2
   1 -26  -5 258.126 269.248   1
  -1  26   5 284.640 363.342   3
  -1 -26   5 231.183 243.745   7
  -1 -26   5 113.821 219.559   2
  -1 -26   4 102.440 214.827   2
   1 -26  -4 36.9382 252.189   1
  -1  26   4 217.955 374.720   3
  -1 -26   4 357.749 240.124   7
  -1 -26   3 678.583 228.479   7
  -1 -26   3 451.940 238.652   2
   1 -26  -3 1118.47 303.559   1
  -1 -26   2-201.473 220.755   2
   1 -26  -2 104.650 244.327   1
  -1 -26   2 400.790 226.316   7
   1 -26  -1 1613.06 312.730   1
  -1 -26   1 1570.83 292.076   2
  -1 -26   1 2307.39 294.957   7
  -1 -26   0-306.072 236.311   2
   1 -26   0 84.5675 256.518   1
  -1 -26   0-118.104 200.023   7
  -1 -26  -1 779.916 261.900   2
   1 -26   1 625.264 269.129   1
  -1 -26  -2 343.712 229.321   2
   1 -26   2 246.731 280.771   1
  -1 -26  -3 369.289 235.861   2
   1 -26   3-168.896 264.304   1
   1 -26   3 246.611 219.688   7
  -1 -26  -4-266.704 229.830   2
   1 -26   4-51.8509 257.340   1
   1 -26   4-61.1934 213.152   7
  -1 -26  -5 970.237 269.655   2
   1 -26   5 667.477 291.031   1
   1 -26   5 1154.19 264.142   7
   1 -26   6 298.305 231.358   7
   1 -26   6 52.7489 276.554   1
  -1 -26  -6 618.911 225.287   1
  -1 -26  -6 459.013 234.033   2
  -1 -26  -7 1214.86 267.596   2
   1 -26   7 1435.14 342.892   1
   1  26   7 1912.92 454.323   3
   1 -26   7 2160.80 337.781   7
   1 -26   8 357.872 302.067   1
   1 -26   8 904.750 300.319   7
  -1 -27   7-11.6664 221.004   2
  -1  27   7 520.020 448.835   3
  -1 -27   7 888.250 258.635   1
  -1 -27   7 879.652 284.219   7
  -1 -27   6-105.944 223.002   2
  -1  27   6-362.048 418.139   3
   1 -27  -6-52.7255 285.654   1
  -1 -27   6-467.942 249.775   7
  -1 -27   6 523.010 252.014   1
  -1 -27   5 2064.48 319.667   7
  -1  27   5 1900.53 464.622   3
   1 -27  -5 2396.18 361.936   1
  -1 -27   5 1883.16 310.533   2
  -1 -27   5 1994.36 316.754   1
  -1 -27   4 364.124 238.205   2
   1 -27  -4-67.8695 265.557   1
  -1  27   4 167.589 347.156   3
  -1 -27   4 292.592 234.061   7
  -1 -27   3 793.095 272.331   2
   1 -27  -3 1312.33 310.156   1
   1 -27  -2 251.011 273.103   1
  -1 -27   2 670.004 234.027   7
  -1 -27   2 504.943 249.409   2
  -1 -27   1 695.337 266.366   2
   1 -27  -1 969.753 300.198   1
  -1 -27   1 239.010 210.639   7
   1 -27   0 780.540 299.814   1
  -1 -27   0 321.288 263.287   2
  -1 -27   0 715.826 233.787   7
  -1 -27  -1 622.389 257.751   2
   1 -27   1 849.738 309.880   1
  -1 -27  -1 1013.71 245.300   7
   1 -27   2 245.074 277.836   1
  -1 -27  -2-130.110 225.917   2
  -1 -27  -3 81.3051 227.742   2
   1 -27   3-366.031 280.159   1
   1 -27   4 167.992 285.035   1
  -1 -27  -4-149.920 206.955   1
  -1 -27  -4 48.0347 230.545   2
   1 -27   4-293.229 234.964   7
  -1 -27  -5 319.625 241.043   2
   1 -27   5 407.057 277.959   1
  -1 -27  -5 566.928 233.450   1
   1 -27   5 118.128 231.379   7
   1 -27   6 1543.85 357.252   1
  -1 -27  -6 1838.32 282.631   1
  -1 -27  -6 523.008 246.669   2
   1 -27   6 671.453 246.741   7
  -1 -28   6 1434.03 302.955   2
  -1  28   6 1111.02 448.400   3
  -1 -28   6 1608.32 317.555   7
  -1 -28   5 97.1259 238.597   2
   1 -28  -5-130.968 285.580   1
  -1 -28   5 87.3020 256.679   7
  -1  28   5-301.218 397.861   3
  -1 -28   5 28.2395 227.064   1
  -1 -28   4 1159.49 293.707   2
   1 -28  -4 1587.78 343.152   1
  -1 -28   4 1177.84 288.035   1
  -1 -28   4 957.461 281.495   7
  -1 -28   3-8.71582 232.963   2
  -1 -28   3 114.859 231.596   1
   1 -28  -3-319.089 283.614   1
  -1 -28   3 423.378 260.543   7
  -1 -28   2 96.4109 255.263   2
  -1 -28   2 46.2383 237.887   1
   1 -28  -2 765.117 317.007   1
  -1 -28   2-39.7932 226.504   7
  -1 -28   1 158.763 239.464   2
   1 -28  -1-315.960 287.154   1
  -1 -28   1-259.471 221.637   7
   1 -28   0 841.262 301.258   1
  -1 -28   0 347.958 247.643   2
  -1 -28   0 126.153 208.580   7
  -1 -28  -1-236.269 248.155   2
   1 -28   1 147.101 274.687   1
  -1 -28  -1-569.157 250.586   1
  -1 -28  -2 221.652 256.111   2
   1 -28   2 435.368 291.786   1
  -1 -28  -2 1080.69 271.634   1
  -1 -28  -3 11.7798 228.171   2
   1 -28   3 682.787 330.864   1
  -1 -28  -3 679.740 251.758   1
  -1 -28  -4 44.2302 227.965   2
   1 -28   4-197.074 296.221   1
  -1 -28  -4 657.591 244.868   1
  -1 -28  -5 20.1604 242.473   2
   1 -28   5 1.97681 293.282   1
  -1 -28  -5-383.254 239.176   1
  -1 -29   3 240.368 254.459   2
   1 -29  -3 1104.23 341.678   1
  -1 -29   3 914.267 267.983   7
  -1 -29   3 1059.21 296.454   1
  -1 -29   2-227.260 251.820   2
   1 -29  -2-244.885 285.290   1
  -1 -29   2-234.425 234.231   1
  -1 -29   2-0.62282 230.869   7
  -1 -29   1 28.6633 265.269   2
   1 -29  -1 699.301 319.692   1
  -1 -29   1 119.406 232.727   7
  -1 -29   1 44.7564 234.170   1
   1 -29   0-60.7760 288.632   1
  -1 -29   0 343.111 251.611   1
  -1 -29  -1-335.135 264.785   2
   1 -29   1-126.103 293.200   1
  -1 -29  -1-10.5969 227.673   1
   1 -29   2-268.919 298.117   1
  -1 -29  -2 202.152 243.090   1
  -1 -29  -2-156.822 257.378   2
  -2   0  18 2813.85 712.593   3
  -2   0  17-177.612 225.077   7
  -2   0  17 868.399 564.744   3
  -2   0  16 563.930 228.666   7
  -2   0  16 1222.09 575.249   3
  -2   0  15 37.4641 191.852   7
  -2   0  15 482.229 479.702   3
  -2   0  14 127.959 175.785   7
  -2   0  14-83.4708 409.425   3
   2   0 -13 22.2053 92.6429   4
  -2   0  13 7.56214 72.9629   2
  -2   0  13 38.5590 162.476   7
  -2   0  13-99.0702 379.220   3
  -2   0  12 837.167 169.355   7
   2   0 -12 556.402 99.1893   4
  -2   0  12 961.229 394.390   3
  -2   0  12 765.767 103.273   2
  -2   0  11 34.8003 88.7992   2
  -2   0  11-15.6322 157.534   1
   2   0 -11 4.36559 66.6406   4
  -2   0  11-179.045 342.281   3
  -2   0  11-29.2664 132.015   7
  -2   0  10 3522.33 178.955   2
  -2   0  10 3443.71 254.250   1
  -2   0  10 3565.88 446.860   3
  -2   0  10 3307.58 231.660   7
  -2   0   9-256.905 303.424   3
  -2   0   9-88.9243 104.997   7
  -2   0   9 80.4058 148.410   1
  -2   0   9-31.6220 100.383   2
  -2   0   8 1474.84 157.040   7
  -2   0   8 1589.77 159.128   2
  -2   0   8 1688.15 207.004   1
  -2   0   8 1589.27 316.144   3
  -2   0   7-21.3128 115.252   6
  -2   0   7-72.3976 120.236   2
  -2   0   7-46.2913 152.868   1
  -2   0   7 69.2328 236.426   3
  -2   0   6 14783.9 400.636   6
  -2   0   6 15448.4 414.838   2
  -2   0   6 15983.9 460.404   1
  -2   0   6 14703.2 598.659   3
  -2   0   5 92.8753 122.162   6
   2   0  -5-81.5352 132.413   1
  -2   0   5-9.34665 118.515   2
  -2   0   5 41.9480 126.083   1
  -2   0   5-123.577 194.545   3
  -2   0   4 37.0214 104.851   6
   2   0  -4 54.4010 114.659   6
  -2   0   4 78.9265 149.380   1
  -2   0   4-245.656 195.083   3
   2   0  -4 299.803 147.617   1
   2   0  -3-92.6705 157.227   1
  -2   0   3 78.8904 114.191   6
  -2   0   3 143.161 153.381   1
  -2   0   3 8.39282 59.9005   4
   2   0  -3-15.3916 116.951   6
  -2   0   3-45.6966 163.825   3
  -2   0   2 4121.58 224.609   6
  -2   0   2 4739.09 188.423   4
  -2   0   2 4538.72 263.480   1
   2   0  -2 4694.29 284.008   1
   2   0  -2 4867.71 283.560   3
  -2   0   2 4592.59 255.564   3
   2   0  -2 5052.99 251.068   6
  -2   0   1 34.3430 120.153   3
  -2   0   1 56.7039 131.350   6
   2   0  -1 93.4961 138.803   6
   2   0  -1-209.216 172.080   1
  -2   0   1-26.6750 162.793   1
  -2   0   1 69.9969 110.039   4
   2   0  -1-241.579 144.562   3
  -2   0   0 87.3925 129.433   6
  -2   0   0 300.863 166.326   1
   2   0   0 185.884 146.470   6
  -2   0   0 139.900 111.087   3
  -2   0   0 18.9026 130.015   4
   2   0   0 52.3818 125.565   3
   2   0   0-3.06473 167.408   1
   2   0   1 206.479 157.098   6
  -2   0  -1 122.532 137.422   6
  -2   0  -1-46.3371 48.9584   5
  -2   0  -1 73.4842 134.231   4
   2   0   1 86.8470 116.096   3
  -2   0  -1 202.848 159.839   1
  -2   0  -2 18022.5 291.405   5
  -2   0  -2 19260.2 536.139   4
  -2   0  -2 16055.3 466.112   1
   2   0   2 18189.8 504.106   1
   2   0   2 17422.0 336.504   3
  -2   0  -2 16451.3 473.645   6
   2   0   2 17211.7 489.058   6
  -2   0  -3 17.5576 139.781   6
   2   0   3 29.8888 162.044   6
   2   0   3 50.6940 101.051   3
  -2   0  -3-7.91917 96.9339   5
  -2   0  -3-13.0930 175.052   4
   2   0   3 39.7586 163.160   1
  -2   0  -3 256.126 167.752   1
  -2   0  -4 4325.61 277.976   1
  -2   0  -4 4551.86 213.614   5
  -2   0  -4 4376.69 318.186   4
   2   0   4 4478.30 293.047   1
   2   0   4 4466.24 304.410   6
   2   0   5-232.027 165.637   6
  -2   0  -5 115.573 123.358   5
  -2   0  -5 13.7515 163.506   4
   2   0   5 150.491 165.558   1
  -2   0  -5-112.483 155.310   1
  -2   0  -6 4306.02 256.401   5
  -2   0  -6 4608.24 365.644   4
   2   0   6 4379.43 286.642   1
   2   0   6 4196.30 315.734   6
   2   0   7 43.1393 188.716   6
  -2   0  -7-41.4417 151.960   5
   2   0   7 1.09532 157.878   1
  -2   0  -7-301.629 196.808   4
  -2   0  -8 10398.7 435.153   5
  -2   0  -8 9625.75 542.951   4
   2   0   8 9627.34 404.872   1
   2   0   8 8605.42 451.905   6
   2   0   9-10.1077 195.314   6
  -2   0  -9 178.312 227.766   4
   2   0   9-78.7601 166.391   1
   2   0  10 128.462 215.411   6
  -2   0 -10 352.002 254.576   4
   2   0  10 16.8649 184.132   1
   2   0  11-116.167 239.551   6
  -2   0 -11 435.198 270.927   4
   2   0  11-26.8305 181.665   1
  -2   0 -12 2064.36 388.223   4
   2   0  12 1772.66 256.776   1
   2   0  12 1840.77 332.035   6
   2   0  13 44.7200 257.714   6
  -2   0 -13 620.837 342.561   4
   2   0  13 212.569 195.172   1
   2   0  14 1270.15 325.795   6
  -2   0 -14 846.639 325.158   4
   2   0  14 1663.74 476.243   3
   2   0  15 571.931 325.596   6
  -2   0 -15 978.178 378.376   4
   2   0  15 837.068 470.594   3
   2   0  16 107.141 297.587   6
  -2   0 -16 56.1870 320.998   4
   2   0  16 148.740 429.923   3
  -2  -1  18 144.744 242.170   7
  -2  -1  18-43.4669 551.249   3
  -2   1  18-15.8198 565.656   3
  -2   1  17-339.641 232.444   7
  -2   1  17-76.6348 550.609   3
  -2  -1  17 189.367 237.861   7
  -2  -1  17-566.079 515.995   3
  -2   1  16-345.345 535.182   3
  -2  -1  16 186.090 236.574   7
  -2   1  16 470.830 221.775   7
  -2  -1  16 464.166 473.850   3
  -2  -1  15-159.928 195.774   7
  -2   1  15 227.647 200.071   7
  -2  -1  15-237.607 437.016   3
  -2   1  15 446.264 474.871   3
  -2   1  14 392.176 185.134   7
  -2  -1  14 194.687 183.866   7
  -2  -1  14 168.537 400.072   3
  -2   1  14-269.485 455.437   3
  -2  -1  13 1650.76 113.821   2
  -2  -1  13 1781.55 218.073   7
   2   1 -13 1716.44 150.544   4
   2  -1 -13 1601.13 151.276   4
  -2   1  13 1846.29 215.641   7
  -2  -1  13 1444.84 438.859   3
  -2   1  13 1703.29 480.245   3
   2   1 -12 1804.95 132.220   4
  -2   1  12 1880.63 199.111   7
  -2   1  12 2243.52 133.041   2
  -2  -1  12 2259.74 135.371   2
   2  -1 -12 2069.98 150.600   4
  -2  -1  12 2254.73 463.216   3
  -2   1  12 2440.12 475.201   3
  -2  -1  12 2283.57 232.659   7
  -2  -1  11 627.979 107.713   2
   2   1 -11 555.031 77.0210   4
   2  -1 -11 499.411 86.4750   4
  -2   1  11 615.267 170.102   1
  -2   1  11 449.211 105.300   2
  -2   1  11 663.348 152.557   7
  -2  -1  11 453.107 150.024   7
  -2  -1  11 752.465 195.818   1
  -2  -1  11 291.530 325.934   3
  -2   1  11 32.8444 329.140   3
  -2   1  10 862.976 147.306   7
  -2   1  10 712.758 127.074   2
  -2  -1  10 663.600 177.451   1
  -2   1  10 791.243 162.975   1
  -2  -1  10 863.433 119.834   2
   2   1 -10 593.848 63.1963   4
   2  -1 -10 473.318 73.8825   4
  -2  -1  10 787.115 155.794   7
  -2  -1  10 467.341 293.666   3
  -2   1  10 843.156 340.791   3
  -2   1   9 1277.47 144.285   2
  -2  -1   9 1280.74 139.216   2
  -2   1   9 1391.37 192.031   1
  -2  -1   9 1304.94 198.890   1
  -2  -1   9 1304.65 346.853   3
  -2  -1   9 1090.09 151.363   7
  -2   1   9 1141.33 142.930   7
  -2   1   9 1162.40 342.369   3
  -2   1   8 214.698 107.571   7
  -2   1   8 201.802 121.035   6
  -2   1   8 286.152 147.932   1
  -2  -1   8 169.538 105.581   7
  -2   1   8 177.349 122.799   2
  -2  -1   8 371.598 113.363   2
  -2  -1   8 279.068 262.796   3
  -2  -1   8 284.134 155.907   1
  -2   1   8 474.272 258.941   3
  -2  -1   7 253.858 158.018   1
  -2   1   7-202.752 255.727   3
  -2   1   7 150.240 117.859   6
  -2  -1   7 89.3058 105.929   6
  -2   1   7 396.075 156.203   1
  -2   1   7 214.049 129.910   2
  -2  -1   7 165.550 118.818   2
  -2  -1   7 306.108 237.914   3
  -2   1   6 4685.15 236.519   6
  -2  -1   6 4486.61 239.273   6
  -2   1   6 4935.56 262.337   2
  -2  -1   6 4716.04 237.493   2
  -2   1   6 5575.50 294.150   1
  -2  -1   6 4703.96 275.879   1
  -2  -1   6 4785.76 362.120   3
  -2   1   6 4934.21 405.566   3
   2  -1  -6 4992.66 249.992   1
  -2  -1   5 15614.1 423.201   2
  -2   1   5 16198.0 424.694   5
  -2   1   5 14399.6 412.199   1
  -2  -1   5 15703.0 451.951   1
  -2  -1   5 14965.7 402.146   6
  -2  -1   5 15858.8 559.103   3
  -2   1   5 15234.8 568.457   3
   2  -1  -5 15901.2 419.083   1
  -2   1   5 15674.9 388.609   6
   2   1  -4 9632.53 311.725   6
  -2  -1   4 9535.19 350.056   2
  -2   1   4 10352.3 310.438   5
   2   1  -4 10374.0 345.887   1
  -2   1   4 9510.40 344.811   1
  -2  -1   4 9898.15 374.108   1
   2  -1  -4 10062.5 356.419   1
  -2  -1   4 9787.20 326.927   6
  -2  -1   4 10431.7 429.865   3
  -2   1   4 9181.41 428.296   3
   2  -1  -4 10039.1 297.456   6
  -2   1   4 9527.62 305.452   6
   2  -1  -3 1261.08 144.504   6
   2   1  -3 1538.00 174.049   6
  -2   1   3 924.986 193.239   3
  -2   1   3 830.259 168.533   1
  -2   1   3 954.279 126.731   5
  -2  -1   3 819.664 76.8677   4
  -2  -1   3 1233.80 194.544   1
   2  -1  -3 1471.05 197.395   1
  -2  -1   3 1226.75 203.498   3
   2   1  -3 1660.22 191.243   1
   2  -1  -3 1041.29 207.371   3
  -2  -1   3 1283.90 155.191   6
  -2   1   3 1192.29 140.993   6
   2   1  -2 19896.0 454.092   6
   2  -1  -2 19862.2 427.312   6
  -2   1   2 18914.1 413.383   6
  -2  -1   2 19826.5 347.462   4
  -2   1   2 19114.7 498.783   1
  -2  -1   2 19452.7 508.974   1
   2  -1  -2 19104.5 502.317   1
   2   1  -2 19761.3 486.227   1
   2  -1  -2 20001.0 522.621   3
  -2  -1   2 19392.9 446.633   3
  -2   1   2 18178.4 469.820   3
  -2  -1   2 17821.9 429.942   6
   2  -1  -1 3751.15 227.282   6
  -2  -1   1 3845.90 194.005   4
  -2  -1   1 3561.94 189.812   3
  -2   1   1 3174.51 245.430   1
  -2  -1   1 3539.92 250.326   1
   2  -1  -1 3486.18 268.105   1
   2   1  -1 3644.83 254.697   1
   2  -1  -1 3473.24 252.819   3
  -2   1   1 3397.96 211.196   3
  -2   1   1 3297.32 208.287   6
  -2  -1   1 3632.03 228.522   6
   2   1  -1 3836.03 235.326   6
  -2   1   0 1064.37 204.987   1
  -2   1   0 734.597 145.303   6
   2  -1   0 816.339 156.563   6
  -2  -1   0 538.234 168.263   1
  -2  -1   0 1070.73 156.576   4
  -2  -1   0 1068.80 98.8027   3
   2  -1   0 862.611 168.705   3
  -2   1   0 989.661 147.279   3
   2   1   0 1024.58 198.240   1
   2  -1   0 942.046 192.248   1
   2   1   0 907.096 118.963   3
  -2  -1   0 1105.49 169.075   6
   2   1   0 991.813 180.750   6
  -2  -1  -1 3628.75 248.713   6
  -2   1  -1 3755.59 254.871   4
  -2  -1  -1 4000.09 255.607   4
  -2   1  -1 3482.91 250.735   1
  -2  -1  -1 3344.69 250.531   1
   2  -1   1 3584.20 267.647   1
   2  -1   1 3244.74 240.761   6
   2   1   1 3974.30 266.880   1
   2   1   1 2715.32 142.059   3
   2  -1   1 3756.50 217.446   3
  -2   1  -1 3686.60 237.977   6
   2   1   1 3751.45 263.732   6
  -2   1  -2 5680.34 309.290   1
  -2   1  -2 5499.71 317.842   4
  -2  -1  -2 5831.74 305.328   4
  -2  -1  -2 5384.37 294.657   1
   2  -1   2 5202.67 298.189   1
   2   1   2 5549.49 309.042   1
   2   1   2 5792.90 312.494   6
   2   1   2 5194.26 168.743   3
   2  -1   2 5343.07 229.453   3
  -2   1  -2 5307.23 284.303   6
  -2  -1  -2 5172.27 288.755   6
   2  -1   2 5820.41 307.257   6
  -2   1  -3 9223.83 418.164   4
  -2  -1  -3 8772.30 403.094   4
   2  -1   3 8386.17 281.345   3
  -2   1  -3 7566.51 346.486   1
  -2  -1  -3 7938.77 349.395   1
   2   1   3 8258.48 218.062   3
   2  -1   3 7827.78 350.410   1
  -2  -1  -3 8427.79 354.320   6
   2   1   3 8540.95 357.488   1
   2  -1   3 7859.51 363.593   6
   2   1   3 8867.48 384.155   6
  -2   1  -3 8147.12 352.424   6
   2   1   4 563.684 174.709   6
  -2   1  -4 1042.61 220.521   4
  -2  -1  -4 1083.23 213.429   4
   2  -1   4 788.279 178.301   1
   2  -1   4 778.826 192.219   6
  -2   1  -4 763.834 179.677   1
   2   1   4 594.983 174.071   1
  -2  -1  -4 736.604 175.414   1
   2  -1   5 702.696 201.502   6
   2   1   5 492.172 190.797   6
  -2   1  -5 588.934 146.703   5
   2  -1   5 265.615 147.948   1
  -2   1  -5 567.875 208.044   4
  -2  -1  -5 242.888 174.127   4
  -2  -1  -5 466.377 167.866   1
   2   1   5 389.345 164.749   1
  -2   1  -6 2179.96 213.860   5
  -2   1  -6 2272.36 286.357   4
  -2  -1  -6 2441.77 297.752   4
  -2  -1  -6 2749.47 239.452   1
   2  -1   6 2170.14 218.095   1
   2   1   6 2296.42 231.490   1
   2  -1   6 2284.00 260.502   6
   2   1   6 2030.94 258.520   6
  -2   1  -7 123.868 160.485   5
   2  -1   7 141.973 159.353   1
  -2   1  -7-23.3076 200.892   4
  -2  -1  -7 129.669 198.419   4
   2   1   7 86.6882 155.268   1
   2  -1   7 72.5129 187.005   6
   2   1   7 42.9703 187.391   6
   2  -1   8 1325.21 244.138   6
  -2   1  -8 1128.75 217.844   5
  -2   1  -8 1311.54 271.307   4
  -2  -1  -8 1038.26 252.207   4
   2  -1   8 1058.13 192.828   1
   2   1   8 1647.36 223.765   1
   2   1   8 1524.22 256.865   6
   2   1   9 238.042 225.106   6
  -2   1  -9 33.4318 187.775   5
   2  -1   9-14.3339 175.160   1
   2  -1   9 41.6888 205.572   6
  -2   1  -9-17.0111 238.968   4
  -2  -1  -9-292.543 235.760   4
   2   1   9-97.7778 168.190   1
   2  -1  10-58.4357 202.641   6
   2   1  10-294.545 219.948   6
  -2   1 -10 1.98210 196.821   5
   2  -1  10 25.5508 175.120   1
  -2   1 -10 106.284 229.868   4
  -2  -1 -10-180.422 246.962   4
   2   1  10 305.175 182.291   1
   2  -1  11 328.867 253.430   6
   2   1  11 200.623 233.878   6
   2  -1  11 301.905 198.917   1
  -2   1 -11-102.026 252.018   4
  -2  -1 -11 267.686 249.818   4
   2   1  11 321.384 193.317   1
   2  -1  12 700.679 270.811   6
   2   1  12 568.986 284.561   6
   2   1  12 664.290 217.425   1
   2   1  12 18.0661 358.907   3
  -2  -1 -12 591.312 293.573   4
  -2   1 -12 734.715 314.878   4
   2  -1  12 701.553 206.944   1
  -2  -1 -12 410.363 192.976   2
   2  -1  13-67.8335 275.994   6
   2   1  13 204.064 255.277   6
  -2   1 -13-193.257 273.192   4
  -2  -1 -13 118.683 275.466   4
   2  -1  13 159.944 200.459   1
   2   1  13 134.775 361.993   3
   2  -1  14 1200.37 338.623   6
   2   1  14 1281.70 338.638   6
  -2  -1 -14 455.466 296.637   4
  -2   1 -14 1870.02 431.674   4
   2   1  14 1619.01 460.738   3
   2  -1  15 116.043 304.815   6
  -2   1 -15 734.421 366.947   4
  -2  -1 -15 189.283 313.727   4
   2   1  15 496.516 301.901   6
   2  -1  15 661.125 447.803   3
   2   1  15 561.818 440.884   3
   2  -1  16 115.665 310.086   6
   2   1  16-232.814 305.465   6
  -2   1 -16 112.176 348.880   4
  -2  -1 -16-696.464 340.135   4
   2  -1  16-76.4998 437.384   3
   2   1  16 597.886 472.488   3
  -2   2  18-415.277 607.320   3
  -2  -2  18 353.042 252.515   7
  -2  -2  18 551.083 562.352   3
  -2   2  17 2548.53 670.783   3
  -2  -2  17 2069.56 308.176   7
  -2  -2  17 3266.60 658.566   3
  -2   2  16-341.935 505.178   3
  -2  -2  16-58.4437 240.803   7
  -2  -2  16-150.949 457.553   3
  -2   2  16-30.3724 209.882   7
  -2  -2  15 3.70783 443.729   3
  -2   2  15 474.551 469.982   3
  -2  -2  15 636.537 212.261   7
  -2   2  15 485.249 196.681   7
  -2  -2  14-653.853 444.716   3
  -2  -2  14 276.469 196.583   7
  -2   2  14 69.0845 180.517   7
  -2   2  14 351.490 464.195   3
   2   2 -13 4309.75 214.590   4
   2  -2 -13 4447.45 225.149   4
  -2   2  13 5136.16 299.940   7
  -2  -2  13 4693.87 170.358   2
  -2  -2  13 4898.41 588.603   3
  -2   2  13 4707.82 643.421   3
  -2  -2  13 5093.72 313.819   7
  -2  -2  12-24.2857 87.4536   2
  -2   2  12 42.8723 80.8332   2
  -2  -2  12 58.1386 159.843   7
  -2   2  12 157.260 399.078   3
   2   2 -12 85.9604 82.5885   4
   2  -2 -12-69.2569 98.5261   4
  -2   2  12 89.0069 135.394   7
  -2  -2  12 233.754 356.939   3
  -2   2  11 1275.52 135.881   2
   2   2 -11 1159.61 97.7645   4
   2  -2 -11 1441.60 122.605   4
  -2   2  11 1771.52 201.453   1
  -2  -2  11 1730.31 138.413   2
  -2  -2  11 1619.59 222.640   1
  -2  -2  11 1570.40 201.934   7
  -2   2  11 1558.56 417.210   3
  -2   2  11 1578.37 175.963   7
  -2  -2  11 1577.58 371.134   3
  -2   2  10 203.414 145.623   1
  -2   2  10 71.1167 111.384   7
  -2  -2  10 76.2683 162.313   1
  -2   2  10-13.7230 348.568   3
   2   2 -10-40.1707 43.8479   4
  -2   2  10 189.517 111.018   2
  -2  -2  10 112.751 135.683   7
   2  -2 -10 45.6667 64.4675   4
  -2  -2  10 140.460 93.5562   2
  -2  -2  10-53.7818 293.313   3
  -2  -2   9 36.6778 120.059   7
  -2   2   9 164.905 151.356   1
  -2  -2   9 264.587 166.466   1
  -2   2   9 186.521 113.421   2
  -2   2   9 556.031 151.492   6
  -2  -2   9-86.7084 94.1089   2
  -2   2   9-22.0152 112.778   7
  -2  -2   9-484.316 289.832   3
  -2   2   9-196.127 332.955   3
  -2   2   8 195.915 148.961   1
  -2   2   8-6.71152 112.838   6
  -2   2   8 200.880 103.980   7
  -2  -2   8-302.122 170.304   1
  -2   2   8-19.1580 120.176   2
  -2  -2   8 8.29548 100.543   2
  -2  -2   8 335.696 261.495   3
  -2   2   8-146.491 259.052   3
  -2   2   7 1190.07 299.159   3
  -2   2   7 1192.22 144.560   6
  -2   2   7 1411.17 175.175   2
  -2   2   7 1450.34 208.568   5
  -2  -2   7 1365.19 149.285   2
  -2   2   7 1452.64 193.545   1
  -2  -2   7 1590.44 194.797   1
  -2  -2   7 1435.51 278.450   3
  -2  -2   6 89.4463 128.549   1
  -2   2   6 164.626 139.756   1
  -2   2   6 97.0285 101.068   6
  -2  -2   6 34.3611 107.285   6
  -2   2   6-12.6411 136.690   5
  -2   2   6 23.8905 37.6866   4
  -2  -2   6-117.090 120.780   2
  -2  -2   6-78.9927 184.462   3
  -2   2   6-239.715 249.491   3
   2  -2  -6-168.666 127.427   1
  -2  -2   5 13261.5 382.520   2
  -2   2   5 13886.9 393.286   5
  -2   2   5 13762.9 420.509   1
  -2  -2   5 14001.2 432.164   1
   2  -2  -5 13617.0 559.589   3
   2  -2  -5 13837.4 395.670   1
  -2  -2   5 13342.3 504.075   3
  -2  -2   5 13042.1 389.241   6
  -2   2   5 13250.6 549.811   3
  -2   2   5 13463.7 348.764   6
  -2   2   4 427.502 144.892   1
  -2  -2   4 232.718 148.823   1
  -2   2   4 509.247 125.649   6
  -2  -2   4 445.942 121.917   6
   2   2  -4 577.045 137.847   6
   2  -2  -4 372.223 107.745   6
  -2   2   4 371.656 115.117   5
   2  -2  -4 493.362 157.418   1
  -2  -2   4 630.118 157.312   2
  -2   2   4 932.970 233.547   3
   2  -2  -4 547.931 203.708   3
  -2  -2   4 320.931 182.035   3
   2  -2  -3 1179.77 139.143   6
  -2  -2   3 1209.06 199.845   2
  -2  -2   3 1142.39 184.439   1
  -2  -2   3 1026.01 76.0871   4
  -2   2   3 1428.18 197.931   1
   2  -2  -3 1065.89 190.455   1
  -2  -2   3 1088.29 198.401   3
   2   2  -3 1368.02 174.062   6
   2   2  -3 1348.26 184.645   1
   2  -2  -3 1094.51 216.651   3
  -2   2   3 1026.52 193.612   3
  -2   2   3 1339.09 143.455   6
  -2  -2   3 1443.05 174.302   6
  -2   2   2-28.9520 158.653   3
  -2   2   2 422.335 110.437   6
  -2  -2   2 479.259 152.668   6
   2  -2  -2 260.702 115.928   6
   2   2  -2 385.364 141.787   6
  -2  -2   2 646.054 191.242   2
   2  -2  -2 396.056 194.170   3
   2   2  -2 354.705 154.321   1
  -2  -2   2 298.470 86.7297   4
  -2  -2   2 336.419 151.313   3
   2  -2  -2 476.611 186.737   1
  -2  -2   2 444.031 165.495   1
  -2   2   2 309.290 171.027   1
  -2   2   1 2295.58 177.539   6
  -2  -2   1 2562.04 169.983   4
  -2   2   1 2186.97 221.689   1
   2  -2  -1 2271.70 240.072   1
  -2  -2   1 2344.68 224.050   1
  -2  -2   1 2036.81 192.074   6
   2   2  -1 2303.51 219.465   1
   2  -2  -1 1917.96 217.072   3
  -2  -2   1 2378.39 159.567   3
  -2   2   1 2385.38 211.424   3
   2   2  -1 2445.45 209.736   6
   2  -2  -1 2534.93 193.315   6
  -2   2   0 8081.88 350.416   1
   2  -2   0 8079.52 361.432   1
  -2   2   0 8394.68 301.730   3
  -2  -2   0 8404.02 349.995   1
  -2  -2   0 7628.46 160.291   3
   2   2   0 8794.37 352.882   1
   2  -2   0 8164.45 334.410   3
  -2  -2   0 8993.76 320.932   4
  -2   2   0 8195.05 303.461   6
  -2  -2   0 7983.33 324.754   6
   2  -2   0 8245.18 314.945   6
   2   2   0 8793.36 359.156   6
   2   2   1 1681.56 202.600   6
  -2  -2  -1 1799.74 194.516   4
  -2   2  -1 1982.86 226.371   1
   2  -2   1 1273.87 197.440   1
  -2  -2  -1 1305.43 180.103   1
   2   2   1 1884.91 212.253   1
   2  -2   1 1517.41 193.664   3
   2  -2   1 1714.26 197.773   6
  -2  -2  -1 1422.44 189.662   6
  -2   2  -1 1840.83 190.146   6
  -2   2  -2 81.8360 132.843   6
  -2  -2  -2 119.543 149.772   6
   2  -2   2 213.783 160.548   6
   2   2   2 179.505 169.248   6
  -2  -2  -2 77.3633 148.925   1
   2  -2   2-3.08065 157.409   1
   2   2   2-82.3089 170.430   1
  -2  -2  -2 129.761 141.359   4
  -2   2  -2 144.503 177.509   1
   2  -2   2 219.398 152.417   3
   2   2   3 2205.12 227.479   6
   2  -2   3 2094.10 231.531   6
  -2  -2  -3 2069.72 231.465   4
  -2   2  -3 1817.63 221.929   1
  -2   2  -3 2334.57 226.954   6
  -2  -2  -3 1971.47 209.390   1
   2  -2   3 1872.43 219.119   1
   2   2   3 2435.70 232.114   1
   2  -2   3 2027.02 190.768   3
   2   2   4 88.0755 172.567   6
   2   2   4 76.8277 159.463   1
   2  -2   4-34.9706 155.272   1
  -2   2  -4 63.2838 167.509   4
  -2   2  -4 120.072 161.459   1
  -2  -2  -4 221.328 161.678   4
   2  -2   4 10.7404 165.855   6
  -2  -2  -4 38.9060 146.268   1
  -2   2  -5 14917.4 592.301   4
  -2  -2  -5 15425.4 569.493   4
  -2  -2  -5 14089.0 436.258   1
   2  -2   5 14007.8 469.706   1
   2   2   5 14691.0 459.662   1
   2   2   5 15398.2 531.637   6
   2  -2   5 14756.9 511.632   6
   2   2   6 1064.26 184.778   1
   2   2   6 1288.35 238.502   6
   2  -2   6 898.747 189.969   1
  -2   2  -6 1124.19 253.886   4
  -2  -2  -6 991.474 181.228   1
  -2  -2  -6 1097.93 221.479   4
   2  -2   6 862.157 215.356   6
   2  -2   7 887.715 212.590   6
   2   2   7 1000.82 224.384   6
  -2   2  -7 1013.54 202.153   5
  -2   2  -7 822.147 241.733   4
   2  -2   7 1365.79 220.275   1
  -2  -2  -7 1094.97 249.890   4
   2   2   7 1133.71 200.421   1
  -2   2  -8 4547.12 317.993   5
  -2   2  -8 4282.48 397.781   4
  -2  -2  -8 4775.07 401.733   4
   2  -2   8 4377.26 353.336   6
   2  -2   8 4528.70 302.843   1
   2   2   8 4506.75 289.098   1
   2   2   8 5028.38 373.688   6
  -2   2  -9 1602.91 249.739   5
  -2   2  -9 1714.33 326.465   4
  -2  -2  -9 1866.72 336.019   4
   2  -2   9 1616.29 231.959   1
   2   2   9 1660.74 225.566   1
   2  -2   9 1516.58 272.973   6
   2   2   9 1478.71 268.945   6
   2  -2  10 7.54565 205.545   6
   2   2  10 126.726 223.526   6
   2   2  10 151.524 179.989   1
   2  -2  10-126.070 173.246   1
  -2   2 -10 288.215 206.379   5
  -2   2 -10 162.891 233.391   4
  -2  -2 -10 194.671 253.796   4
  -2  -2 -10 130.771 169.451   2
   2   2  10 49.9687 279.753   3
   2   2  11 6661.88 476.284   6
  -2  -2 -11 5309.80 322.076   2
  -2   2 -11 7622.54 461.033   5
  -2   2 -11 7085.12 547.477   4
  -2  -2 -11 6625.41 518.575   4
   2  -2  11 6499.22 455.870   6
   2  -2  11 6400.44 359.482   1
   2   2  11 7252.10 373.686   1
   2   2  12-322.724 254.756   6
  -2   2 -12 370.562 260.954   5
   2  -2  12-128.912 201.391   1
   2   2  12 93.3858 180.882   1
  -2   2 -12-186.746 276.229   4
  -2  -2 -12 564.821 294.349   4
  -2  -2 -12 113.186 160.481   2
   2  -2  12 165.578 251.219   6
   2   2  12 3.78554 337.141   3
  -2  -2 -13 4840.75 501.049   4
   2   2  13 4284.66 432.749   6
   2  -2  13 4631.16 354.902   1
  -2   2 -13 4941.07 514.585   4
   2   2  13 5587.42 591.776   3
   2  -2  13 4105.68 430.504   6
   2  -2  14 221.983 265.361   6
   2   2  14-41.4220 261.861   6
  -2   2 -14 587.358 316.685   4
  -2  -2 -14-23.1058 276.749   4
   2   2  14-229.656 386.383   3
   2  -2  15 888.361 316.687   6
   2   2  15 855.826 326.194   6
  -2   2 -15 655.704 350.967   4
  -2  -2 -15 897.968 339.491   4
   2   2  15 692.490 449.989   3
   2  -2  16 548.975 336.733   6
   2   2  16 261.554 307.895   6
   2   2  16 437.996 468.167   3
  -2   2 -16-313.655 358.975   4
  -2  -2 -16-49.0768 344.446   4
   2  -2  16-368.405 468.680   3
  -2  -3  18 2101.78 341.523   7
  -2  -3  18 1860.28 635.205   3
  -2   3  18 2210.54 647.697   3
  -2  -3  17 270.210 258.276   7
  -2  -3  17 209.103 501.516   3
  -2   3  17 606.162 574.966   3
  -2  -3  16 2704.57 621.959   3
  -2  -3  16 2198.47 298.897   7
  -2   3  16 2556.72 645.479   3
  -2   3  15 72.2695 487.197   3
  -2  -3  15 224.426 217.745   7
  -2  -3  15 232.725 415.367   3
  -2   3  15 53.9334 183.806   7
  -2  -3  14 363.787 197.671   7
  -2  -3  14 461.595 425.717   3
  -2   3  14 782.819 196.399   7
  -2   3  14 332.592 447.879   3
  -2   3  13-283.307 418.531   3
   2  -3 -13 29.8715 101.788   4
  -2  -3  13 85.1769 167.381   7
  -2  -3  13 294.119 377.886   3
  -2   3  13 305.946 172.156   7
  -2  -3  13 286.919 91.7641   2
  -2   3  12 3817.30 239.402   7
  -2   3  12 3440.67 156.578   2
   2  -3 -12 3448.21 192.595   4
  -2  -3  12 3916.66 172.959   2
   2   3 -12 3060.96 169.643   4
  -2  -3  12 3806.21 532.748   3
  -2   3  12 3466.32 551.389   3
  -2  -3  12 3824.89 282.540   7
  -2  -3  11 9364.08 392.395   7
  -2   3  11 7312.39 262.325   2
  -2  -3  11 9803.80 266.470   2
   2   3 -11 6674.04 207.330   4
  -2   3  11 9298.36 334.649   1
   2  -3 -11 7428.60 252.027   4
  -2  -3  11 10485.2 717.103   3
  -2   3  11 9913.68 728.972   3
  -2   3  11 9076.72 319.680   7
  -2   3  10 1830.62 403.125   3
  -2   3  10 1776.98 166.049   2
   2   3 -10 2130.27 284.795   5
  -2  -3  10 1802.38 142.035   2
   2   3 -10 1034.33 79.6664   4
  -2   3  10 1907.37 202.525   1
   2  -3 -10 1693.19 131.191   4
  -2  -3  10 1807.36 380.918   3
  -2  -3  10 1906.23 212.485   7
  -2   3  10 1669.05 156.961   7
  -2   3   9 1195.82 162.653   6
   2   3  -9 1213.50 234.707   5
  -2  -3   9 1147.72 174.414   7
  -2   3   9 1448.54 164.071   2
  -2  -3   9 1072.21 125.766   2
  -2   3   9 1550.85 190.833   1
  -2   3   9 1078.03 137.534   7
  -2  -3   9 1335.48 335.398   3
  -2   3   9 1233.23 360.757   3
  -2   3   8 1558.40 162.802   6
  -2   3   8 1790.58 180.457   2
  -2   3   8 1456.22 141.535   7
   2   3  -8 1927.32 241.440   5
  -2  -3   8 1823.23 150.626   2
  -2   3   8 1103.60 110.736   4
  -2   3   8 1995.33 210.221   1
  -2  -3   8 1780.64 206.157   1
  -2  -3   8 1996.32 342.649   3
  -2   3   8 1971.72 371.805   3
  -2   3   7 199.869 156.173   5
  -2   3   7 57.3127 101.364   6
   2   3  -7 133.222 154.013   5
   2  -3  -7 177.579 132.859   1
  -2   3   7 58.5829 65.4665   4
  -2  -3   7-74.8493 101.290   2
  -2  -3   7 295.867 141.128   1
  -2  -3   7 47.6404 219.956   3
  -2   3   7 504.579 165.648   1
  -2   3   7 452.867 275.530   3
  -2  -3   6 12492.7 407.505   6
   2   3  -6 11733.5 390.703   5
  -2   3   6 11987.4 416.638   5
  -2  -3   6 11934.6 345.424   2
  -2   3   6 13116.1 418.828   1
  -2   3   6 11281.6 315.602   6
  -2  -3   6 12828.7 418.826   1
  -2  -3   6 12427.8 540.702   3
   2  -3  -6 11901.4 362.122   1
  -2   3   6 11558.5 576.534   3
  -2  -3   5 3695.87 237.379   6
   2   3  -5 4620.35 246.570   5
  -2  -3   5 4282.07 235.093   2
  -2   3   5 3406.55 127.754   4
  -2   3   5 4205.74 254.368   1
   2  -3  -5 4188.89 256.304   1
  -2  -3   5 4294.49 260.917   1
  -2  -3   5 4207.86 312.253   3
   2  -3  -5 3839.52 342.482   3
  -2   3   5 3615.29 343.060   3
  -2   3   5 3757.70 193.991   6
   2   3  -4 13332.9 388.821   6
   2   3  -4 13757.2 334.784   5
  -2  -3   4 12777.1 388.613   2
  -2   3   4 11532.3 395.352   1
   2  -3  -4 13017.1 409.821   1
  -2  -3   4 13602.0 435.950   1
  -2   3   4 12800.3 323.541   6
  -2  -3   4 12985.3 466.811   3
   2  -3  -4 12315.5 513.691   3
  -2   3   4 12102.9 509.700   3
   2  -3  -4 12497.5 300.807   6
  -2  -3   4 12293.6 386.932   6
  -2   3   3 7155.61 246.567   6
  -2  -3   3 7586.30 310.711   6
   2  -3  -3 7767.58 246.676   6
  -2  -3   3 7389.28 311.023   2
   2   3  -3 8513.03 227.807   5
  -2  -3   3 7515.53 166.589   4
  -2   3   3 6923.26 319.624   1
   2  -3  -3 7564.61 332.752   1
  -2  -3   3 7583.20 346.072   1
  -2  -3   3 7901.53 334.738   3
   2  -3  -3 8053.61 423.388   3
  -2   3   3 7639.68 395.572   3
   2   3  -3 7964.32 315.690   6
   2   3  -2 8161.79 325.125   6
   2   3  -2 7087.49 162.078   5
   2   3  -2 8095.85 243.181   4
  -2  -3   2 7941.67 221.642   4
  -2   3   2 6740.25 326.385   1
   2  -3  -2 6969.61 335.399   1
  -2  -3   2 7598.13 336.794   2
  -2  -3   2 7182.49 328.198   1
  -2  -3   2 7085.95 308.709   6
  -2  -3   2 7768.43 289.040   3
   2  -3  -2 7198.58 380.819   3
  -2   3   2 6926.36 342.612   3
   2   3  -2 7752.01 317.118   1
  -2   3   2 6956.88 244.295   6
   2  -3  -2 8194.85 266.349   6
  -2  -3   1 2941.34 167.846   4
  -2  -3   1 3097.35 254.760   2
  -2   3   1 2781.40 246.544   1
   2  -3  -1 2695.32 234.702   1
  -2  -3   1 2929.18 238.142   1
   2  -3  -1 3024.60 266.688   3
   2   3  -1 3339.27 201.669   4
  -2  -3   1 2636.64 149.639   3
   2   3  -1 2603.25 219.314   1
  -2   3   1 2824.32 238.130   3
   2   3  -1 2628.76 223.320   6
  -2   3   1 2771.82 185.140   6
  -2  -3   1 2594.69 218.005   6
   2  -3  -1 2934.77 194.672   6
  -2   3   0 10723.1 409.830   1
  -2  -3   0 11172.1 399.838   2
   2   3   0 12146.6 370.398   4
  -2  -3   0 11336.0 338.788   4
   2   3   0 11080.1 398.655   6
   2  -3   0 9708.25 378.084   1
  -2  -3   0 10367.1 377.531   1
   2   3   0 11134.0 381.614   1
   2  -3   0 10403.4 390.382   3
  -2   3   0 10272.0 355.231   3
   2  -3   0 10396.8 340.965   6
  -2   3   0 10767.5 328.926   6
  -2  -3   0 10427.2 374.435   6
   2  -3   1 2368.79 210.552   6
   2   3   1 2859.46 219.695   4
  -2  -3  -1 2486.99 202.453   4
  -2   3  -1 2348.96 239.028   1
  -2  -3  -1 2378.52 219.101   6
   2  -3   1 2171.35 239.981   1
  -2  -3  -1 2584.99 232.357   1
  -2  -3  -1 2963.46 248.827   2
  -2   3  -1 2540.61 199.687   6
   2   3   1 2409.59 224.538   1
   2  -3   1 2510.85 230.655   3
   2   3   1 2534.33 238.682   6
   2  -3   2 12630.4 419.500   6
  -2  -3  -2 13048.5 443.661   2
   2   3   2 14332.1 456.196   4
  -2  -3  -2 14268.9 449.982   4
  -2   3  -2 11347.8 413.569   1
   2  -3   2 12124.9 433.910   1
  -2  -3  -2 11635.6 386.380   1
   2  -3   2 12498.0 398.748   3
   2   3   2 13692.6 421.751   1
  -2   3  -2 12769.3 401.891   6
  -2  -3  -2 12468.3 422.489   6
   2   3   2 13436.8 458.233   6
  -2   3  -3 684.489 162.577   6
   2  -3   3 549.954 178.936   1
   2  -3   3 628.083 176.137   6
   2   3   3 750.809 187.792   6
   2  -3   3 607.754 164.930   3
  -2  -3  -3 521.894 158.733   1
  -2  -3  -3 566.786 176.336   2
   2   3   3 771.782 184.933   4
  -2   3  -3 647.952 190.251   1
  -2  -3  -3 394.651 155.877   4
   2   3   3 534.529 79.0059   3
   2   3   3 497.556 162.249   1
  -2   3  -3 653.332 173.399   7
  -2  -3  -4 16150.8 553.642   4
   2  -3   4 13758.1 474.213   1
  -2  -3  -4 13799.8 441.854   1
   2   3   4 15657.4 467.028   1
   2   3   4 14697.9 364.066   3
   2  -3   4 13703.0 475.226   6
   2   3   4 14211.1 491.648   6
  -2  -3  -5 1530.74 220.291   2
  -2  -3  -5 1713.99 252.219   4
  -2  -3  -5 1367.60 191.091   1
   2  -3   5 1241.37 209.443   1
   2   3   5 1688.03 212.441   1
   2   3   5 1229.35 184.674   3
   2  -3   5 1341.24 218.407   6
   2   3   5 1510.85 232.083   6
   2  -3   6-223.205 178.535   6
   2   3   6-99.8898 170.404   6
  -2  -3  -6-39.6275 162.315   2
  -2   3  -6 150.852 199.057   4
   2   3   6 5.37383 149.246   1
  -2  -3  -6-26.9685 172.613   4
  -2  -3  -6 42.5558 140.413   1
   2   3   6-14.9261 164.177   3
   2  -3   6-76.8815 161.962   1
   2  -3   7 530.658 188.385   1
   2  -3   7 476.443 210.320   6
   2   3   7 557.239 201.333   6
  -2  -3  -7 785.366 182.942   1
   2   3   7 486.267 164.423   1
  -2   3  -7 297.447 196.709   4
  -2  -3  -7 296.380 210.494   4
  -2  -3  -7 461.355 180.263   2
   2   3   7 323.924 205.583   3
   2  -3   8 997.063 227.258   6
  -2  -3  -8 1052.57 204.923   2
  -2   3  -8 1259.16 237.395   5
  -2   3  -8 792.798 253.241   4
   2   3   8 1106.32 188.288   1
   2  -3   8 1152.16 216.741   1
  -2  -3  -8 1025.75 260.482   4
   2   3   8 1428.93 284.743   3
   2   3   8 1227.82 262.178   6
  -2  -3  -9 1486.06 224.396   2
  -2   3  -9 1882.87 273.815   5
  -2   3  -9 2229.09 340.612   4
  -2  -3  -9 2114.84 326.929   4
   2  -3   9 1865.91 246.126   1
   2   3   9 2347.85 242.717   1
   2   3   9 2223.89 346.095   3
   2  -3   9 1800.93 279.013   6
   2   3   9 2059.41 293.671   6
   2  -3  10 294.923 214.992   6
   2   3  10 687.347 253.104   6
   2   3  10 776.639 308.687   3
   2  -3  10 167.428 185.493   1
  -2   3 -10 224.941 207.548   5
  -2   3 -10 491.472 250.287   4
  -2  -3 -10 562.432 267.303   4
  -2  -3 -10 468.507 189.076   2
   2   3  10 524.935 187.339   1
   2   3  11 1118.79 290.559   6
  -2   3 -11 958.348 254.515   5
  -2  -3 -11 1580.31 325.863   4
  -2   3 -11 1034.93 314.341   4
   2  -3  11 1702.12 258.039   1
  -2  -3 -11 733.428 182.948   2
   2   3  11 1499.78 210.745   1
   2   3  11 1850.95 397.388   3
   2  -3  11 1510.97 294.744   6
   2   3  12 1547.83 316.818   6
  -2  -3 -12 3075.38 242.974   2
  -2   3 -12 2797.71 371.597   5
  -2   3 -12 2615.25 392.995   4
  -2  -3 -12 2302.83 360.494   4
   2  -3  12 2253.86 271.844   1
   2  -3  12 2104.06 341.220   6
   2   3  12 2569.30 248.139   1
   2   3  12 3023.54 484.410   3
   2  -3  13 927.608 294.335   6
   2   3  13 1001.53 304.086   6
   2  -3  13 1036.06 227.942   1
  -2   3 -13 871.699 284.564   5
  -2   3 -13 1034.63 328.856   4
  -2  -3 -13 1313.68 333.959   4
   2   3  13 1446.67 431.240   3
   2  -3  14 1282.47 338.156   6
   2   3  14 885.386 314.746   6
  -2   3 -14 1078.69 323.056   4
  -2  -3 -14 723.914 329.702   4
   2   3  14 2012.01 485.094   3
   2  -3  15 312.515 295.823   6
   2   3  15 470.245 331.834   6
  -2   3 -15 561.023 357.266   4
  -2  -3 -15 787.027 352.759   4
   2  -3  16-198.259 316.228   6
   2   3  16 555.806 335.477   6
  -2   3 -16 743.995 408.316   4
  -2  -3 -16 665.850 382.205   4
   2   3  16-318.769 474.404   3
  -2  -4  17 3275.83 666.592   3
  -2   4  17 3548.04 733.901   3
  -2  -4  17 2463.54 337.952   7
  -2   4  16 3227.69 665.708   3
  -2  -4  16 3620.84 645.147   3
  -2  -4  16 3355.79 339.906   7
  -2  -4  15 2756.81 585.443   3
  -2   4  15 3384.99 645.654   3
  -2  -4  15 2891.75 308.249   7
  -2   4  15 2984.93 282.489   7
  -2  -4  14 1890.32 268.316   7
  -2   4  14 2078.50 535.206   3
  -2  -4  14 2123.10 544.455   3
  -2   4  14 1692.65 218.401   7
  -2  -4  13 711.119 98.7431   2
   2  -4 -13 536.742 131.361   4
  -2  -4  13 717.147 198.310   7
  -2  -4  13 931.713 431.932   3
  -2   4  13 516.049 164.239   7
  -2   4  13 742.188 433.324   3
  -2  -4  12 664.852 186.537   7
  -2   4  12 612.280 415.683   3
   2   4 -12 566.776 259.785   5
  -2  -4  12 839.616 111.432   2
   2   4 -12 549.759 107.801   4
   2  -4 -12 594.908 117.966   4
  -2   4  12 702.889 98.7149   2
  -2   4  12 880.299 163.229   7
  -2  -4  12 861.242 384.175   3
   2   4 -11 1457.94 285.803   5
  -2   4  11 1336.27 150.695   2
  -2   4  11 1680.81 181.245   1
   2   4 -11 1060.52 106.934   4
  -2  -4  11 1883.89 141.948   2
   2  -4 -11 1338.50 143.661   4
  -2   4  11 1812.08 445.889   3
  -2  -4  11 1999.37 428.132   3
  -2  -4  11 1722.07 236.159   7
  -2   4  11 1599.49 166.310   7
  -2  -4  10 153.138 151.742   7
   2   4 -10 325.718 217.594   5
  -2   4  10 218.994 123.813   4
   2   4 -10 50.9557 55.7848   4
  -2   4  10 407.903 339.615   3
  -2   4  10 129.651 121.861   2
  -2   4  10 405.072 153.378   1
  -2  -4  10 353.083 103.421   2
  -2   4  10 262.901 114.407   7
  -2   4   9 10446.1 350.774   6
  -2   4   9 10284.5 337.961   2
   2   4  -9 12014.6 507.252   5
  -2   4   9 10073.0 316.398   4
  -2  -4   9 11785.0 308.252   2
  -2   4   9 12989.4 396.179   1
  -2   4   9 12512.8 704.274   3
  -2  -4   9 10786.1 395.040   7
  -2   4   9 10208.1 281.675   7
  -2   4   8-41.9124 105.522   6
   2   4  -8 38.2021 173.656   5
   2  -4  -8-44.7405 115.902   1
  -2   4   8 108.278 101.008   4
  -2   4   8 103.512 101.642   7
  -2   4   8 124.240 135.898   1
  -2  -4   8-26.5541 87.1148   2
  -2   4   8-187.420 298.338   3
  -2   4   7 5326.14 231.025   6
   2   4  -7 6134.75 331.495   5
  -2  -4   7 5906.07 238.916   2
  -2   4   7 4731.74 187.518   4
  -2   4   7 6356.27 297.120   1
   2  -4  -7 5882.53 270.016   1
  -2   4   7 5409.97 459.486   3
  -2   4   7 4263.04 187.154   7
  -2   4   6 2314.62 158.311   6
   2   4  -6 2305.08 229.778   5
  -2  -4   6 2204.01 166.768   2
  -2   4   6 2105.26 132.392   4
  -2   4   6 2223.12 319.805   3
  -2   4   6 2434.85 200.667   1
   2  -4  -6 2085.94 200.787   1
  -2  -4   6 2209.56 204.992   1
  -2  -4   5 1778.74 202.904   6
   2   4  -5 2061.45 199.174   5
  -2  -4   5 1669.61 166.357   2
  -2   4   5 1952.69 194.413   1
  -2   4   5 1541.65 116.717   4
   2  -4  -5 1809.48 204.737   1
  -2   4   5 1629.43 281.843   3
  -2  -4   5 1850.30 197.016   1
   2  -4  -5 1533.82 282.621   3
  -2   4   5 1673.42 139.107   6
   2   4  -4 1548.23 182.978   6
   2  -4  -4 1271.08 114.428   6
  -2  -4   4 1446.32 178.917   2
   2   4  -4 876.868 81.7588   4
  -2   4   4 1491.12 198.647   1
   2  -4  -4 1620.75 202.689   1
  -2  -4   4 1419.64 189.623   1
   2  -4  -4 1401.09 288.644   3
  -2   4   4 1348.68 131.517   6
  -2   4   4 1346.34 262.193   3
  -2  -4   4 1374.67 180.104   6
  -2  -4   3 10134.5 361.639   2
   2   4  -3 10361.7 240.556   4
  -2   4   3 9660.24 378.143   1
  -2  -4   3 10074.2 208.750   4
   2  -4  -3 9765.21 379.087   1
  -2  -4   3 9725.73 374.719   1
   2  -4  -3 9906.91 465.901   3
  -2   4   3 8730.41 422.098   3
   2  -4  -3 10045.2 263.659   6
   2   4  -3 10333.4 361.305   6
  -2   4   3 9812.20 267.242   6
  -2  -4   3 10075.2 363.102   6
   2  -4  -2 14781.4 335.525   6
   2   4  -2 14408.3 426.615   6
  -2  -4   2 14735.3 429.527   2
   2   4  -2 15629.3 336.256   4
  -2   4   2 14704.0 455.042   1
  -2  -4   2 15147.7 302.091   4
   2  -4  -2 13303.2 419.489   1
  -2  -4   2 15101.6 452.841   1
  -2  -4   2 15021.4 378.232   3
   2  -4  -2 13344.4 511.190   3
  -2   4   2 13351.7 471.932   3
  -2   4   2 13945.6 323.942   6
  -2  -4   2 14155.2 432.282   6
  -2  -4   1 2019.38 211.851   2
   2   4  -1 2420.86 172.229   4
  -2   4   1 1759.58 155.614   6
  -2   4   1 2018.71 226.627   1
  -2  -4   1 2166.97 154.124   4
   2  -4  -1 1936.78 227.714   1
  -2  -4   1 1836.84 201.759   6
  -2  -4   1 1936.15 204.067   1
  -2  -4   1 2194.74 144.213   3
   2  -4  -1 2001.26 259.865   3
   2   4  -1 2140.20 210.680   1
  -2   4   1 2038.96 228.483   3
   2  -4  -1 1969.14 167.626   6
   2   4  -1 2194.96 211.433   6
   2  -4   0 198.813 177.949   3
  -2  -4   0 393.290 157.930   1
  -2   4   0 308.621 122.350   6
  -2  -4   0 588.561 162.060   6
   2   4   0 250.092 163.447   6
  -2   4   0 122.418 154.065   3
   2   4   0 555.662 164.772   1
   2  -4   0 470.164 137.806   6
   2   4   0 391.763 130.813   4
  -2   4   0 450.448 182.378   1
  -2  -4   0 353.429 127.145   4
  -2  -4   0 265.989 173.515   2
   2  -4   0 223.854 182.007   1
  -2  -4  -1 17073.4 476.429   2
   2   4   1 15231.8 220.469   5
   2   4   1 18711.0 484.243   4
  -2   4  -1 13972.2 455.078   1
  -2  -4  -1 17703.6 452.246   4
   2  -4   1 15192.1 485.380   1
  -2  -4  -1 16540.7 468.163   6
  -2  -4  -1 16320.6 463.475   1
   2  -4   1 16897.1 437.003   6
   2   4   1 17407.3 463.093   1
   2  -4   1 15738.4 476.952   3
  -2   4  -1 16880.1 422.696   6
   2   4   1 16924.5 498.874   6
  -2  -4  -2 3239.64 254.822   2
   2   4   2 3645.46 252.626   4
  -2   4  -2 2976.78 258.823   1
  -2  -4  -2 3627.29 251.280   4
   2  -4   2 3063.49 263.999   1
   2   4   2 3599.01 270.454   6
   2  -4   2 2837.36 251.077   3
  -2  -4  -2 3441.40 247.520   1
   2   4   2 3488.32 245.068   1
  -2   4  -2 3441.71 240.687   7
   2  -4   2 3149.09 243.200   6
  -2   4  -2 3160.20 233.097   6
  -2  -4  -2 3315.09 254.433   6
   2  -4   3 2654.06 242.477   3
  -2   4  -3 3009.76 234.720   7
  -2  -4  -3 2793.29 242.104   2
   2   4   3 3612.44 274.619   4
  -2  -4  -3 2976.91 247.480   4
   2  -4   3 2544.49 254.756   1
  -2  -4  -3 2789.60 219.977   1
   2   4   3 3003.94 228.186   1
   2  -4   3 3091.04 250.732   6
   2   4   3 2258.73 240.281   6
   2  -4   4 676.925 180.498   6
   2   4   4 957.643 196.279   6
  -2  -4  -4 890.857 165.059   1
   2   4   4 904.745 166.933   1
   2  -4   4 785.189 169.449   3
  -2  -4  -4 1048.64 198.651   2
  -2  -4  -4 1006.36 189.977   4
   2  -4   4 1060.37 215.112   1
   2   4   4 859.019 133.077   3
   2   4   5 650.488 202.377   6
  -2  -4  -5 755.747 188.860   4
  -2  -4  -5 703.688 177.823   2
   2   4   5 735.780 168.130   1
   2   4   5 949.104 181.142   3
   2  -4   5 599.403 190.979   1
  -2  -4  -5 683.380 163.294   1
   2  -4   5 682.477 202.772   6
   2  -4   6-120.347 160.140   6
   2   4   6 169.892 185.998   6
  -2  -4  -6 11.2273 136.176   1
   2   4   6 122.116 142.991   1
  -2  -4  -6 45.5881 179.068   4
  -2  -4  -6 2.99881 160.041   2
   2   4   6 21.0750 175.106   3
   2  -4   6-150.182 175.728   1
   2  -4   7 753.158 210.495   6
   2   4   7 698.128 217.762   6
  -2  -4  -7 899.641 202.897   2
  -2   4  -7 926.037 249.462   4
  -2  -4  -7 1035.24 181.293   1
   2  -4   7 673.675 194.400   1
  -2  -4  -7 904.865 217.795   4
   2   4   7 830.727 176.192   1
   2   4   7 832.435 230.715   3
   2   4   8 84.7683 145.881   1
   2  -4   8 70.0088 179.449   1
   2  -4   8 269.001 204.576   6
  -2   4  -8 221.352 229.855   4
  -2  -4  -8 415.228 221.678   4
  -2  -4  -8 177.425 162.658   2
   2   4   8 652.873 229.101   6
   2   4   8 201.055 228.624   3
   2  -4   9 396.702 196.870   6
   2   4   9 448.738 172.699   1
  -2   4  -9 454.134 221.863   5
  -2   4  -9 598.073 259.477   4
  -2  -4  -9 523.877 241.914   4
   2   4   9 58.6211 212.766   6
  -2  -4  -9 529.852 184.767   2
   2   4   9 841.842 284.011   3
   2  -4   9 628.099 201.772   1
   2  -4  10-87.5581 212.103   6
   2   4  10-30.7567 223.492   6
   2   4  10-74.8706 155.931   1
  -2   4 -10 87.5618 211.300   5
  -2   4 -10-98.8684 239.007   4
  -2  -4 -10 40.4823 219.752   4
  -2  -4 -10 150.417 167.694   2
   2   4  10-187.061 307.188   3
   2  -4  10 193.661 195.266   1
   2  -4  11 1269.69 277.153   6
   2   4  11 1110.78 293.262   6
  -2   4 -11 1405.01 290.293   5
  -2  -4 -11 1350.71 188.947   2
   2  -4  11 1399.99 253.139   1
  -2   4 -11 1005.98 310.585   4
  -2  -4 -11 956.967 283.520   4
   2   4  11 1080.68 194.733   1
   2   4  11 1608.86 384.649   3
   2  -4  12 784.902 267.155   6
   2   4  12 720.501 278.886   6
   2  -4  12 215.997 211.188   1
  -2   4 -12 249.098 253.770   5
  -2   4 -12 740.518 313.895   4
  -2  -4 -12 398.650 273.798   4
   2   4  12 535.887 174.603   1
   2   4  12 452.891 361.694   3
   2   4  13 1643.03 353.365   6
  -2   4 -13 1917.39 344.080   5
  -2  -4 -13 2587.43 394.917   4
  -2   4 -13 2213.26 421.218   4
   2  -4  13 2321.22 289.509   1
   2   4  13 2931.20 487.542   3
   2  -4  13 1755.78 330.108   6
   2  -4  14 522.500 281.406   6
   2   4  14 666.107 301.942   6
   2   4  14 248.974 388.052   3
  -2   4 -14 58.0035 275.250   5
  -2   4 -14 327.575 303.379   4
  -2  -4 -14 533.561 313.328   4
   2  -4  15 1296.64 342.930   6
  -2   4 -15 2564.04 452.145   4
  -2  -4 -15 2856.26 466.588   4
   2   4  15 2555.09 545.884   3
   2   4  15 1914.43 388.260   6
   2  -4  16-208.767 289.829   6
   2   4  16 214.366 304.131   6
  -2   4 -16-451.706 365.475   4
  -2  -4 -16 172.012 312.192   4
   2   4  16 680.973 502.166   3
  -2   5  17 823.105 625.394   3
  -2  -5  17-588.911 532.957   3
  -2  -5  17 190.989 257.931   7
  -2  -5  16 222.678 458.323   3
  -2  -5  16 392.815 238.860   7
  -2   5  16 75.3344 519.139   3
  -2  -5  15-24.4981 439.296   3
  -2  -5  15 144.295 207.814   7
  -2   5  14 548.856 190.302   7
  -2  -5  14 259.072 411.245   3
  -2  -5  14 534.550 224.571   7
  -2   5  14 245.775 444.366   3
  -2   5  13 163.435 147.862   7
   2   5 -13 229.065 288.676   5
  -2  -5  13 4.54758 81.0824   2
   2  -5 -13 68.8406 122.261   4
  -2  -5  13-19.4751 179.925   7
  -2  -5  13 459.762 435.458   3
  -2   5  13 135.158 417.790   3
   2   5 -12 2981.64 365.169   5
  -2   5  12 2718.45 156.262   2
   2   5 -12 2483.62 171.157   4
  -2  -5  12 3561.46 166.676   2
   2  -5 -12 2868.37 199.750   4
  -2   5  12 2870.88 534.051   3
  -2  -5  12 3196.30 278.865   7
  -2   5  12 3112.41 218.720   7
   2   5 -11 348.121 251.472   5
   2   5 -11 83.9644 84.0712   4
  -2   5  11 180.107 119.898   2
   2  -5 -11 341.140 117.559   4
  -2  -5  11 161.755 186.057   7
  -2  -5  11 214.737 89.2819   2
  -2   5  11 419.220 128.202   7
  -2   5  11 724.471 379.940   3
  -2   5  10 313.574 125.770   6
  -2  -5  10 347.287 174.757   7
   2   5 -10 382.464 232.222   5
  -2   5  10 303.466 140.404   1
  -2   5  10 372.801 140.217   4
   2   5 -10 177.798 77.7395   4
  -2   5  10 314.416 138.343   2
  -2   5  10 191.606 345.646   3
  -2  -5  10 228.520 90.2952   2
  -2   5  10 287.023 118.748   7
  -2   5   9 690.963 132.860   6
   2   5  -9 951.022 219.385   5
   2   5  -9 515.537 74.1797   4
  -2   5   9 883.621 162.813   1
  -2  -5   9 725.620 109.937   2
  -2   5   9 659.624 130.882   4
  -2  -5   9 851.823 178.460   7
  -2   5   9 726.597 122.448   7
  -2   5   9 573.637 321.094   3
  -2   5   8 26.3528 99.8721   6
   2   5  -8 53.8393 179.315   5
   2   5  -8 24.3490 45.2856   4
  -2   5   8 247.626 131.374   1
  -2   5   8 192.593 107.157   4
   2   5  -8 81.5189 34.0820   4
   2  -5  -8 177.116 120.523   1
  -2  -5   8 77.2345 90.8669   2
  -2   5   8-11.0800 96.4131   7
  -2   5   7-13.8363 86.3044   7
  -2   5   7-27.1307 91.3993   6
   2   5  -7-19.6398 168.047   5
   2   5  -7 65.0611 40.5522   4
  -2   5   7-37.4734 89.6498   4
   2   5  -7 10.6028 27.4371   4
  -2   5   7 163.017 123.536   1
   2  -5  -7-51.8115 126.417   1
  -2  -5   7-48.1000 89.4473   2
  -2   5   6 2235.83 151.433   6
  -2   5   6 1823.20 312.815   3
  -2  -5   6 2464.12 179.420   2
  -2   5   6 2496.99 207.376   1
  -2   5   6 2255.00 144.372   4
   2  -5  -6 2387.69 206.176   1
  -2   5   5 255.524 97.7520   6
   2   5  -5 117.728 47.1693   4
  -2   5   5 345.080 133.406   1
  -2   5   5 226.780 87.8060   4
  -2  -5   5 68.3402 118.491   2
   2  -5  -5 169.099 152.104   1
  -2   5   5 84.8551 230.728   3
   2   5  -4 1939.17 195.958   6
   2  -5  -4 1638.28 114.078   6
  -2  -5   4 1956.08 185.717   2
   2   5  -4 1824.83 109.085   4
  -2   5   4 1858.05 208.587   1
   2  -5  -4 1897.84 212.502   1
   2  -5  -4 1663.45 301.785   3
  -2  -5   4 2151.32 233.163   1
  -2   5   4 1578.58 275.229   3
  -2   5   4 1815.03 130.860   6
  -2  -5   4 2614.91 245.265   6
   2  -5  -3 995.919 108.503   6
   2   5  -3 884.441 175.543   6
  -2   5   3 1023.54 232.885   3
  -2   5   3 1024.68 120.930   6
  -2  -5   3 1106.65 175.231   2
   2   5  -3 974.982 109.387   4
  -2  -5   3 884.221 88.3374   4
   2  -5  -3 1005.92 189.660   1
  -2   5   3 979.366 185.652   1
  -2  -5   3 1230.52 191.759   1
   2  -5  -3 817.776 251.749   3
  -2  -5   3 861.188 175.358   6
   2   5  -2 10253.5 377.331   6
  -2  -5   2 10235.7 364.719   2
   2   5  -2 10604.6 297.530   4
  -2   5   2 9780.55 381.757   1
  -2  -5   2 9772.82 251.472   4
   2  -5  -2 9327.95 382.040   1
  -2  -5   2 10140.6 370.349   1
   2  -5  -2 9145.21 442.754   3
  -2   5   2 8733.43 400.756   3
  -2   5   2 9272.78 259.015   6
  -2  -5   2 9980.07 377.713   6
   2  -5  -2 10015.1 267.668   6
   2  -5  -1 1146.06 244.333   3
   2  -5  -1 1584.05 153.022   6
  -2   5   1 1168.13 215.682   3
  -2  -5   1 1697.24 205.566   2
   2   5  -1 1686.31 154.790   4
  -2   5   1 1265.72 199.255   1
  -2  -5   1 1646.64 144.556   4
   2   5  -1 1501.04 204.292   6
   2  -5  -1 1307.25 213.534   1
  -2   5   1 1496.66 141.297   6
  -2  -5   1 1453.78 197.811   1
  -2  -5   1 1335.85 195.112   6
   2  -5   0 269.996 124.910   6
  -2  -5   0 297.950 152.794   6
  -2   5   0 521.361 181.213   3
  -2  -5   0 167.970 158.504   1
  -2   5   0 216.798 180.042   1
   2   5   0 220.681 119.942   4
  -2  -5   0 235.668 117.672   4
  -2  -5   0 305.364 163.857   2
  -2   5   0 240.328 114.286   6
   2  -5   0 358.490 210.140   3
   2  -5   0 207.193 185.007   1
   2   5   0 150.166 152.127   6
   2   5   1 8429.62 385.915   6
  -2  -5  -1 8232.99 348.971   2
  -2   5  -1 7392.74 357.167   1
   2   5   1 7969.00 327.129   4
  -2  -5  -1 7382.23 316.900   4
   2  -5   1 6885.21 362.062   1
  -2  -5  -1 7669.06 329.918   1
   2  -5   1 7150.87 377.851   3
   2   5   1 8315.29 330.630   1
  -2   5  -1 7624.36 303.990   7
  -2  -5  -1 7788.09 349.877   6
  -2   5  -1 7510.35 298.564   6
   2  -5   1 7746.93 310.755   6
   2  -5   2 284.895 152.719   6
   2  -5   2 74.2134 180.768   3
   2   5   2 223.057 169.815   6
   2   5   2 236.223 146.024   4
  -2  -5  -2 187.066 138.813   4
   2   5   2 222.399 145.248   1
  -2  -5  -2 201.925 162.632   2
  -2   5  -2 6.33385 145.290   7
  -2  -5  -2 40.8375 143.896   1
   2  -5   2 257.423 169.142   1
   2  -5   3 190.591 156.844   6
   2   5   3 234.062 164.454   6
   2  -5   3 401.713 190.156   3
   2   5   3 338.491 102.713   5
   2   5   3 450.728 174.948   4
  -2  -5  -3 483.432 159.019   1
  -2  -5  -3 358.178 153.595   4
  -2  -5  -3 129.211 151.062   2
   2   5   3 450.843 153.790   1
   2  -5   3 253.184 174.397   1
  -2   5  -3 236.529 148.691   7
  -2  -5  -4 7113.82 322.353   2
   2  -5   4 6244.99 331.540   3
  -2  -5  -4 7687.41 387.935   4
   2  -5   4 6060.89 345.686   1
  -2  -5  -4 6693.51 307.052   1
   2   5   4 7693.41 320.079   1
   2   5   4 7738.91 251.912   3
   2   5   4 8559.13 279.350   5
   2  -5   4 7044.31 353.672   6
   2   5   4 7102.14 374.923   6
   2  -5   5 124.826 155.288   6
   2   5   5 254.883 180.185   6
  -2  -5  -5 74.5300 138.125   1
   2  -5   5 183.397 183.318   1
  -2  -5  -5 98.1989 160.292   4
  -2  -5  -5 207.460 154.529   2
   2   5   5 465.551 168.210   3
   2   5   5 293.900 146.127   1
  -2  -5  -6 6432.19 326.894   2
  -2  -5  -6 7247.19 426.286   4
   2  -5   6 6657.80 360.753   1
  -2  -5  -6 5557.67 306.532   1
   2   5   6 7454.08 377.872   3
   2   5   6 7353.85 323.980   1
   2  -5   6 5843.48 365.168   6
   2   5   6 6805.84 390.991   6
   2  -5   7 140.314 171.216   6
   2   5   7 118.543 185.458   6
  -2  -5  -7 512.309 207.291   4
   2   5   7 186.446 207.305   3
  -2  -5  -7 458.125 172.370   2
   2   5   7 384.504 137.244   1
  -2  -5  -7 614.914 167.047   1
   2  -5   7 61.7282 163.727   1
   2  -5   8 318.806 200.377   6
   2   5   8 27.7258 196.786   6
  -2   5  -8-35.9267 221.371   4
  -2  -5  -8 34.6886 206.381   4
  -2  -5  -8-263.129 170.513   2
   2  -5   8 19.1741 170.126   1
   2   5   8-228.821 154.710   1
   2   5   8 1.72737 231.997   3
   2   5   9 225.345 159.950   1
   2   5   9 45.7488 216.112   6
  -2   5  -9-168.685 222.087   4
  -2  -5  -9-349.658 234.121   4
  -2  -5  -9 323.739 158.526   2
   2  -5   9 226.713 212.430   6
   2  -5   9 195.997 186.843   1
   2   5   9 239.226 288.060   3
   2  -5  10-121.980 224.638   6
  -2   5 -10 64.5137 220.854   5
   2   5  10-135.776 151.853   1
   2   5  10-244.901 223.659   6
  -2   5 -10-42.8814 251.583   4
  -2  -5 -10 352.625 246.127   4
  -2  -5 -10 41.4908 141.131   2
   2   5  10-415.234 301.621   3
   2  -5  10-238.797 202.095   1
   2   5  11 818.843 271.347   6
  -2   5 -11 1048.31 278.762   5
  -2   5 -11 596.996 284.685   4
  -2  -5 -11 1097.55 274.203   4
  -2  -5 -11 700.942 153.504   2
   2   5  11 875.585 181.778   1
   2   5  11 1351.15 384.197   3
   2  -5  11 931.401 291.792   6
   2  -5  11 1034.47 244.310   1
  -2   5 -12 2230.43 333.614   5
  -2   5 -12 2265.90 397.847   4
  -2  -5 -12 2207.33 371.300   4
   2  -5  12 2180.86 302.036   1
   2   5  12 2729.67 473.541   3
   2  -5  12 1682.29 330.965   6
   2   5  12 2159.95 349.656   6
   2  -5  13 1232.19 302.038   6
   2  -5  13 1172.57 253.058   1
  -2   5 -13 1489.43 328.976   5
   2   5  13 1384.69 343.143   6
  -2   5 -13 765.773 320.552   4
  -2  -5 -13 1332.89 348.982   4
   2   5  13 1058.43 399.750   3
   2   5  14-39.3600 281.318   6
   2  -5  14 448.083 291.548   6
  -2   5 -14 242.893 300.474   5
  -2   5 -14 580.345 329.511   4
  -2  -5 -14 116.383 278.884   4
   2   5  14 1007.26 469.304   3
   2  -5  15 460.162 310.064   6
   2   5  15 305.643 303.701   6
   2   5  15 755.636 459.388   3
  -2   5 -15 436.819 334.223   5
  -2   5 -15 331.007 327.456   4
  -2  -5 -15-250.105 325.320   4
   2  -5  16 519.438 318.215   6
   2   5  16 931.818 369.566   6
   2   5  16 789.443 498.210   3
  -2   5 -16 540.995 368.945   4
  -2  -5 -16 230.823 328.810   4
  -2  -6  17 426.521 491.214   3
  -2  -6  17 623.950 260.236   7
  -2  -6  16-402.334 462.998   3
  -2  -6  16-115.697 238.856   7
  -2   6  16 81.1131 511.574   3
  -2  -6  15-131.648 462.924   3
  -2  -6  15-133.083 218.509   7
  -2   6  15 472.626 480.969   3
   2   6 -14 605.806 290.474   5
  -2  -6  14 737.350 476.400   3
  -2  -6  14 710.312 220.629   7
  -2   6  14 541.794 477.576   3
   2   6 -13 1190.20 295.100   5
  -2   6  13 1038.37 182.192   7
  -2  -6  13 1204.34 128.130   2
   2  -6 -13 795.432 143.187   4
  -2  -6  13 808.910 223.795   7
  -2   6  13 1421.59 489.110   3
   2   6 -12 10094.1 568.450   5
  -2   6  12 8125.64 252.138   2
   2   6 -12 7102.56 278.995   4
  -2  -6  12 10329.6 276.459   2
   2  -6 -12 8599.06 331.881   4
  -2  -6  12 9587.75 440.638   7
  -2   6  12 10054.8 793.930   3
  -2   6  12 8344.35 320.984   7
  -2   6  11 130.069 389.098   3
   2   6 -11-358.554 259.602   5
   2   6 -11 30.4606 98.7302   4
  -2   6  11 103.359 121.395   2
  -2  -6  11-48.4361 170.442   7
  -2  -6  11-82.0806 83.7125   2
  -2   6  11 36.7603 105.601   7
  -2   6  10 343.851 129.336   1
  -2   6  10 243.047 130.791   6
   2   6 -10 319.137 213.149   5
   2   6 -10 129.377 89.6856   4
  -2   6  10 384.492 136.073   4
  -2  -6  10 377.036 167.603   7
  -2  -6  10 347.334 99.4520   2
  -2   6  10 507.130 115.858   7
  -2   6  10 401.137 360.361   3
  -2   6   9 5639.44 254.244   6
  -2   6   9 7238.79 579.986   3
   2   6  -9 7822.33 439.303   5
  -2   6   9 7425.91 302.705   1
  -2   6   9 6267.28 290.079   4
  -2  -6   9 7961.40 269.665   2
  -2  -6   9 7528.23 349.695   7
   2  -6  -9 6579.37 264.123   1
  -2   6   9 6944.00 225.778   7
  -2   6   8 1618.08 147.763   6
  -2   6   8 1810.51 184.092   1
  -2  -6   8 1515.07 136.961   2
  -2   6   8 1590.23 158.954   4
   2   6  -8 1186.35 79.4124   4
   2  -6  -8 1729.02 171.077   1
  -2   6   8 2174.02 387.946   3
  -2   6   8 1480.27 119.601   7
  -2   6   7 96.3790 124.760   1
  -2   6   7-46.4909 86.7025   6
   2  -6  -7 188.822 143.418   1
  -2   6   7 16.1797 75.9560   7
  -2   6   7-69.2772 97.1983   4
   2   6  -7 8.71548 43.4640   4
  -2  -6   7 92.1668 96.8114   2
  -2   6   7 194.322 283.318   3
  -2  -6   6 1730.28 159.923   2
  -2   6   6 1719.43 183.966   1
   2   6  -6 1279.37 84.5807   4
  -2   6   6 1613.44 134.103   4
   2  -6  -6 1851.79 198.881   1
  -2   6   6 1781.98 337.270   3
  -2   6   6 1599.87 122.199   6
  -2  -6   5 1659.45 163.327   2
  -2   6   5 1727.08 197.229   1
   2   6  -5 1337.97 96.1547   4
  -2   6   5 1466.17 133.176   4
   2  -6  -5 1679.88 205.079   1
  -2   6   5 1692.78 312.304   3
  -2   6   5 1239.14 111.313   6
   2   6  -4 689.480 162.812   6
  -2   6   4 357.211 229.058   3
  -2   6   4 616.481 91.4232   6
   2  -6  -4 647.519 162.182   1
   2   6  -4 604.706 90.0016   4
  -2   6   4 678.231 180.397   1
  -2  -6   4 520.566 144.542   2
   2  -6  -4 670.575 263.398   3
   2  -6  -3 1725.02 115.790   6
   2   6  -3 1845.14 205.337   6
  -2  -6   3 1972.08 190.549   2
  -2   6   3 1714.00 207.162   1
   2   6  -3 2022.53 141.485   4
  -2  -6   3 1711.65 118.433   4
   2  -6  -3 1592.91 207.601   1
   2  -6  -3 1560.39 290.389   3
  -2   6   3 1289.62 268.714   3
  -2   6   3 1708.39 119.213   6
   2  -6  -2 40.8424 172.368   1
  -2   6   2 15.0026 81.6687   6
   2  -6  -2 116.015 90.1776   6
   2   6  -2 3.89551 141.138   6
  -2   6   2-15.6012 161.105   1
   2   6  -2-35.9162 99.6728   4
  -2  -6   2 62.0435 81.2181   4
  -2  -6   2 262.074 142.163   2
   2  -6  -2 149.230 222.429   3
  -2  -6   2 383.256 184.788   6
  -2   6   2 36.2951 198.432   3
   2   6  -1 4228.98 278.775   6
  -2  -6   1 3562.13 254.237   6
   2  -6  -1 4184.30 198.221   6
  -2  -6   1 3453.64 244.624   2
   2   6  -1 4072.69 221.804   4
  -2  -6   1 4254.92 204.315   4
   2  -6  -1 3875.71 284.946   1
  -2  -6   1 4117.12 270.484   1
   2  -6  -1 3798.46 332.560   3
  -2   6   1 3953.82 281.789   1
  -2   6   1 3185.32 284.897   3
  -2   6   1 3699.16 190.729   6
  -2  -6   0 2891.66 231.487   2
  -2   6   0 2568.94 242.352   1
   2   6   0 2655.49 208.487   4
  -2  -6   0 2967.95 198.975   4
   2  -6   0 2199.61 232.988   1
  -2  -6   0 2580.06 226.126   1
   2  -6   0 2006.34 267.819   3
  -2  -6   0 2316.21 99.2133   3
  -2   6   0 2835.21 196.224   7
  -2   6   0 2280.13 245.157   3
  -2   6   0 2251.04 175.458   6
   2  -6   0 2446.65 185.008   6
  -2  -6   0 2993.15 250.038   6
   2   6   0 2612.14 236.317   6
   2  -6   1 135.888 127.408   6
   2  -6   1-4.37278 195.291   3
   2   6   1-115.289 170.902   6
   2  -6   1 162.922 178.799   1
  -2  -6  -1 557.228 176.338   1
   2   6   1 93.5904 126.718   4
  -2  -6  -1 18.3007 119.039   4
  -2  -6  -1-15.3693 152.771   2
  -2   6  -1 397.771 149.552   7
   2   6   2 7396.58 370.059   6
  -2  -6  -2 7924.57 332.996   2
   2   6   2 8209.33 353.189   4
  -2  -6  -2 7461.65 344.233   4
   2  -6   2 6619.63 363.274   1
  -2  -6  -2 6784.75 318.290   1
   2  -6   2 6406.90 309.306   6
  -2   6  -2 7104.18 294.682   7
   2  -6   2 5842.85 358.921   3
   2   6   3 3049.97 266.456   6
   2  -6   3 2768.13 269.103   1
  -2  -6  -3 2996.54 238.983   2
  -2  -6  -3 3232.37 258.500   4
  -2  -6  -3 2954.91 226.798   1
   2  -6   3 2585.85 273.033   3
   2  -6   3 2921.92 244.292   6
   2  -6   4 802.026 170.063   6
   2   6   4 900.990 198.446   6
   2  -6   4 1031.86 195.772   3
   2   6   4 1220.93 144.310   5
  -2  -6  -4 1260.47 195.345   2
  -2  -6  -4 1311.07 213.138   4
  -2  -6  -4 1132.56 175.244   1
   2  -6   4 917.237 202.614   1
   2   6   4 1178.87 130.028   3
   2   6   4 1254.08 177.768   1
   2   6   5 314.748 135.065   1
   2  -6   5 18.9893 149.112   6
   2   6   5 219.451 189.220   6
   2   6   5 373.798 139.414   5
  -2  -6  -5 27.7234 130.860   1
  -2  -6  -5-46.7541 158.786   4
  -2  -6  -5-27.7391 142.416   2
   2  -6   5 69.8437 176.009   1
   2   6   5 278.002 156.381   3
   2  -6   6 15.9889 160.994   6
   2   6   6 310.487 183.648   6
   2   6   6 97.0689 138.417   5
   2   6   6 23.6975 130.631   1
  -2  -6  -6 116.993 172.305   4
  -2  -6  -6-43.9927 149.105   2
   2  -6   6 301.299 188.714   1
   2   6   6 404.158 183.772   3
   2  -6   7-179.589 186.094   6
   2   6   7 51.3218 187.946   6
   2   6   7 316.469 147.994   1
  -2  -6  -7-137.730 188.450   4
  -2  -6  -7-205.818 152.990   2
   2  -6   7 187.563 183.130   1
   2   6   7 100.965 210.105   3
   2  -6   8 112.766 203.696   6
   2   6   8 323.417 153.236   1
   2   6   8 381.064 205.295   6
  -2  -6  -8 478.874 209.335   4
  -2  -6  -8 202.185 144.535   2
   2  -6   8 144.954 186.328   1
   2   6   8 379.624 237.477   3
   2   6   9 168.944 225.028   6
  -2   6  -9 200.657 228.994   4
  -2  -6  -9 507.019 240.078   4
   2  -6   9 261.401 205.564   6
  -2  -6  -9 99.8302 141.040   2
   2  -6   9 588.984 227.249   1
   2   6   9 399.103 281.258   3
   2   6  10-192.550 315.066   3
   2  -6  10-26.6066 209.431   6
   2   6  10 37.3141 237.266   6
  -2   6 -10-38.8432 245.106   4
  -2  -6 -10-133.470 242.491   4
  -2  -6 -10-5.66381 137.182   2
   2  -6  10 232.199 202.882   1
   2  -6  11 283.966 236.835   6
   2   6  11 609.207 267.441   6
  -2   6 -11 237.562 259.996   5
  -2   6 -11 338.163 299.769   4
  -2  -6 -11 369.001 245.384   4
  -2  -6 -11 133.099 127.255   2
   2  -6  11 76.4837 201.315   1
   2   6  11 733.171 343.178   3
  -2   6 -12 2555.25 364.982   5
  -2   6 -12 3146.59 437.252   4
  -2  -6 -12 2881.31 395.307   4
   2  -6  12 2033.02 281.439   1
   2  -6  12 1621.67 314.674   6
   2   6  12 3438.04 490.060   3
   2   6  12 2204.56 354.738   6
   2  -6  13 779.892 295.722   6
   2   6  13 704.217 290.112   6
   2  -6  13 631.551 236.366   1
  -2   6 -13 493.816 262.925   5
   2   6  13 1024.81 424.471   3
  -2   6 -13 891.846 315.447   4
  -2  -6 -13 792.674 317.216   4
   2  -6  14 519.506 242.068   1
   2  -6  14 302.612 282.348   6
   2   6  14 337.955 284.970   6
  -2   6 -14 24.0422 289.544   5
  -2   6 -14 161.141 308.561   4
  -2  -6 -14 117.620 310.620   4
   2   6  14 962.018 448.579   3
   2  -6  15 136.453 281.216   6
   2   6  15-115.807 299.777   6
  -2   6 -15 149.465 320.511   5
  -2   6 -15 249.521 326.140   4
  -2  -6 -15 405.107 322.841   4
   2   6  15 223.384 435.339   3
   2  -6  16 166.813 294.183   6
   2   6  16 641.000 337.392   6
  -2   6 -16 464.882 354.841   5
  -2   6 -16 188.972 339.028   4
  -2  -6 -16 787.334 392.417   4
  -2  -7  17-117.737 502.718   3
  -2  -7  17-132.076 263.250   7
  -2   7  17 389.771 549.314   3
  -2   7  16-236.451 514.692   3
  -2  -7  16-424.132 512.656   3
  -2  -7  16 304.193 240.120   7
   2   7 -15 945.844 340.100   5
  -2  -7  15 838.433 464.773   3
  -2  -7  15 1107.71 271.133   7
  -2   7  15 998.382 519.878   3
   2   7 -14 429.030 306.013   5
  -2   7  14 117.522 458.939   3
  -2  -7  14 124.963 196.334   7
   2   7 -13 1032.37 321.973   5
   2  -7 -13 823.721 164.571   4
  -2  -7  13 848.484 127.466   2
  -2  -7  13 808.638 200.539   7
  -2   7  13 603.225 158.259   7
  -2   7  13 1076.49 484.437   3
   2   7 -12-1.53097 249.256   5
   2   7 -12 260.055 129.997   4
  -2   7  12 23.2474 106.309   2
  -2  -7  12 0.94616 176.671   7
  -2   7  12 5.10000 130.332   7
  -2  -7  12 137.782 97.4542   2
  -2   7  12-25.7694 407.336   3
  -2  -7  11 90.7156 173.622   7
   2   7 -11-159.215 235.995   5
   2   7 -11-126.324 110.941   4
  -2   7  11-212.528 131.443   2
  -2  -7  11 88.0137 87.1947   2
  -2   7  11 191.403 112.484   7
  -2   7  11 8.01533 360.337   3
  -2   7  10 9002.96 320.709   6
  -2   7  10 10564.1 322.484   1
   2   7 -10 11716.5 564.049   5
   2   7 -10 8787.82 301.474   4
  -2   7  10 9362.09 397.103   4
  -2  -7  10 12895.6 329.277   2
  -2   7  10 11534.9 761.688   3
  -2  -7  10 12154.9 450.412   7
  -2   7  10 11225.2 285.296   7
  -2   7   9-174.984 116.979   1
  -2   7   9 39.5147 100.852   6
   2  -7  -9-76.3225 116.886   1
  -2   7   9 147.051 119.333   4
   2   7  -9-52.3889 70.1190   4
  -2  -7   9 122.619 151.786   7
  -2  -7   9 40.0634 93.0342   2
  -2   7   9 54.5006 90.7574   7
  -2   7   9 88.4246 335.838   3
  -2   7   8 712.575 113.687   6
  -2   7   8 923.134 146.762   1
  -2  -7   8 776.820 122.689   2
  -2   7   8 896.865 148.135   4
   2   7  -8 842.541 82.6104   4
   2  -7  -8 978.952 158.970   1
  -2   7   8 891.421 94.8210   7
  -2   7   8 1100.39 358.105   3
  -2   7   7 5.60240 80.7635   6
  -2   7   7-90.9488 124.992   1
  -2   7   7-46.5943 67.1092   7
  -2   7   7 46.3692 106.285   4
   2   7  -7-38.3498 56.7508   4
  -2  -7   7-84.0286 97.8404   2
   2  -7  -7-38.0097 143.633   1
  -2   7   7 119.835 280.450   3
  -2   7   6 2818.52 137.646   6
  -2   7   6 3143.02 230.214   1
  -2  -7   6 3423.49 203.343   2
   2   7  -6 2956.27 131.661   4
  -2   7   6 3040.45 184.947   4
   2  -7  -6 3068.87 234.821   1
  -2   7   6 2277.88 109.165   7
  -2   7   6 3170.62 387.237   3
  -2   7   5 6089.45 452.594   3
  -2   7   5 6771.11 324.695   1
  -2  -7   5 6645.32 279.040   2
   2   7  -5 6564.69 200.909   4
  -2   7   5 6084.19 247.338   4
   2  -7  -5 6303.96 301.298   1
  -2   7   5 5442.68 159.554   6
   2   7  -4 10153.8 391.816   6
  -2   7   4 9440.28 384.793   1
  -2  -7   4 9883.25 332.060   2
   2   7  -4 9652.92 255.637   4
  -2   7   4 8123.54 309.411   4
   2  -7  -4 10265.7 392.001   1
  -2   7   4 7796.73 475.756   3
   2   7  -3 268.700 143.380   6
  -2   7   3 286.539 225.672   3
   2  -7  -3 299.238 66.5601   6
  -2   7   3 326.860 163.595   1
   2   7  -3 479.322 105.425   4
  -2  -7   3 374.583 137.134   2
  -2   7   3 389.492 69.8713   6
   2  -7  -3 253.147 221.254   3
   2  -7  -3 449.015 176.604   1
   2   7  -2 1493.27 201.065   6
  -2   7   2 1055.06 245.356   3
  -2   7   2 1543.24 218.025   1
  -2  -7   2 1527.57 181.040   2
   2   7  -2 1526.37 143.229   4
  -2  -7   2 1661.70 136.912   4
   2  -7  -2 1458.15 214.263   1
  -2   7   2 1313.98 114.946   6
   2  -7  -2 1410.05 296.926   3
   2  -7  -2 1596.69 122.782   6
   2   7  -1 1156.20 204.340   6
   2  -7  -1 770.434 253.848   3
  -2   7   1 956.429 232.910   3
  -2   7   1 986.593 195.052   1
  -2  -7   1 1439.32 186.297   2
   2   7  -1 1167.13 141.712   4
  -2  -7   1 1485.55 141.440   4
   2  -7  -1 1191.59 206.926   1
  -2   7   1 1271.72 150.602   7
   2  -7  -1 1309.30 135.967   6
  -2  -7   0 17734.9 460.471   2
   2   7   0 18639.0 469.438   4
   2  -7   0 16618.7 385.657   6
   2  -7   0 16483.1 517.526   1
  -2   7   0 18273.4 403.295   7
   2  -7   0 15112.6 566.015   3
  -2  -7   0 16915.7 288.826   3
  -2   7   0 15245.3 514.441   3
  -2  -7   0 16441.0 420.043   4
   2   7   0 17499.6 519.565   6
  -2  -7  -1 6023.23 292.210   2
   2   7   1 6487.13 312.750   4
  -2  -7  -1 6179.43 296.289   4
   2  -7   1 5326.77 333.777   1
   2  -7   1 4936.11 354.118   3
  -2   7  -1 5790.90 262.136   7
   2  -7   1 5543.54 268.570   6
   2   7   1 6265.14 345.713   6
  -2  -7  -2 2880.27 221.476   2
  -2   7  -2 2519.55 204.912   7
   2   7   2 2829.47 239.406   4
  -2  -7  -2 2482.59 230.726   4
   2  -7   2 2409.92 270.552   1
   2   7   2 2415.46 251.470   6
   2  -7   2 2266.25 203.689   6
   2  -7   3 7288.04 329.280   6
  -2  -7  -3 7375.08 318.332   2
   2  -7   3 6019.87 351.925   1
   2   7   3 7146.73 173.349   3
   2  -7   3 6883.32 404.489   3
  -2  -7  -3 7021.33 354.996   4
   2   7   3 6852.02 366.658   6
   2  -7   4 1534.70 238.499   3
  -2  -7  -4 2182.81 209.360   2
  -2  -7  -4 2381.71 250.717   4
   2  -7   4 2260.79 256.867   1
   2   7   4 2286.21 159.839   3
   2  -7   4 2149.20 221.595   6
   2   7   4 2355.94 259.831   6
   2   7   5 549.339 167.465   3
   2  -7   5 128.680 147.775   6
   2   7   5 269.018 177.216   6
  -2  -7  -5 637.699 170.644   2
   2   7   5 381.514 134.959   5
  -2  -7  -5 444.675 180.193   4
   2  -7   5 219.518 182.413   1
   2  -7   6 401.427 191.476   6
   2   7   6 521.656 200.983   6
   2   7   6 374.337 145.456   5
  -2  -7  -6 381.008 191.767   4
   2  -7   6 447.827 198.997   1
  -2  -7  -6 435.220 160.156   2
   2   7   6 434.846 192.059   3
   2  -7   7-115.056 170.110   6
   2   7   7-79.4482 190.523   6
  -2  -7  -7 160.467 189.229   4
  -2  -7  -7-258.793 136.963   2
   2  -7   7 28.4693 193.599   1
   2   7   7-216.991 211.601   3
   2  -7   8 175.830 193.738   6
   2   7   8-56.5287 214.582   6
   2   7   8 280.404 248.298   3
  -2  -7  -8 351.756 209.736   4
  -2  -7  -8-24.5223 134.430   2
   2  -7   8-177.204 192.499   1
   2  -7   9 81.0943 197.086   6
   2   7   9 281.306 225.075   6
  -2  -7  -9 164.276 209.470   4
  -2  -7  -9 438.394 147.460   2
   2  -7   9 126.010 196.827   1
   2   7   9-31.6863 263.458   3
   2  -7  10 413.976 229.496   6
   2   7  10 376.482 237.230   6
  -2   7 -10 461.032 283.483   4
  -2  -7 -10 730.702 247.817   4
  -2  -7 -10 392.650 139.709   2
   2  -7  10 712.330 243.620   1
   2   7  10 691.823 321.553   3
  -2   7 -11 1420.97 357.505   4
  -2  -7 -11 1042.06 154.036   2
   2   7  11 1171.10 292.492   6
  -2  -7 -11 884.112 303.446   4
   2  -7  11 905.930 242.332   1
   2   7  11 1396.53 397.289   3
   2  -7  11 702.550 263.569   6
   2  -7  12 157.772 233.448   6
   2   7  12-46.1202 261.274   6
  -2   7 -12 491.282 279.399   5
  -2   7 -12-32.1192 299.564   4
  -2  -7 -12 165.813 279.979   4
   2  -7  12-170.907 216.534   1
   2   7  12-117.171 370.439   3
   2  -7  13 596.241 283.964   6
  -2   7 -13 321.956 295.543   5
  -2   7 -13 519.905 331.126   4
  -2  -7 -13 645.637 306.077   4
   2   7  13 552.418 294.512   6
   2  -7  13 481.126 237.442   1
   2   7  13 477.695 392.161   3
   2  -7  14 262.912 288.193   6
   2   7  14-205.916 282.208   6
  -2   7 -14 157.421 294.861   5
  -2   7 -14 33.7426 306.747   4
  -2  -7 -14 31.7256 298.427   4
   2   7  14 859.573 439.816   3
   2  -7  14 60.9511 231.391   1
   2  -7  15 102.277 289.319   6
   2   7  15 1171.22 366.326   6
  -2   7 -15 248.275 301.533   5
  -2   7 -15 621.220 352.385   4
  -2  -7 -15 751.623 383.478   4
   2   7  15 12.9806 456.679   3
   2  -7  16 1877.96 396.283   6
  -2   7 -16 1390.42 384.939   5
  -2  -7 -16 2331.21 459.750   4
  -2   7 -16 1975.34 457.689   4
   2   7  16 2777.02 446.004   6
  -2  -8  17 4199.02 754.277   3
  -2   8  17 3705.18 769.369   3
  -2  -8  17 2858.91 365.099   7
   2   8 -16-343.681 343.917   5
  -2  -8  16 256.142 467.142   3
  -2  -8  16-252.300 246.322   7
  -2   8  16 646.924 500.336   3
   2   8 -15 1558.98 366.168   5
  -2  -8  15 1726.33 288.432   7
  -2   8  15 1755.10 597.917   3
   2   8 -14 1005.62 346.862   5
  -2  -8  14 1021.86 148.217   2
  -2  -8  14 952.131 248.590   7
  -2   8  14 747.484 480.688   3
  -2   8  13 1464.87 497.493   3
   2   8 -13 2087.36 377.286   5
  -2  -8  13 2034.74 167.363   2
  -2  -8  13 1884.42 260.641   7
  -2   8  13 1104.38 195.781   6
   2   8 -12-13.5898 259.437   5
  -2   8  12-221.604 389.113   3
   2   8 -12-14.6866 130.079   4
  -2  -8  12 44.5944 184.452   7
  -2   8  12-5.05357 124.177   7
  -2  -8  12-86.8447 100.145   2
   2   8 -11-41.3687 244.613   5
   2   8 -11-70.7765 129.366   4
  -2  -8  11-112.476 178.887   7
  -2  -8  11-32.3568 94.2290   2
  -2   8  11 76.4676 108.601   7
  -2   8  11-60.7862 367.905   3
  -2   8  10 2371.00 181.034   6
  -2   8  10 2511.38 176.025   1
  -2   8  10 2025.43 221.526   4
  -2  -8  10 3624.97 194.472   2
  -2  -8  10 3184.38 278.920   7
  -2   8  10 2777.85 495.461   3
   2  -8 -10 2536.35 175.851   1
  -2   8  10 2561.17 142.758   7
  -2   8   9 678.543 116.042   6
  -2   8   9 728.798 143.641   1
  -2  -8   9 963.140 129.358   2
   2   8  -9 385.551 93.1346   4
  -2  -8   9 615.911 176.807   7
  -2   8   9 538.688 144.667   4
   2  -8  -9 764.132 143.229   1
  -2   8   9 561.731 82.8145   7
  -2   8   9 321.359 320.329   3
   2  -8  -8-46.2505 143.251   1
  -2   8   8 225.120 130.534   1
  -2   8   8 60.7257 80.8705   6
  -2   8   8 58.3455 115.509   4
   2   8  -8 129.463 67.9948   4
  -2  -8   8 217.853 104.121   2
  -2   8   8 29.5374 62.1651   7
  -2   8   8 80.0846 304.792   3
  -2   8   7 709.417 297.461   3
  -2   8   7 1178.28 173.853   1
  -2  -8   7 968.802 132.847   2
  -2   8   7 718.657 141.615   4
   2   8  -7 966.677 102.668   4
   2  -8  -7 993.426 177.728   1
  -2   8   7 885.170 92.8973   6
  -2   8   7 713.776 66.6599   7
  -2   8   6 5494.62 288.636   1
  -2  -8   6 5253.00 241.369   2
   2   8  -6 5447.57 192.005   4
  -2   8   6 5118.46 253.644   4
   2  -8  -6 5405.95 286.085   1
  -2   8   6 4811.48 460.658   3
  -2   8   6 3748.43 125.789   6
  -2   8   5 429.858 270.927   3
  -2   8   5 60.9644 38.1851   6
   2  -8  -5-154.175 161.207   1
  -2   8   5 168.264 148.737   1
   2   8  -5 140.812 82.2968   4
  -2   8   5 101.053 110.946   4
  -2  -8   5 45.8206 112.444   2
  -2   8   4-14.7713 237.141   3
  -2   8   4 175.812 145.660   1
   2   8  -4-73.7797 141.733   6
   2   8  -4 57.3605 86.1370   4
  -2  -8   4 131.180 112.707   2
  -2   8   4 5.64978 105.883   4
  -2   8   4 10.2533 30.4392   6
   2  -8  -4 160.459 164.035   1
   2  -8  -3 3623.37 114.789   6
   2   8  -3 4955.62 309.485   6
  -2   8   3 4512.61 298.372   1
  -2  -8   3 4837.05 249.589   2
   2   8  -3 4987.22 218.404   4
   2  -8  -3 4795.51 309.084   1
  -2   8   3 5290.40 185.085   7
  -2   8   3 3418.17 347.318   3
  -2   8   2 135.009 224.452   3
   2  -8  -2-92.7426 77.6462   6
   2   8  -2-84.3650 143.668   6
   2  -8  -2-47.6713 165.647   1
  -2   8   2 486.108 187.257   1
   2   8  -2 14.1077 98.5026   4
  -2  -8   2 103.973 89.8844   4
  -2  -8   2 125.013 136.674   2
  -2   8   2 226.716 106.932   7
   2  -8  -2 260.272 247.257   3
   2  -8  -1 11469.9 282.536   6
  -2  -8   1 13365.4 324.394   3
  -2  -8   1 12851.8 388.780   2
   2   8  -1 12261.2 365.313   4
   2  -8  -1 12435.8 462.726   1
  -2  -8   1 12315.0 346.427   4
   2  -8  -1 10035.4 522.238   3
  -2   8   1 12596.0 309.275   7
  -2   8   1 10347.4 487.936   3
   2   8  -1 12125.0 440.037   6
   2  -8   0 450.327 238.904   3
   2  -8   0 462.940 119.558   6
   2   8   0 623.737 176.320   6
  -2   8   0 456.186 192.544   3
  -2  -8   0 721.238 134.476   4
   2   8   0 572.685 133.471   4
   2  -8   0 549.115 198.892   1
  -2  -8   0 541.271 151.900   2
  -2  -8   0 705.899 119.044   3
  -2   8   0 645.104 137.794   7
   2  -8   1 1010.94 256.411   3
  -2  -8  -1 792.280 148.671   4
   2   8   1 774.323 151.432   4
   2  -8   1 565.495 197.123   1
   2   8   1 817.236 197.395   6
  -2  -8  -1 732.025 161.171   2
  -2  -8  -1 470.709 98.3626   3
  -2   8  -1 615.055 145.353   7
   2  -8   1 637.275 144.716   6
   2  -8   2 169.150 138.222   6
   2  -8   2 331.570 224.728   3
   2   8   2 216.574 166.054   6
  -2  -8  -2 455.183 154.434   4
   2  -8   2 179.151 175.319   1
  -2  -8  -2 130.528 132.257   2
  -2  -8  -2 156.410 78.1061   3
  -2   8  -2 436.504 155.471   7
  -2  -8  -3 16566.4 449.080   2
  -2  -8  -3 17651.7 549.380   4
   2  -8   3 16592.2 623.686   3
   2   8   3 16721.2 283.417   3
   2  -8   3 16274.9 472.388   6
   2   8   3 16533.0 542.335   6
   2   8   4 878.778 198.513   6
  -2  -8  -4 886.119 169.005   2
  -2  -8  -4 1091.39 201.195   4
   2  -8   4 667.704 201.720   1
   2   8   4 910.583 139.089   3
   2  -8   4 903.523 186.474   6
   2  -8   5 49.8455 150.494   6
   2   8   5 321.479 193.049   6
  -2  -8  -5 182.142 161.987   4
   2  -8   5 159.612 176.962   1
   2   8   5 529.991 181.709   3
  -2  -8  -5 164.919 132.748   2
   2  -8   6 4121.60 323.841   1
   2   8   6 4321.18 280.959   5
  -2  -8  -6 4530.53 258.563   2
  -2  -8  -6 4512.01 348.193   4
   2   8   6 4462.54 303.757   3
   2  -8   6 3204.50 295.516   6
   2   8   6 4334.36 340.433   6
  -2  -8  -7 2345.83 210.558   2
  -2  -8  -7 2731.44 305.632   4
   2  -8   7 2169.44 268.885   1
   2   8   7 2299.53 292.946   3
   2  -8   7 1905.65 263.727   6
   2   8   7 2351.06 284.663   6
   2   8   8 710.297 235.731   6
  -2  -8  -8 894.249 166.805   2
  -2  -8  -8 1109.87 261.516   4
   2  -8   8 729.550 226.202   1
   2  -8   8 919.128 235.490   6
   2   8   8 1071.73 279.646   3
  -2  -8  -9 6258.58 291.051   2
  -2  -8  -9 7256.39 502.569   4
   2  -8   9 6005.38 393.728   1
   2   8   9 7728.65 519.507   3
   2  -8   9 5759.11 420.688   6
   2   8   9 6674.22 441.274   6
   2  -8  10 542.499 238.670   6
   2   8  10 584.282 247.550   6
  -2  -8 -10 721.166 253.531   4
   2  -8  10 638.999 231.948   1
  -2  -8 -10 397.841 136.370   2
   2   8  10 946.168 344.891   3
   2  -8  11-31.9423 247.783   6
   2   8  11 231.299 257.032   6
  -2   8 -11 75.9071 252.011   4
  -2  -8 -11-271.512 267.932   4
   2  -8  11 111.466 216.115   1
  -2  -8 -11 98.2241 117.695   2
   2   8  11-15.1211 325.015   3
  -2   8 -12 2017.35 401.170   4
  -2  -8 -12 2510.71 377.133   4
   2   8  12 2349.60 441.878   3
   2  -8  12 1467.12 272.360   1
   2  -8  12 2086.53 345.733   6
   2   8  12 1905.40 337.027   6
  -2   8 -13 3202.85 434.155   5
  -2   8 -13 3175.19 467.883   4
  -2  -8 -13 3266.77 438.408   4
   2  -8  13 2934.85 331.700   1
   2   8  13 3887.52 534.538   3
   2  -8  13 2955.74 399.164   6
   2   8  13 3213.35 401.301   6
   2  -8  14 99.1162 264.142   6
   2   8  14 482.048 308.099   6
  -2   8 -14 670.256 325.435   5
  -2   8 -14-79.6929 305.567   4
  -2  -8 -14-384.692 317.163   4
   2  -8  14 584.766 274.622   1
   2   8  14 463.829 431.350   3
   2  -8  15-166.552 294.103   6
   2   8  15 22.6137 295.738   6
  -2   8 -15-632.824 359.000   5
  -2   8 -15 574.327 359.708   4
  -2  -8 -15-478.008 327.550   4
   2   9 -17 296.557 384.810   5
  -2  -9  17-395.706 550.362   3
  -2  -9  17-51.9421 259.024   7
  -2   9  17 267.065 552.146   3
   2   9 -16 1491.38 429.963   5
  -2  -9  16 2061.52 323.648   7
  -2   9  16 1562.19 595.128   3
   2   9 -15 524.422 324.158   5
  -2  -9  15 218.700 219.374   7
  -2   9  15 159.337 475.441   3
   2   9 -14 2475.88 419.227   5
  -2  -9  14 3135.59 213.859   2
  -2   9  14 2341.91 603.969   3
  -2  -9  14 2850.01 316.895   7
   2   9 -13 3454.68 441.318   5
  -2  -9  13 3070.48 201.730   2
  -2  -9  13 2908.01 296.300   7
  -2   9  12 1296.08 445.195   3
  -2   9  12 1178.09 175.249   6
   2   9 -12 1465.09 325.519   5
   2   9 -12 1144.27 193.653   4
  -2  -9  12 1919.14 169.788   2
  -2  -9  12 1829.54 269.955   7
  -2   9  11 649.293 144.792   6
  -2  -9  11 799.237 220.575   7
  -2  -9  11 635.796 121.625   2
  -2  -9  10 4598.24 217.464   2
   2  -9 -10 3868.26 206.343   1
  -2  -9  10 4959.07 331.428   7
  -2   9  10 3645.23 521.713   3
  -2   9  10 3103.36 143.669   7
  -2   9  10 4752.12 217.558   6
  -2   9   9 219.370 92.3845   6
   2  -9  -9 227.803 138.789   1
  -2  -9   9 294.125 170.397   7
  -2   9   9 332.750 146.866   4
  -2   9   9 288.317 94.2966   6
   2   9  -9 134.092 81.9068   4
  -2  -9   9 230.249 109.750   2
  -2   9   9 134.657 59.9307   7
  -2   9   9 403.851 360.063   3
  -2   9   9 206.018 126.399   1
  -2   9   8-22.8094 118.493   1
  -2   9   8-17.1153 65.3065   6
  -2   9   8 71.3615 125.972   4
   2   9  -8 227.445 89.9258   4
   2  -9  -8 122.243 141.729   1
  -2  -9   8 210.281 109.216   2
  -2   9   8 67.1024 33.5057   7
  -2   9   8 90.9709 61.2075   6
  -2   9   7 2543.87 209.644   1
  -2  -9   7 3048.84 201.108   2
  -2   9   7 2386.55 406.174   3
  -2   9   7 2654.04 214.649   4
   2   9  -7 2607.93 157.793   4
   2  -9  -7 2738.49 228.631   1
  -2   9   7 1650.66 90.7374   6
  -2   9   6 650.516 294.120   3
   2  -9  -6 633.943 169.749   1
  -2   9   6 635.193 158.320   1
   2   9  -6 662.821 101.902   4
  -2   9   6 855.650 151.186   4
  -2  -9   6 629.191 130.139   2
  -2   9   5 264.872 144.101   1
   2  -9  -5 486.174 180.412   1
   2   9  -5 341.313 90.7134   4
  -2   9   5 248.841 106.691   4
  -2  -9   5 193.269 110.082   2
  -2   9   5 152.559 35.9739   7
   2   9  -4 1924.17 211.317   6
  -2   9   4 1517.17 301.804   3
  -2   9   4 1919.45 217.186   1
  -2  -9   4 2085.21 182.782   2
   2   9  -4 2186.17 158.592   4
  -2   9   4 1643.83 174.884   4
   2  -9  -4 1722.56 218.209   1
  -2   9   4 1618.40 93.6049   7
  -2   9   3-124.667 230.647   3
   2   9  -3 236.988 145.179   6
   2  -9  -3 104.574 28.4907   6
   2  -9  -3 215.671 171.073   1
   2   9  -3-22.9479 95.7639   4
  -2  -9   3 20.1350 122.701   2
  -2   9   3 106.662 81.4529   7
   2   9  -2 3537.37 277.526   6
  -2  -9   2 3361.97 224.663   2
   2   9  -2 3222.54 209.341   4
   2  -9  -2 3331.35 278.126   1
  -2  -9   2 3332.97 192.384   4
   2  -9  -2 3181.39 130.631   6
  -2   9   2 3753.59 166.877   7
  -2   9   2 2562.14 305.769   3
   2  -9  -1 413.478 99.4926   6
  -2   9   1 569.917 234.213   3
  -2  -9   1 735.809 145.194   3
   2   9  -1 504.834 172.963   6
  -2  -9   1 552.827 125.656   4
   2   9  -1 452.014 128.242   4
   2  -9  -1 318.544 179.900   1
  -2  -9   1 429.007 142.971   2
  -2   9   1 241.374 105.088   7
   2   9   0 29055.3 689.018   6
  -2   9   0 30657.2 502.095   7
  -2  -9   0 31031.8 597.452   2
   2   9   0 30218.6 613.912   4
   2  -9   0 29614.3 701.490   1
  -2  -9   0 29870.7 585.539   4
  -2  -9   0 30212.3 500.400   3
   2  -9   0 29417.8 495.811   6
   2  -9   1 43.8300 116.693   6
   2   9   1-90.0479 167.968   6
   2   9   1 248.734 141.303   4
   2  -9   1 20.0863 173.994   1
  -2  -9  -1 31.5946 122.600   4
  -2  -9  -1 40.1278 135.684   2
  -2   9  -1 72.4544 121.147   7
  -2  -9  -1 63.3973 107.191   3
   2  -9   2 387.728 138.518   6
   2   9   2 590.691 191.698   6
   2  -9   2 306.962 184.572   1
  -2  -9  -2 303.245 139.253   4
  -2  -9  -2 544.415 145.781   2
  -2   9  -2 477.139 154.500   7
  -2  -9  -2 355.925 112.069   3
  -2  -9  -3 1124.76 169.205   2
  -2  -9  -3 1410.06 195.948   4
   2  -9   3 860.772 216.218   1
  -2  -9  -3 708.345 128.622   3
   2   9   3 1224.39 116.292   3
   2  -9   3 1133.66 182.147   6
   2   9   3 1095.03 220.076   6
   2  -9   4 481.603 164.085   6
   2   9   4 543.336 187.687   6
  -2  -9  -4 867.258 162.401   2
   2  -9   4 714.543 214.433   1
  -2  -9  -4 785.705 195.743   4
   2   9   4 881.354 152.754   3
   2  -9   5 40.3947 157.675   6
   2   9   5-215.850 183.451   6
   2  -9   5 464.209 200.789   1
  -2  -9  -5 85.6626 168.866   4
  -2  -9  -5-118.905 135.329   2
   2   9   5 107.923 155.828   3
   2  -9   6 889.748 192.653   6
  -2  -9  -6 1507.12 182.047   2
   2  -9   6 1913.42 259.390   1
  -2  -9  -6 1806.63 264.831   4
   2   9   6 1477.79 240.727   3
   2   9   6 1300.50 246.728   6
   2   9   7-387.888 234.810   3
   2  -9   7-51.6256 178.373   6
   2   9   7-42.1605 199.921   6
   2  -9   7 139.928 186.669   1
  -2  -9  -7 56.5227 185.853   4
  -2  -9  -7-79.7652 129.985   2
   2  -9   8 853.714 230.518   6
   2   9   8 1156.73 249.761   6
  -2  -9  -8 1152.68 166.299   2
   2  -9   8 772.256 236.098   1
  -2  -9  -8 1201.80 263.337   4
   2   9   8 692.143 267.871   3
   2  -9   9 105.463 202.885   6
   2   9   9 368.289 232.682   6
  -2  -9  -9-147.051 243.919   4
   2  -9   9-110.390 196.140   1
   2   9   9 118.785 267.527   3
  -2  -9  -9 102.741 126.705   2
  -2  -9 -10 10510.3 324.778   2
  -2  -9 -10 9995.92 590.031   4
   2  -9  10 9015.55 485.938   1
   2   9  10 10226.0 616.107   3
   2  -9  10 8267.65 511.067   6
   2   9  10 9738.94 551.352   6
   2  -9  11 442.491 241.116   6
   2   9  11 124.789 252.833   6
  -2  -9 -11 490.404 279.413   4
   2  -9  11 125.788 219.953   1
  -2  -9 -11 392.128 127.758   2
   2   9  11 332.826 345.647   3
  -2  -9 -12 3080.04 414.616   4
   2  -9  12 2573.00 318.400   1
  -2   9 -12 1801.86 382.896   4
   2   9  12 3353.94 481.964   3
   2  -9  12 1799.51 318.643   6
   2   9  12 2733.19 376.752   6
   2  -9  13 1067.10 315.693   6
   2  -9  13 1082.25 263.548   1
   2   9  13 1153.96 328.635   6
  -2   9 -13 822.028 346.858   4
  -2  -9 -13 1384.31 344.893   4
   2   9  13 1442.14 437.664   3
   2  -9  14 555.603 307.013   6
  -2   9 -14 777.448 349.490   5
  -2   9 -14 104.523 318.600   4
  -2  -9 -14 398.712 306.077   4
   2   9  14 122.758 285.872   6
   2  -9  14 376.822 243.618   1
   2   9  14 288.497 405.666   3
   2  -9  15 256.288 306.852   6
  -2   9 -15 54.8109 318.404   5
   2   9  15 74.3616 312.061   6
  -2   9 -15 151.681 354.367   4
  -2  -9 -15 209.951 309.606   4
   2  10 -17 1402.50 417.094   5
  -2 -10  17 871.716 304.660   7
   2  10 -16 635.554 401.431   5
  -2  10  16 395.404 547.759   3
  -2 -10  16 237.664 265.185   7
   2  10 -15 1127.54 349.234   5
  -2 -10  15 1670.97 280.935   7
  -2  10  15 1512.43 585.824   3
  -2 -10  14 218.456 229.048   7
   2  10 -14 148.785 296.910   5
  -2  10  14 319.325 465.836   3
  -2 -10  14 50.8157 137.105   2
   2  10 -13 3745.58 436.389   5
  -2 -10  13 4238.80 240.406   2
  -2  10  13 3974.01 638.410   3
  -2 -10  13 3516.30 342.103   7
   2  10 -12 74.6228 267.299   5
   2  10 -12 135.986 161.181   4
  -2 -10  12-280.215 216.498   7
  -2 -10  12-5.04579 113.540   2
  -2  10  12-397.984 474.712   3
  -2  10  11-131.696 118.364   6
  -2 -10  11 8.35649 106.745   2
  -2 -10  11 286.619 193.298   7
  -2  10  11 131.240 411.540   3
  -2 -10  10 1576.68 232.311   7
  -2 -10  10 1258.97 150.199   2
   2 -10 -10 952.730 143.982   1
  -2  10  10 1216.95 134.064   6
  -2  10  10 1237.24 427.318   3
  -2  10   9 756.098 400.998   3
   2 -10  -9 531.432 163.276   1
  -2  10   9 443.826 85.9171   6
  -2  10   9 263.593 76.6030   6
  -2 -10   9 368.914 181.494   7
   2  10  -9 430.686 105.424   4
  -2 -10   9 475.634 125.282   2
  -2  10   9 415.775 130.710   1
  -2  10   8 1182.26 384.101   3
  -2  10   8 848.695 154.630   1
  -2 -10   8 962.329 144.155   2
   2  10  -8 789.554 116.254   4
   2 -10  -8 821.838 178.329   1
  -2  10   8 418.992 57.6518   6
  -2  10   8 541.439 60.9557   6
  -2  10   7-124.750 140.737   1
   2 -10  -7-15.8773 144.506   1
  -2  10   7 88.1363 119.224   4
   2  10  -7 75.7892 90.5014   4
  -2 -10   7 159.768 118.885   2
  -2  10   6 2947.61 219.608   1
  -2 -10   6 3731.94 223.033   2
   2  10  -6 3328.65 184.346   4
  -2  10   6 3047.06 227.647   4
   2 -10  -6 3844.18 271.864   1
  -2  10   6 3249.18 411.227   3
  -2  10   5 3012.93 234.821   1
  -2 -10   5 3899.03 230.159   2
   2  10  -5 3525.43 188.541   4
  -2  10   5 3283.44 231.738   4
   2 -10  -5 3764.92 275.933   1
  -2  10   5 3271.99 379.989   3
  -2  10   4 197.225 246.765   3
   2  10  -4 564.922 158.080   6
   2  10  -4 481.603 117.323   4
  -2  10   4 483.447 139.000   4
  -2  10   4 349.272 47.1322   7
  -2 -10   4 410.337 124.128   2
   2 -10  -4 294.901 167.035   1
   2  10  -3 5157.45 320.241   6
  -2 -10   3 5094.36 259.403   2
   2  10  -3 4715.39 239.093   4
   2 -10  -3 4653.45 313.669   1
  -2  10   3 4751.79 147.568   7
  -2  10   3 4200.19 397.597   3
  -2 -10   2 7726.92 311.421   2
   2  10  -2 6896.48 291.812   4
   2 -10  -2 7080.26 372.824   1
  -2 -10   2 7069.07 273.843   4
  -2  10   2 5798.57 423.537   3
  -2  10   2 7104.09 208.240   7
   2  10  -2 6877.80 355.972   6
   2 -10  -2 5443.31 150.755   6
   2  10  -1 12783.6 469.024   6
  -2 -10   1 13459.8 396.453   2
   2  10  -1 13136.6 416.309   4
   2 -10  -1 12854.0 481.936   1
  -2 -10   1 13175.1 376.320   4
  -2  10   1 13227.1 311.337   7
  -2 -10   1 14272.6 413.081   3
   2 -10  -1 12493.4 281.365   6
   2 -10   0 456.277 119.006   6
   2  10   0 423.970 176.725   6
  -2  10   0 295.769 202.890   3
   2 -10   0 120.599 175.836   1
   2  10   0 378.646 140.445   4
  -2 -10   0 233.630 115.368   4
  -2 -10   0 497.837 142.144   2
  -2 -10   0 612.327 180.569   3
  -2  10   0 418.795 126.525   7
  -2 -10  -1 3102.79 221.580   2
   2 -10   1 2799.62 274.635   1
  -2 -10  -1 2885.94 231.665   4
  -2 -10  -1 2677.90 204.166   3
  -2  10  -1 2869.64 201.602   7
   2 -10   1 2872.22 202.290   6
   2  10   1 2784.37 263.333   6
  -2 -10  -2 955.412 157.518   2
  -2 -10  -2 971.303 174.598   4
   2  10   2 855.055 208.234   6
   2 -10   2 768.183 212.422   1
  -2 -10  -2 870.457 153.317   3
  -2  10  -2 945.803 164.344   7
   2 -10   2 1079.76 169.891   6
   2  10   3 20301.8 629.109   6
   2 -10   3 19176.8 513.946   6
  -2 -10  -3 20348.1 481.109   2
   2 -10   3 18855.2 607.689   1
  -2 -10  -3 21244.5 603.530   4
  -2 -10  -3 17967.2 463.192   3
   2 -10   4 47.7402 154.270   6
   2  10   4 388.811 153.718   3
   2  10   4 82.7599 176.766   6
   2 -10   4-42.8479 181.463   1
  -2 -10  -4 224.037 163.883   4
  -2 -10  -4 201.422 142.670   3
  -2 -10  -4 196.053 135.347   2
  -2 -10  -5 3671.28 230.056   2
   2 -10   5 3083.87 307.425   1
  -2 -10  -5 3946.04 329.416   4
   2  10   5 3988.24 267.406   3
   2 -10   5 3444.19 284.435   6
   2  10   5 3731.82 304.621   6
  -2 -10  -6 8577.23 321.988   2
   2 -10   6 7540.22 434.550   1
  -2 -10  -6 8678.30 473.599   4
   2  10   6 9017.52 417.143   3
   2 -10   6 7838.99 413.015   6
   2  10   6 8093.39 440.409   6
   2  10   7 525.830 239.280   3
   2 -10   7 27.5241 180.197   6
   2  10   7 183.415 207.779   6
   2 -10   7 189.621 200.750   1
  -2 -10  -7 208.779 196.301   4
  -2 -10  -7 235.018 134.120   2
   2  10   8 879.826 276.800   3
   2 -10   8 743.014 218.276   6
   2  10   8 921.545 245.469   6
  -2 -10  -8 1406.13 168.780   2
  -2 -10  -8 1300.19 280.109   4
   2 -10   8 1015.25 242.641   1
   2 -10   9 1268.05 257.489   6
  -2 -10  -9 1770.59 175.794   2
  -2 -10  -9 1713.18 316.714   4
   2 -10   9 1428.07 250.194   1
   2  10   9 1873.26 298.350   6
   2  10   9 1757.24 346.042   3
  -2 -10 -10 6127.59 257.149   2
   2 -10  10 4481.74 385.203   1
  -2 -10 -10 5614.60 483.675   4
   2  10  10 4976.50 428.575   6
   2  10  10 6181.00 505.977   3
   2 -10  10 4469.05 401.134   6
  -2 -10 -11 2973.54 187.555   2
   2 -10  11 2255.78 312.827   1
  -2 -10 -11 2492.15 384.320   4
   2  10  11 3396.92 457.258   3
   2 -10  11 2145.68 332.783   6
   2  10  11 2502.44 339.614   6
   2 -10  12-89.2380 238.452   6
   2  10  12 129.520 255.532   6
  -2  10 -12-189.181 300.607   4
  -2 -10 -12 365.882 258.150   4
   2 -10  12 262.167 246.981   1
   2  10  12 303.596 357.082   3
  -2  10 -13 2561.18 445.432   4
  -2 -10 -13 2459.06 404.462   4
   2 -10  13 1897.42 324.358   1
   2 -10  13 2158.84 362.462   6
   2  10  13 2130.69 373.396   6
   2  10  13 2266.70 472.482   3
   2 -10  14 15.4697 284.235   6
   2  10  14 472.247 331.102   6
  -2  10 -14 1016.83 363.532   5
  -2  10 -14 214.754 333.254   4
  -2 -10 -14 151.774 289.176   4
   2 -10  14 140.375 249.927   1
   2 -10  15-288.256 303.036   6
   2  10  15-156.275 308.509   6
  -2  10 -15-209.791 334.653   5
  -2  10 -15-76.7367 339.946   4
  -2 -10 -15 317.057 317.387   4
   2  11 -16 3.65780 347.643   5
  -2 -11  16 215.593 280.002   7
  -2  11  16 151.632 578.049   3
   2  11 -15-375.935 357.047   5
  -2 -11  15 275.721 239.452   7
  -2  11  15 714.840 555.943   3
   2  11 -14 514.886 311.250   5
  -2 -11  14 1589.64 187.835   2
  -2 -11  14 1420.84 274.135   7
  -2  11  14 1716.18 572.127   3
   2  11 -13 111.348 298.235   5
  -2 -11  13 164.707 137.151   2
  -2 -11  13-1.72724 209.109   7
  -2  11  13-276.950 460.672   3
  -2 -11  12 233.734 202.032   7
  -2 -11  12 143.975 128.499   2
  -2 -11  11 331.761 130.341   2
  -2 -11  11 582.081 208.520   7
  -2  11  11 500.440 440.734   3
  -2 -11  10 3223.40 293.340   7
  -2 -11  10 3384.19 212.124   2
   2 -11 -10 3028.43 211.757   1
  -2  11  10 2651.70 505.937   3
  -2  11  10 2251.13 136.891   6
  -2  11   9 791.979 367.249   3
  -2  11   9 809.887 138.952   1
  -2 -11   9 1152.90 144.402   2
   2  11  -9 1054.96 136.369   4
  -2 -11   9 1006.68 211.886   7
   2 -11  -9 1028.46 175.413   1
  -2  11   9 733.225 72.8563   6
  -2  11   8 748.745 154.516   1
  -2 -11   8 1420.84 163.644   2
   2  11  -8 961.929 128.194   4
   2 -11  -8 1365.11 197.347   1
  -2  11   8 1236.62 387.653   3
  -2  11   7 1338.70 174.600   1
  -2 -11   7 1408.91 164.551   2
   2  11  -7 1124.41 135.225   4
   2 -11  -7 1699.91 209.516   1
  -2  11   7 1033.28 352.934   3
  -2  11   6-146.460 283.492   3
   2  11  -6 95.4169 94.4877   4
  -2 -11   6 50.2909 112.253   2
   2 -11  -6 226.281 176.912   1
  -2  11   6 9.99405 136.067   1
  -2  11   5 738.874 303.618   3
  -2 -11   5 801.747 146.920   2
   2  11  -5 612.772 121.404   4
   2 -11  -5 1010.09 206.101   1
  -2 -11   4 6690.68 288.139   2
   2  11  -4 5725.20 259.832   4
  -2  11   4 5315.95 455.802   3
   2  11  -4 5931.69 339.808   6
   2 -11  -4 6427.18 350.988   1
   2  11  -3 2094.28 231.748   6
  -2 -11   3 1936.86 181.668   2
   2  11  -3 1966.00 179.458   4
   2 -11  -3 2039.65 237.920   1
  -2  11   3 1574.41 94.0735   7
  -2  11   3 1403.88 311.499   3
   2  11  -2 4252.50 299.104   6
  -2 -11   2 4356.99 243.909   2
   2 -11  -2 3988.97 305.281   1
   2  11  -2 4118.84 252.934   4
  -2  11   2 4158.00 165.505   7
  -2  11   2 3624.66 367.125   3
  -2 -11   2 4472.98 272.250   3
   2  11  -1 4274.62 295.460   6
  -2  11   1 4013.65 369.410   3
  -2 -11   1 5102.56 298.330   3
  -2 -11   1 4830.16 257.912   2
   2 -11  -1 4288.93 321.315   1
   2  11  -1 4461.99 264.774   4
  -2 -11   1 4633.54 247.840   4
  -2  11   1 4215.03 191.533   7
   2 -11  -1 4202.54 170.223   6
  -2 -11   0 464.877 166.171   3
   2  11   0 275.627 157.686   6
  -2  11   0 472.100 190.520   3
   2 -11   0 420.415 114.469   6
   2 -11   0 419.557 190.680   1
  -2 -11   0 507.520 133.272   4
  -2 -11   0 737.823 146.414   2
  -2  11   0 511.167 131.180   7
  -2 -11  -1 201.583 149.373   3
   2 -11   1 366.401 122.806   6
   2  11   1 443.704 180.446   6
   2 -11   1 396.721 203.494   1
  -2 -11  -1 313.963 134.629   4
  -2 -11  -1 555.445 150.746   2
  -2  11  -1 169.654 121.652   7
   2 -11   2 147.031 134.326   6
   2  11   2 40.9992 164.719   6
   2 -11   2 378.639 194.664   1
  -2 -11  -2 175.372 128.605   4
  -2 -11  -2 419.249 149.305   2
  -2  11  -2 75.8331 137.115   7
  -2 -11  -2 50.7717 144.767   3
  -2 -11  -3 65.7448 151.239   3
   2  11   3 69.3255 173.952   6
   2 -11   3 320.505 148.799   6
   2 -11   3 180.144 196.529   1
  -2 -11  -3 1.84400 139.824   4
  -2 -11  -3 75.0086 138.348   2
   2 -11   4 4357.23 345.188   1
  -2 -11  -4 5186.41 261.229   2
  -2 -11  -4 4792.64 320.103   4
  -2 -11  -4 4791.54 280.851   3
   2  11   4 5834.84 296.315   3
   2 -11   4 5235.21 312.201   6
   2  11   4 4881.81 349.837   6
  -2 -11  -5 1391.47 170.933   2
   2 -11   5 1144.38 232.526   1
  -2 -11  -5 1046.30 212.656   4
   2  11   5 1328.28 220.139   3
   2 -11   5 1016.62 200.878   6
   2  11   5 1034.67 243.853   6
   2 -11   6 634.047 188.246   6
   2  11   6 835.247 231.381   3
   2  11   6 385.014 209.891   6
  -2 -11  -6 1037.81 169.330   2
   2 -11   6 145.138 194.239   1
  -2 -11  -6 754.706 219.880   4
   2  11   7 823.263 265.124   3
   2  11   7 423.265 211.837   6
  -2 -11  -7 961.085 159.725   2
   2 -11   7 526.648 206.525   6
  -2 -11  -7 1234.92 259.452   4
   2 -11   7 671.549 230.493   1
   2 -11   7 865.055 235.196   7
   2 -11   8 2523.17 314.970   1
  -2 -11  -8 3196.51 213.673   2
  -2 -11  -8 2858.67 340.553   4
   2  11   8 3170.33 354.319   3
   2 -11   8 2589.52 305.610   7
   2 -11   8 1959.14 293.170   6
   2  11   8 2869.16 325.894   6
   2  11   9 442.395 302.578   3
   2 -11   9 23.7480 204.876   6
   2  11   9 34.5448 218.980   6
   2 -11   9 468.945 232.479   1
  -2 -11  -9 32.0358 233.134   4
  -2 -11  -9 224.134 132.407   2
   2  11  10 497.497 333.363   3
   2 -11  10 295.314 244.491   6
   2  11  10 833.410 265.435   6
   2 -11  10 554.028 243.870   1
  -2 -11 -10 31.2456 253.296   4
  -2 -11 -10 283.595 124.356   2
   2  11  11 1639.72 307.794   6
  -2 -11 -11 2544.58 378.510   4
   2 -11  11 1632.65 292.346   1
   2  11  11 2792.58 435.942   3
   2 -11  11 1438.48 313.002   6
   2 -11  12 2074.72 329.782   1
  -2 -11 -12 2869.59 416.455   4
   2  11  12 3511.34 516.880   3
   2 -11  12 1671.64 329.409   6
   2  11  12 2389.96 357.009   6
   2 -11  13 192.279 263.640   6
   2  11  13 384.215 312.481   6
   2  11  13 813.057 428.264   3
  -2  11 -13-246.466 321.222   4
  -2 -11 -13 469.823 323.148   4
   2 -11  13 245.167 259.634   1
   2 -11  14 766.016 320.560   6
   2  11  14 542.769 305.055   6
  -2  11 -14 447.150 332.693   4
  -2 -11 -14 954.733 361.987   4
   2 -11  14 1257.95 303.252   1
   2 -11  15 209.323 307.079   6
   2  11  15 765.750 341.666   6
  -2  11 -15 431.207 344.226   5
  -2  11 -15-132.164 354.715   4
  -2 -11 -15 362.373 333.250   4
   2  12 -16 753.491 368.320   5
  -2 -12  16 598.873 291.474   7
  -2  12  16 772.133 630.302   3
   2  12 -15 128.427 323.845   5
  -2 -12  15 93.0757 244.732   7
  -2  12  15 126.107 523.461   3
  -2 -12  14 362.411 154.932   2
   2  12 -14 368.432 328.588   5
  -2  12  14 686.690 539.505   3
  -2 -12  14-44.1493 237.726   7
  -2 -12  13 346.528 224.640   7
  -2 -12  13 455.015 154.639   2
  -2  12  13 453.648 453.086   3
  -2  12  12 866.990 448.613   3
  -2 -12  12 513.191 234.173   7
  -2 -12  12 607.653 142.202   2
  -2  12  11 1751.18 516.679   3
  -2 -12  11 1546.64 184.307   2
  -2 -12  11 1306.66 259.639   7
  -2  12  10 578.163 442.293   3
   2 -12 -10 223.860 149.907   1
  -2 -12  10-91.1287 196.239   7
  -2 -12  10 310.599 126.974   2
  -2  12   9 522.176 402.228   3
   2 -12  -9 321.099 173.126   1
  -2 -12   9-16.1795 177.404   7
  -2 -12   9 82.2331 113.614   2
  -2  12   8 820.599 388.082   3
   2 -12  -8 362.204 160.145   1
  -2 -12   8 608.171 142.407   2
   2  12  -8 305.801 106.624   4
  -2  12   8 418.979 131.857   1
   2 -12  -7 905.852 192.335   1
  -2  12   7 688.664 343.669   3
  -2  12   7 1221.88 169.635   1
  -2 -12   7 1217.92 158.833   2
   2  12  -7 1167.42 147.191   4
  -2 -12   6 4256.73 238.307   2
   2  12  -6 4231.28 230.647   4
   2 -12  -6 4671.47 310.081   1
  -2 -12   5 3588.43 229.563   2
   2  12  -5 3079.57 201.564   4
   2 -12  -5 3357.29 282.799   1
  -2  12   5 2847.96 400.703   3
  -2  12   4 214.611 267.307   3
   2  12  -4 154.649 159.797   6
   2  12  -4 34.9410 105.348   4
   2 -12  -4-18.2576 177.158   1
  -2 -12   4-112.231 118.227   2
  -2  12   3 605.634 273.811   3
   2  12  -3 660.992 177.369   6
  -2 -12   3 799.909 153.782   2
   2  12  -3 724.625 136.481   4
   2 -12  -3 909.864 208.585   1
  -2  12   3 539.201 68.9619   7
   2 -12  -2 47.0395 37.5864   6
  -2  12   2-103.718 248.955   3
  -2 -12   2-13.5523 151.076   3
   2  12  -2-43.0229 143.638   6
   2 -12  -2 259.350 184.974   1
  -2 -12   2-37.2376 133.474   2
  -2  12   2-17.6033 84.0278   7
   2 -12  -1 75.3347 84.8868   6
  -2 -12   1-46.4571 174.215   3
  -2  12   1 254.348 226.352   3
   2  12  -1 169.011 162.853   6
   2 -12  -1-38.9696 184.109   1
  -2 -12   1 97.0089 106.849   4
  -2 -12   1 171.872 126.328   2
  -2  12   1 201.895 105.674   7
  -2  12   0 1763.28 259.946   3
   2 -12   0 2509.61 275.323   1
  -2 -12   0 2490.85 204.726   2
  -2 -12   0 2180.13 201.057   4
  -2  12   0 2049.54 165.197   7
  -2 -12   0 2068.15 230.152   3
   2  12   0 1809.38 230.292   6
   2 -12   0 2220.66 164.300   6
  -2 -12  -1 62.2389 171.815   3
   2 -12   1 194.841 116.021   6
   2  12   1 175.664 170.257   6
   2 -12   1 315.626 201.240   1
  -2 -12  -1 251.745 138.227   4
  -2 -12  -1 156.783 135.710   2
  -2  12  -1 3.94947 119.858   7
   2 -12   2 1751.08 267.238   1
  -2 -12  -2 1756.11 185.587   2
  -2 -12  -2 1759.03 205.168   4
   2 -12   2 1315.74 177.323   6
  -2 -12  -2 1214.12 190.598   3
   2  12   2 1423.49 230.786   6
   2 -12   3 568.471 158.682   6
   2  12   3 375.268 180.023   6
   2 -12   3 624.693 235.408   1
  -2 -12  -3 412.307 157.149   4
  -2 -12  -3 634.239 150.638   2
  -2 -12  -3 326.139 174.421   3
   2 -12   4 343.308 151.839   6
   2  12   4-176.330 179.654   6
   2  12   4 100.708 156.228   3
   2 -12   4 67.0570 196.341   1
  -2 -12  -4 82.9422 164.361   4
  -2 -12  -4-29.2376 124.505   2
  -2 -12  -4 182.693 170.073   3
   2 -12   5 3684.52 342.594   1
  -2 -12  -5 4122.24 243.525   2
  -2 -12  -5 3821.78 316.581   4
  -2 -12  -5 3494.39 287.333   3
   2 -12   5 3923.13 308.569   7
   2  12   5 4196.10 301.397   3
   2 -12   5 3679.21 295.363   6
   2  12   5 3953.04 354.504   6
   2 -12   6 1670.13 290.389   1
  -2 -12  -6 1920.91 197.676   2
  -2 -12  -6 1810.72 261.383   4
   2  12   6 1699.66 276.112   3
   2 -12   6 1617.01 252.715   7
   2 -12   6 1681.67 245.273   6
   2  12   6 1596.47 261.073   6
   2 -12   7 385.693 201.576   6
   2  12   7 407.114 227.722   3
   2  12   7 679.050 234.678   6
   2 -12   7 132.119 221.429   1
  -2 -12  -7 517.371 207.457   4
  -2 -12  -7 745.320 160.233   2
   2 -12   7 703.658 221.179   7
   2  12   8 847.348 293.387   3
   2 -12   8 1059.71 257.092   7
   2  12   8 918.130 259.051   6
  -2 -12  -8 1310.50 171.787   2
   2 -12   8 1320.17 268.690   1
  -2 -12  -8 1072.11 270.902   4
   2 -12   8 666.514 228.347   6
   2  12   9 1501.23 341.523   3
   2 -12   9 861.465 242.587   6
  -2 -12  -9 1086.99 154.886   2
  -2 -12  -9 1624.20 305.525   4
   2 -12   9 827.108 254.211   1
   2 -12   9 814.608 247.248   7
   2  12   9 1352.95 298.350   6
   2  12  10 1067.68 282.902   6
  -2 -12 -10 1137.26 148.661   2
   2 -12  10 808.713 249.230   1
   2  12  10 1260.61 342.759   3
  -2 -12 -10 1232.02 290.267   4
   2 -12  10 714.515 269.294   7
   2 -12  10 1104.40 292.923   6
   2 -12  11 180.817 239.812   6
   2  12  11 394.050 255.309   6
   2  12  11 49.9917 328.136   3
   2 -12  11 129.065 239.905   1
  -2 -12 -11 725.615 294.263   4
   2  12  12 217.614 356.616   3
   2 -12  12 845.511 300.537   6
   2  12  12 333.640 279.693   6
   2 -12  12 600.031 280.876   1
  -2 -12 -12 622.566 273.813   4
   2 -12  13-427.457 278.906   6
   2  12  13-305.061 283.316   6
  -2 -12 -13 165.946 301.902   4
   2 -12  13-143.059 249.254   1
   2  12  14 220.504 282.037   6
  -2  12 -14-77.7466 347.112   4
  -2 -12 -14 516.345 347.078   4
   2 -12  14-47.6350 274.378   1
   2  13 -16 604.690 363.348   5
  -2  13  16 962.844 603.254   3
  -2 -13  16 1060.07 309.471   7
  -2  13  15 289.371 577.484   3
   2  13 -15-2.70637 341.129   5
  -2 -13  15-48.7672 258.053   7
  -2 -13  14 339.758 155.133   2
  -2 -13  14 371.438 237.699   7
   2  13 -14-156.672 334.950   5
  -2  13  13 953.187 526.812   3
  -2 -13  13 1010.37 183.349   2
  -2 -13  13 552.247 234.165   7
  -2  13  12 592.700 462.160   3
  -2 -13  12 492.676 236.216   7
  -2 -13  12 321.533 150.553   2
  -2 -13  11 2218.10 211.373   2
  -2 -13  11 2086.25 296.406   7
  -2  13  10-111.561 389.608   3
   2 -13 -10 474.745 163.437   1
  -2 -13  10 475.726 212.458   7
  -2 -13  10-111.236 134.806   2
  -2  13   9-52.4801 362.157   3
  -2 -13   9 608.943 140.372   2
   2 -13  -9 202.670 160.784   1
  -2 -13   9 694.957 221.480   7
  -2 -13   8 785.469 150.243   2
   2 -13  -8 1093.69 203.610   1
  -2 -13   7 3234.37 218.887   2
   2  13  -7 3214.29 219.722   4
   2 -13  -7 3696.36 292.775   1
  -2 -13   6 3153.08 219.819   2
   2  13  -6 2718.11 206.203   4
   2 -13  -6 3052.04 260.236   1
  -2  13   6 2550.15 410.299   3
  -2 -13   5 3377.11 220.098   2
   2  13  -5 2956.52 211.873   4
  -2  13   4-131.192 271.320   3
   2  13  -4-6.82868 141.508   6
   2 -13  -4-271.086 185.828   1
  -2 -13   4 64.7041 130.424   2
   2  13  -3 4472.56 321.715   6
  -2  13   3 4145.31 429.895   3
   2 -13  -3 4664.05 329.939   1
  -2 -13   3 5241.63 266.833   2
  -2  13   2 758.372 282.503   3
   2  13  -2 857.895 187.447   6
   2 -13  -2 1244.37 242.518   1
  -2 -13   2 949.130 154.230   2
  -2  13   2 641.878 101.873   7
   2  13  -1 1063.51 208.478   6
  -2 -13   1 675.095 208.626   3
  -2  13   1 582.663 256.737   3
   2 -13  -1 1052.20 233.766   1
  -2 -13   1 1353.54 179.469   2
  -2 -13   1 1242.10 173.969   4
  -2  13   1 996.709 136.775   7
   2 -13  -1 778.252 101.601   6
  -2 -13   0 1053.77 211.560   3
   2  13   0 799.053 202.570   6
  -2  13   0 980.861 241.825   3
  -2 -13   0 970.218 159.219   2
   2 -13   0 561.872 216.351   1
  -2 -13   0 1113.11 166.393   4
  -2  13   0 936.722 145.169   7
   2 -13   0 903.557 124.562   6
  -2 -13  -1 268.974 176.372   3
  -2  13  -1 221.271 128.488   7
   2 -13   1 77.9995 119.203   6
   2  13   1 145.468 172.005   6
   2 -13   1-89.0480 206.205   1
  -2 -13  -1 247.558 144.498   4
  -2 -13  -1-11.9707 132.884   2
   2 -13   2 183.406 134.365   6
  -2 -13  -2 147.575 133.154   2
   2  13   2 16.7239 165.816   6
   2 -13   2 94.1304 199.137   1
  -2 -13  -2 121.037 153.002   4
  -2 -13  -2 216.900 178.002   3
   2 -13   3 96.0933 139.510   6
  -2 -13  -3 75.3494 137.476   2
   2  13   3-205.126 202.560   6
   2 -13   3 335.659 217.588   1
  -2 -13  -3-12.7038 151.572   4
  -2 -13  -3 52.8588 189.137   3
   2  13   4 30.1668 180.366   6
   2  13   4-208.761 171.916   3
   2 -13   4 324.418 229.527   1
  -2 -13  -4 77.7989 163.566   4
  -2 -13  -4-119.706 140.841   2
   2 -13   4 124.163 151.894   6
  -2 -13  -4 202.037 199.708   3
   2 -13   4-201.568 184.558   7
   2 -13   5 113.306 176.621   6
   2  13   5 110.405 211.156   3
   2  13   5 294.098 213.432   6
  -2 -13  -5 61.7995 142.674   2
   2 -13   5 146.136 208.212   1
  -2 -13  -5 135.406 168.272   4
  -2 -13  -5 135.567 190.372   3
   2 -13   5 0.66695 191.925   7
   2 -13   6 10167.2 522.894   1
  -2 -13  -6 12447.3 384.362   2
  -2 -13  -6 11431.3 540.899   4
   2  13   6 12461.9 499.766   3
   2 -13   6 9943.88 465.238   7
   2 -13   6 10960.3 483.734   6
   2  13   6 10214.2 517.081   6
   2 -13   7 5229.21 401.347   1
  -2 -13  -7 6447.29 287.384   2
  -2 -13  -7 6369.71 421.697   4
   2  13   7 6560.74 435.029   3
   2 -13   7 5688.30 387.633   7
   2 -13   7 5923.36 396.625   6
   2  13   7 5752.84 409.973   6
   2 -13   8 569.005 226.564   6
   2  13   8 874.217 291.864   3
   2  13   8 675.839 239.682   6
   2 -13   8 309.534 224.792   1
   2 -13   8 354.461 231.349   7
  -2 -13  -8 927.964 253.140   4
  -2 -13  -8 694.716 149.420   2
   2 -13   9 80.9950 209.003   6
   2  13   9-174.951 296.150   3
   2  13   9 41.2138 239.382   6
   2 -13   9 84.9135 224.209   1
  -2 -13  -9 177.266 217.361   4
  -2 -13  -9 247.696 133.999   2
   2 -13   9-125.494 232.923   7
   2 -13  10 206.478 227.072   6
   2  13  10-134.834 303.881   3
   2  13  10 381.765 268.822   6
   2 -13  10 333.904 242.207   1
  -2 -13 -10 251.709 278.232   4
  -2 -13 -10-179.324 122.570   2
   2 -13  10 143.498 243.885   7
   2  13  11-286.768 348.062   3
   2 -13  11 674.944 273.472   6
   2  13  11 35.4107 257.999   6
   2 -13  11-102.305 250.597   1
  -2 -13 -11-94.1488 261.248   4
   2 -13  11-49.3518 251.716   7
   2  13  12-103.902 365.504   3
   2 -13  12 372.730 274.482   6
   2  13  12 159.806 280.583   6
   2 -13  12 177.844 264.715   1
  -2 -13 -12 75.1790 268.700   4
   2 -13  13-39.0962 261.595   6
   2  13  13 403.264 295.809   6
  -2 -13 -13 311.304 291.901   4
   2 -13  13 195.914 270.498   1
   2 -13  14-182.940 278.053   6
   2  13  14 727.559 338.805   6
  -2  13 -14 334.345 365.741   4
  -2 -13 -14-297.499 295.275   4
   2 -13  14-164.915 264.086   1
  -2  14  15 734.850 592.778   3
   2  14 -15 1467.90 435.951   5
  -2 -14  15 2043.85 348.289   7
  -2  14  14 376.112 525.728   3
  -2 -14  14 369.939 170.915   2
  -2 -14  14 636.431 248.167   7
  -2  14  13-70.1319 477.597   3
  -2 -14  13 235.402 244.403   7
  -2 -14  13 124.635 149.859   2
  -2  14  12 491.404 453.934   3
  -2 -14  12 199.785 219.055   7
  -2 -14  12 442.440 165.456   2
  -2 -14  11 775.686 174.299   2
  -2 -14  11 433.467 224.282   7
  -2  14  10 730.940 397.417   3
   2 -14 -10 316.527 166.262   1
  -2 -14  10 404.879 208.774   7
  -2 -14  10 516.328 153.710   2
  -2  14   9 1202.46 449.553   3
  -2 -14   9 1407.25 181.793   2
   2 -14  -9 1200.95 194.846   1
  -2 -14   9 1346.37 242.325   7
   2 -14  -8 1204.86 217.906   1
  -2  14   8 554.617 376.113   3
  -2 -14   8 822.777 222.909   7
  -2 -14   8 838.514 156.104   2
  -2 -14   7 10322.3 356.530   2
   2 -14  -7 10945.2 443.026   1
  -2  14   6 943.253 376.904   3
  -2 -14   6 1475.47 174.655   2
   2 -14  -6 1176.58 221.469   1
  -2  14   5 1259.88 342.960   3
   2 -14  -5 1298.27 236.450   1
  -2 -14   5 1096.79 164.445   2
  -2  14   4 635.638 331.000   3
   2 -14  -4 379.699 206.738   1
  -2 -14   4 183.186 131.354   2
   2  14  -3 3178.54 290.549   6
  -2  14   3 2737.44 383.684   3
   2 -14  -3 3640.73 315.668   1
  -2 -14   3 3797.38 238.704   2
   2  14  -2 6859.06 382.479   6
   2 -14  -2 7739.21 419.312   1
  -2 -14   2 7277.12 310.420   2
  -2  14   2 6099.25 503.134   3
  -2 -14   2 7225.99 416.594   3
   2 -14  -1 5505.07 378.352   1
  -2 -14   1 5708.33 282.683   2
   2  14  -1 4716.36 333.613   6
  -2  14   1 4568.79 205.558   7
  -2 -14   1 5434.15 365.175   3
  -2  14   1 4910.07 427.943   3
   2 -14  -1 4296.59 169.767   6
   2 -14   0 169.013 108.801   6
  -2 -14   0 189.130 199.334   3
   2  14   0 28.1134 169.650   6
  -2  14   0-112.740 205.653   3
   2 -14   0 221.636 192.455   1
  -2 -14   0 289.483 133.031   4
  -2  14   0 142.580 120.275   7
  -2 -14   0 105.661 130.447   2
  -2 -14  -1 651.020 231.075   3
   2  14   1 725.050 191.830   6
  -2 -14  -1 845.411 161.343   2
   2 -14   1 736.271 220.047   1
  -2 -14  -1 792.280 168.579   4
  -2  14  -1 839.770 165.454   7
   2 -14   1 706.206 145.123   6
   2 -14   2 476.756 152.394   6
   2  14   2 634.829 200.835   6
   2 -14   2 454.392 219.787   1
  -2 -14  -2 815.516 186.152   4
  -2 -14  -2 898.485 158.564   2
  -2 -14  -2 980.941 228.162   3
   2 -14   3 473.640 163.814   6
   2  14   3 418.032 187.240   6
   2 -14   3 409.939 215.540   1
  -2 -14  -3 869.249 165.627   2
  -2 -14  -3 784.635 198.289   4
   2 -14   3 776.941 197.678   7
  -2 -14  -3 894.222 228.604   3
   2 -14   4 738.356 179.581   6
  -2 -14  -4 530.615 218.219   3
   2 -14   4 431.252 197.989   7
   2  14   4 432.958 190.217   6
   2  14   4 564.575 171.888   3
   2 -14   4 510.239 234.016   1
  -2 -14  -4 355.161 167.849   4
  -2 -14  -4 596.055 148.518   2
   2 -14   5 6298.81 432.274   1
  -2 -14  -5 7209.76 308.860   2
  -2 -14  -5 6704.37 418.280   4
  -2 -14  -5 5499.30 373.877   3
   2 -14   5 6654.37 385.801   7
   2  14   5 7236.86 406.693   3
   2 -14   5 6943.66 381.003   6
   2  14   5 6515.43 420.760   6
   2 -14   6 482.598 202.372   6
   2  14   6 416.515 248.055   3
   2  14   6 454.206 228.963   6
   2 -14   6 246.079 217.844   1
   2 -14   6 573.731 215.351   7
  -2 -14  -6 628.475 211.738   4
  -2 -14  -6 595.259 152.973   2
   2  14   7 968.045 275.187   3
  -2 -14  -7 1540.53 176.980   2
   2 -14   7 1080.81 262.360   1
  -2 -14  -7 1401.43 272.052   4
   2 -14   7 1334.52 245.203   6
   2 -14   7 1102.54 246.998   7
   2  14   7 1389.64 282.852   6
   2 -14   8 895.480 249.453   6
   2  14   8 548.615 288.208   3
   2  14   8 508.817 241.248   6
   2 -14   8 628.585 266.081   1
  -2 -14  -8 575.891 230.525   4
  -2 -14  -8 715.981 151.986   2
   2 -14   8 364.108 235.289   7
   2  14   9 858.709 312.058   3
   2 -14   9 1509.24 295.586   7
  -2 -14  -9 1766.72 182.949   2
   2 -14   9 822.663 260.734   1
   2  14   9 1405.85 302.378   6
  -2 -14  -9 1259.14 277.308   4
   2 -14   9 1138.79 272.719   6
   2 -14  10 433.361 245.878   6
   2  14  10 177.797 320.024   3
   2  14  10 310.847 261.114   6
   2 -14  10 164.609 254.850   1
  -2 -14 -10 249.080 252.301   4
  -2 -14 -10 2.31198 120.243   2
   2 -14  10-5.63121 242.055   7
   2 -14  11 408.443 254.289   6
   2  14  11 597.700 358.007   3
   2  14  11 139.034 249.702   6
   2 -14  11 472.475 250.421   1
  -2 -14 -11 756.667 302.654   4
   2 -14  11 303.070 277.312   7
   2 -14  12 345.506 258.022   6
   2  14  12 250.548 279.477   6
   2 -14  12 192.998 260.248   1
  -2 -14 -12 58.7309 256.960   4
   2 -14  12 293.033 289.562   7
   2  14  13 1477.77 369.582   6
   2 -14  13 1776.25 342.441   1
  -2 -14 -13 2192.73 385.785   4
   2 -14  14-109.544 287.244   6
   2  14  14 281.726 315.741   6
  -2 -14 -14-208.337 304.023   4
   2 -14  14 389.354 289.848   1
  -2  15  15 212.828 542.317   3
   2  15 -15 396.505 364.010   5
  -2 -15  15 246.972 277.349   7
  -2  15  14 3047.74 685.628   3
  -2 -15  14 2697.78 353.105   7
  -2 -15  14 3292.74 285.524   2
  -2 -15  13-220.575 168.150   2
  -2 -15  13 131.144 226.044   7
  -2 -15  12-14.0223 230.055   7
  -2  15  12 170.463 469.188   3
  -2 -15  12 40.6147 162.056   2
  -2  15  11 30.2752 414.167   3
  -2 -15  11-58.2494 143.888   2
  -2 -15  11 75.7790 214.980   7
  -2  15  10 74.0490 396.319   3
  -2 -15  10 647.797 232.087   7
  -2 -15  10 439.459 156.999   2
  -2  15   9 805.541 430.371   3
   2 -15  -9 957.179 202.487   1
  -2 -15   9 390.426 196.884   7
  -2 -15   9 820.961 166.468   2
  -2 -15   8 6766.27 308.377   2
   2 -15  -8 6274.21 362.330   1
  -2 -15   8 5574.34 375.441   7
  -2  15   8 5493.85 583.723   3
   2 -15  -7 384.591 199.267   1
  -2 -15   7 13.6058 127.550   2
  -2  15   6 56.9826 336.530   3
   2 -15  -6 21.8441 196.232   1
  -2 -15   6 140.074 139.093   2
  -2  15   5 89.8303 315.392   3
   2 -15  -5 325.310 210.864   1
  -2 -15   5 506.026 146.084   2
  -2  15   4 46.4941 292.087   3
   2 -15  -4 368.936 220.418   1
  -2 -15   4-137.257 126.933   2
  -2  15   3-26.8645 288.472   3
   2  15  -3-87.9529 149.595   6
   2 -15  -3-30.8466 206.054   1
  -2 -15   3 151.683 132.774   2
   2  15  -2 1874.41 245.777   6
   2 -15  -2 1686.23 272.906   1
  -2 -15   2 2342.97 208.476   2
  -2  15   2 1944.19 366.116   3
   2 -15  -1 266.478 84.4626   6
  -2 -15   1 296.523 219.559   3
  -2  15   1-37.5475 224.068   3
   2  15  -1 257.410 180.769   6
  -2  15   1 227.919 115.273   7
   2 -15  -1 291.714 71.7083   6
   2 -15  -1 463.617 226.682   1
  -2 -15   1 450.422 151.011   2
   2  15   0 3712.59 317.916   6
   2 -15   0 4683.65 371.697   1
  -2 -15   0 4674.72 265.456   2
  -2 -15   0 4486.12 294.763   4
  -2  15   0 3842.38 219.541   7
  -2 -15   0 4196.06 349.671   3
  -2  15   0 3778.24 375.886   3
   2 -15   0 4348.92 208.739   6
  -2 -15  -1 455.712 218.125   3
   2 -15   1 292.423 129.058   6
   2  15   1 553.774 204.852   6
  -2  15  -1 287.376 146.218   7
   2 -15   1 115.443 204.784   1
  -2 -15  -1 291.136 145.083   4
  -2 -15  -1 334.046 148.912   2
   2  15   2 3282.62 314.544   6
   2 -15   2 2927.17 328.602   1
  -2 -15  -2 3663.06 292.178   4
  -2 -15  -2 3254.04 331.027   3
   2 -15   2 2999.13 233.570   6
   2 -15   3-19.5161 142.443   6
  -2 -15  -3 432.125 147.390   2
   2  15   3 400.212 197.664   6
   2 -15   3 498.546 260.940   1
   2 -15   3 265.056 182.595   7
  -2 -15  -3 182.450 153.372   4
  -2 -15  -3 518.173 228.169   3
   2 -15   4 3753.47 362.981   1
  -2 -15  -4 4311.35 257.419   2
  -2 -15  -4 4048.33 326.478   4
  -2 -15  -4 3584.87 340.097   3
   2 -15   4 3811.99 307.756   7
   2  15   4 3597.28 279.350   3
   2 -15   4 3775.24 288.941   6
   2  15   4 3142.73 318.637   6
   2  15   5-47.4452 208.169   6
   2  15   5 70.5647 196.276   3
   2 -15   5-154.354 220.575   1
  -2 -15  -5 218.730 186.346   4
  -2 -15  -5 210.484 140.467   2
   2 -15   5 88.4049 194.457   7
   2 -15   5-230.152 179.612   6
   2  15   6 595.807 252.773   3
   2  15   6 405.503 210.660   6
   2 -15   6 142.580 218.857   1
  -2 -15  -6 234.497 196.961   4
   2 -15   6 400.143 223.285   7
  -2 -15  -6 240.928 140.964   2
   2 -15   6 6.35356 175.431   6
   2  15   7 1650.36 284.273   6
   2 -15   7 2006.32 325.676   1
  -2 -15  -7 2511.73 205.540   2
  -2 -15  -7 1767.55 283.982   4
   2 -15   7 1950.66 282.325   7
   2  15   7 2530.16 339.592   3
   2 -15   7 2174.82 291.944   6
   2  15   8 1205.08 301.168   3
   2  15   8 1543.15 292.300   6
   2 -15   8 861.553 277.790   1
  -2 -15  -8 1660.17 294.315   4
  -2 -15  -8 1363.34 166.973   2
   2 -15   8 1279.07 273.482   7
   2 -15   8 1329.91 264.295   6
   2 -15   9 331.981 217.442   6
   2  15   9 851.578 331.194   3
   2  15   9 491.851 256.129   6
   2 -15   9 150.752 247.222   1
   2 -15   9 667.636 266.793   7
  -2 -15  -9 587.101 248.264   4
  -2 -15  -9 622.333 144.995   2
   2 -15  10 611.496 254.884   6
   2  15  10 1146.95 364.622   3
   2  15  10 998.683 295.780   6
  -2 -15 -10 1385.83 330.725   4
  -2 -15 -10 1034.57 155.031   2
   2 -15  10 516.004 277.904   1
   2 -15  10 737.550 290.914   7
   2 -15  11 545.805 269.099   6
   2  15  11 823.369 292.416   6
   2 -15  11 221.958 265.149   1
  -2 -15 -11 643.135 281.688   4
   2 -15  11 521.551 294.500   7
   2 -15  12 708.689 276.827   6
   2  15  12 1083.13 340.476   6
   2 -15  12 1484.33 332.715   1
  -2 -15 -12 1415.14 347.289   4
   2 -15  12 384.040 297.974   7
   2 -15  13-159.577 263.263   6
   2  15  13 178.846 287.484   6
   2 -15  13-134.617 264.311   1
  -2 -15 -13 453.114 312.240   4
  -2  16  15 1946.88 672.679   3
  -2 -16  15 1977.38 346.130   7
  -2 -16  14-201.911 176.473   2
  -2  16  14 80.8901 512.205   3
  -2 -16  14 595.807 279.857   7
  -2  16  13 1611.27 571.129   3
  -2 -16  13 1836.01 245.092   2
  -2 -16  13 1727.46 312.603   7
  -2  16  12 371.158 482.707   3
  -2 -16  12-23.9523 239.738   7
  -2 -16  12 265.296 163.024   2
  -2  16  11 400.027 468.566   3
  -2 -16  11 176.435 225.109   7
  -2 -16  11 84.2157 156.852   2
  -2  16  10 326.841 427.820   3
  -2 -16  10 397.985 218.731   7
  -2 -16  10 430.703 161.911   2
  -2 -16   9 2009.96 210.352   2
   2 -16  -9 1641.14 243.098   1
  -2 -16   9 1588.29 264.791   7
  -2  16   8 99.2728 370.808   3
  -2 -16   8 339.236 215.207   7
   2 -16  -8 190.846 200.465   1
  -2 -16   8 159.641 144.400   2
   2 -16  -7 4457.87 335.921   1
  -2 -16   7 4078.38 259.846   2
  -2  16   7 3929.95 539.174   3
  -2  16   6 1222.39 403.175   3
   2 -16  -6 1341.00 262.277   1
  -2 -16   6 1248.79 174.119   2
   2 -16  -5 5704.57 372.095   1
  -2 -16   5 5457.50 283.059   2
  -2  16   5 4689.19 520.297   3
  -2  16   4 322.707 294.758   3
   2 -16  -4 1039.91 244.472   1
  -2 -16   4 584.633 150.395   2
   2  16  -3 2033.18 252.576   6
  -2  16   3 1818.80 382.808   3
   2 -16  -3 2576.21 298.806   1
  -2 -16   3 2358.16 207.419   2
  -2  16   2 563.802 297.918   3
   2 -16  -2 753.165 236.657   1
  -2 -16   2 782.715 159.597   2
   2  16  -2 913.881 214.046   6
   2 -16  -1 2095.04 122.824   6
   2  16  -1 2878.73 299.459   6
   2 -16  -1 3201.20 338.893   1
  -2 -16   1 3463.12 244.987   2
  -2  16   1 2490.46 350.213   3
   2 -16  -1 2113.48 131.762   6
   2  16   0 1439.25 242.437   6
   2 -16   0 1584.38 270.510   1
  -2 -16   0 1682.49 196.110   2
  -2  16   0 1160.14 167.446   7
  -2 -16   0 1744.54 303.634   3
   2 -16   0 1576.42 154.949   6
   2  16   1 2450.91 279.932   6
   2 -16   1 2603.56 322.112   1
  -2 -16  -1 2548.97 218.626   2
  -2 -16  -1 2396.26 248.966   4
  -2 -16  -1 2148.99 313.676   3
   2 -16   1 2597.03 205.302   6
   2 -16   2 150.085 142.190   6
   2  16   2 11.9123 175.593   6
   2 -16   2 296.433 237.420   1
  -2 -16  -2 1.30614 148.330   4
  -2 -16  -2-53.4913 143.371   2
   2 -16   2-9.85230 163.815   7
  -2 -16  -2-181.037 229.375   3
   2 -16   3 501.454 172.763   6
   2  16   3 895.030 223.823   6
   2 -16   3 989.399 263.891   1
  -2 -16  -3 1047.94 170.937   2
   2 -16   3 1311.94 223.310   7
  -2 -16  -3 772.142 188.312   4
   2  16   4 58.0863 202.714   6
   2 -16   4-105.717 234.587   1
  -2 -16  -4 190.355 194.224   4
   2 -16   4 153.544 156.106   6
  -2 -16  -4 265.294 142.058   2
   2 -16   4 124.828 190.750   7
   2  16   5 892.605 251.000   6
   2  16   5 1582.10 262.613   3
   2 -16   5 1312.31 278.778   1
  -2 -16  -5 1595.03 191.559   2
  -2 -16  -5 1542.88 247.983   4
   2 -16   5 1613.88 265.433   7
   2  16   6 268.118 249.220   3
   2  16   6 291.174 220.231   6
   2 -16   6 691.329 279.499   1
  -2 -16  -6 478.371 210.668   4
   2 -16   6 329.906 230.010   7
  -2 -16  -6 675.696 154.925   2
   2  16   7 998.013 271.978   3
   2 -16   7 1230.89 284.016   1
  -2 -16  -7 1689.67 191.218   2
  -2 -16  -7 1275.77 260.994   4
   2 -16   7 929.518 249.458   7
   2  16   7 1396.86 290.532   6
   2 -16   8 277.083 249.980   7
   2  16   8 97.5132 276.120   3
   2 -16   8 379.216 222.944   6
   2  16   8 247.930 238.286   6
   2 -16   8 228.358 260.251   1
  -2 -16  -8 257.717 248.883   4
  -2 -16  -8 200.210 140.433   2
   2 -16   9-93.6350 216.464   6
   2  16   9 89.3659 291.510   3
   2  16   9 291.461 248.810   6
   2 -16   9-132.470 255.323   1
  -2 -16  -9 420.267 251.231   4
  -2 -16  -9-9.95740 137.544   2
   2 -16   9 310.090 251.238   7
   2 -16  10 656.147 254.147   6
   2  16  10 968.751 364.691   3
   2  16  10 193.859 264.526   6
   2 -16  10 386.856 275.717   1
  -2 -16 -10 492.514 258.147   4
   2 -16  10 432.215 265.551   7
   2 -16  11 345.386 259.962   6
   2  16  11 915.823 308.814   6
   2 -16  11 1075.30 320.608   7
   2 -16  11 777.257 296.780   1
   2 -16  12-244.634 266.736   6
   2  16  12 221.079 296.395   6
   2 -16  12 509.658 301.714   1
  -2 -16 -12-296.432 268.187   4
   2 -16  12-124.494 278.680   7
   2 -16  13 1507.81 360.581   6
   2  16  13 1414.40 369.961   6
   2 -16  13 900.320 305.213   1
  -2 -16 -13 1705.97 363.514   4
   2 -16  13 1661.88 381.776   7
  -2  17  14 1217.20 616.684   3
  -2 -17  14 606.547 211.441   2
  -2 -17  14 345.110 272.480   7
  -2 -17  13 980.497 208.699   2
  -2  17  13 389.320 504.787   3
  -2 -17  13 1113.60 285.954   7
  -2 -17  12 203.586 175.884   2
  -2  17  12 255.946 496.977   3
  -2 -17  12 651.609 265.313   7
  -2 -17  11-188.707 245.311   7
  -2 -17  11 128.545 164.595   2
  -2  17  10-156.391 436.365   3
  -2 -17  10 387.724 233.229   7
  -2 -17  10 20.8789 159.134   2
  -2 -17   9 445.464 225.522   7
  -2 -17   9 555.657 173.816   2
   2 -17  -9 518.728 217.179   1
  -2  17   8 1028.68 441.406   3
  -2 -17   8 1248.46 244.081   7
  -2 -17   8 1175.44 193.851   2
   2 -17  -8 519.025 209.214   1
  -2  17   7 1392.46 426.590   3
   2 -17  -7 1450.23 260.153   1
  -2 -17   7 1237.88 192.496   2
  -2  17   6-265.601 355.627   3
   2 -17  -6 308.213 226.496   1
  -2 -17   6 16.7982 139.503   2
   2 -17  -5 1495.88 266.244   1
  -2 -17   5 1577.10 192.119   2
  -2  17   5 2020.84 418.628   3
  -2  17   4 374.814 327.283   3
   2 -17  -4 826.510 243.863   1
  -2 -17   4 507.390 158.163   2
  -2  17   3 428.127 313.714   3
   2  17  -3 474.970 191.331   6
   2 -17  -3 106.310 221.359   1
  -2 -17   3 271.668 145.990   2
   2  17  -2 1190.94 228.325   6
  -2  17   2 965.724 317.671   3
   2 -17  -2 1637.23 287.691   1
  -2 -17   2 1676.86 192.550   2
   2 -17  -1 57.6760 79.0261   6
  -2  17   1-136.018 249.660   3
   2 -17  -1 57.2203 71.2280   6
   2  17  -1 280.624 184.185   6
   2 -17  -1-100.639 230.762   1
  -2 -17   1 189.428 142.773   2
   2  17   0 4441.92 342.010   6
   2 -17   0 5426.27 410.376   1
  -2 -17   0 5320.38 288.741   2
   2 -17   0 3910.66 199.922   6
   2 -17   0 4545.08 222.999   6
   2  17   1 788.071 221.132   6
   2 -17   1 918.560 268.337   1
  -2 -17  -1 1004.64 174.212   2
  -2 -17  -1 1031.82 212.002   4
   2 -17   1 1239.44 167.177   6
   2 -17   2 573.811 151.641   6
   2  17   2 402.174 201.670   6
   2 -17   2 496.162 230.542   1
  -2 -17  -2 428.585 168.193   4
  -2 -17  -2 697.522 157.346   2
   2 -17   2 598.397 184.958   7
   2  17   3 1575.03 272.633   6
   2 -17   3 2042.08 313.575   1
  -2 -17  -3 2114.79 206.421   2
  -2 -17  -3 1991.27 251.854   4
   2 -17   3 2314.56 261.987   7
   2 -17   3 2042.44 225.813   6
   2  17   4 301.259 198.242   6
   2 -17   4-117.818 236.230   1
  -2 -17  -4 216.518 179.925   4
  -2 -17  -4 106.723 133.933   2
   2 -17   4 45.9675 195.817   7
   2 -17   5 3.65902 206.310   7
   2  17   5 197.922 222.084   6
   2  17   5 691.285 229.572   3
   2 -17   5 120.465 221.953   1
  -2 -17  -5 50.0763 183.831   4
  -2 -17  -5 32.5794 136.781   2
   2 -17   6 4626.05 419.001   1
  -2 -17  -6 5426.51 280.921   2
  -2 -17  -6 5258.35 417.695   4
   2 -17   6 4366.20 354.495   7
   2  17   6 5051.24 405.229   3
   2  17   6 4733.79 394.875   6
   2  17   7 470.545 276.875   3
   2  17   7 247.907 228.032   6
   2 -17   7 573.217 261.343   1
   2 -17   7 50.5954 221.335   7
  -2 -17  -7 455.833 244.151   4
  -2 -17  -7 456.811 156.997   2
   2  17   8 1417.73 291.538   6
   2 -17   8 1601.45 312.527   1
  -2 -17  -8 2176.92 330.853   4
  -2 -17  -8 1843.75 194.456   2
   2  17   8 1695.94 358.834   3
   2 -17   8 1932.13 305.110   7
   2  17   9-38.6079 310.947   3
   2  17   9 700.762 294.220   6
   2 -17   9 468.554 278.381   1
  -2 -17  -9 271.248 233.355   4
   2 -17   9-205.796 255.204   7
   2 -17   9-9.63797 216.801   6
  -2 -17  -9 234.608 157.620   2
   2 -17  10 464.033 255.953   6
   2  17  10-18.2236 267.000   6
   2 -17  10 495.440 313.381   1
  -2 -17 -10 292.758 249.038   4
   2 -17  10-221.351 260.132   7
   2 -17  11-192.028 246.300   6
   2  17  11-120.109 281.460   6
   2 -17  11 17.6800 266.877   1
  -2 -17 -11 91.3926 273.767   4
   2 -17  11 194.638 289.876   7
   2 -17  12-9.59861 257.481   6
   2  17  12 473.171 305.206   6
   2 -17  12 760.183 306.034   1
  -2 -17 -12 566.062 311.189   4
   2 -17  12-212.258 291.007   7
   2 -17  13-289.482 297.314   6
   2  17  13 96.7919 289.885   6
   2 -17  13-357.804 310.268   1
  -2 -17 -13 526.105 323.218   4
   2 -17  13-179.196 311.669   7
  -2 -18  14 1.91534 187.870   2
  -2 -18  14 430.954 279.660   7
  -2 -18  13 104.047 182.164   2
  -2  18  13 12.2156 494.995   3
  -2 -18  13 136.632 256.224   7
  -2 -18  12 11.7520 175.910   2
  -2  18  12 135.653 485.018   3
  -2 -18  12-285.156 258.682   7
  -2  18  11-12.2510 456.145   3
  -2 -18  11 47.0676 250.804   7
  -2 -18  11 33.0450 171.618   2
  -2  18  10-559.022 455.955   3
  -2 -18  10-368.655 232.144   7
  -2 -18  10 86.3678 169.433   2
  -2  18   9-112.357 399.661   3
  -2 -18   9 241.587 222.996   7
   2 -18  -9 340.800 233.654   1
  -2 -18   9 233.731 163.133   2
  -2  18   8 66.6037 386.078   3
   2 -18  -8 145.823 210.649   1
  -2 -18   8-102.833 218.286   7
  -2 -18   8-57.8682 152.066   2
   2 -18  -7 223.571 212.687   1
  -2 -18   7 320.384 158.269   2
  -2  18   6 389.214 374.728   3
   2 -18  -6 76.7457 231.430   1
  -2 -18   6 340.357 161.267   2
  -2  18   5 337.649 356.281   3
   2 -18  -5 123.158 227.844   1
  -2 -18   5 446.932 161.663   2
  -2  18   4 50.5952 336.249   3
   2 -18  -4 546.070 241.461   1
  -2 -18   4-170.481 144.265   2
  -2  18   3 121.700 329.168   3
  -2 -18   3 588.739 159.003   2
   2 -18  -3 828.420 267.778   1
   2  18  -2 2307.65 273.082   6
  -2  18   2 1592.61 355.074   3
   2 -18  -2 2282.63 309.340   1
  -2 -18   2 2506.07 230.793   2
   2 -18  -1 224.558 86.3812   6
  -2  18   1 137.560 265.852   3
   2  18  -1 708.740 213.306   6
   2 -18  -1 709.584 256.091   1
  -2 -18   1 688.964 169.306   2
   2 -18   0-47.3717 110.923   6
   2  18   0 347.885 198.112   6
   2 -18   0 204.424 232.585   1
  -2 -18   0 165.261 142.433   2
   2 -18   1 144.010 133.911   6
   2  18   1 77.0995 182.513   6
   2 -18   1-9.80833 229.463   1
  -2 -18  -1 169.845 144.806   2
   2 -18   2 120.712 147.872   6
   2  18   2-113.454 197.659   6
   2 -18   2 91.5764 224.951   1
  -2 -18  -2-76.9518 168.588   4
  -2 -18  -2 9.01327 138.337   2
   2 -18   2 33.4744 174.231   7
   2 -18   3-151.125 184.943   7
   2  18   3 506.264 203.253   6
   2 -18   3 186.300 244.876   1
   2 -18   3 245.020 170.970   6
  -2 -18  -3 5.81985 176.282   4
  -2 -18  -3 121.710 147.513   2
   2  18   4 546.605 226.428   6
   2 -18   4 370.449 245.395   1
  -2 -18  -4 361.017 191.896   4
  -2 -18  -4 415.931 153.971   2
   2 -18   4 678.299 229.149   7
   2  18   5 133.524 206.648   6
   2  18   5-310.486 205.889   3
   2 -18   5-201.881 228.639   1
  -2 -18  -5 329.876 211.006   4
  -2 -18  -5-182.404 151.938   2
   2 -18   5 229.242 211.557   7
   2  18   6 316.002 230.081   6
   2  18   6 559.748 265.464   3
   2 -18   6 571.384 271.986   1
  -2 -18  -6 554.883 205.929   4
   2 -18   6 781.496 248.894   7
  -2 -18  -6 859.072 172.158   2
   2  18   7 1702.09 316.810   3
   2 -18   7 1158.69 294.782   1
  -2 -18  -7 1692.36 206.238   2
   2 -18   7 961.152 262.956   7
   2  18   7 1786.69 304.034   6
   2  18   8-28.1671 295.125   3
   2  18   8-26.0661 235.526   6
   2 -18   8-41.8846 249.597   1
  -2 -18  -8 184.056 251.428   4
   2 -18   8-75.0021 250.387   7
  -2 -18  -8-132.601 161.183   2
   2  18   9 1131.83 320.726   6
   2 -18   9 558.483 293.054   1
  -2 -18  -9 1527.50 204.466   2
   2 -18   9 489.266 267.521   7
  -2 -18  -9 1332.45 300.724   4
   2 -18   9 816.720 267.234   6
   2  18  10 1277.60 315.672   6
   2 -18  10 1826.10 376.929   1
  -2 -18 -10 1000.78 310.253   4
   2 -18  10 1233.31 314.225   7
   2 -18  10 846.165 281.135   6
   2 -18  11 544.126 284.487   6
   2  18  11 388.638 296.253   6
   2 -18  11 840.870 307.043   1
  -2 -18 -11 1334.44 349.606   4
   2 -18  11 458.239 285.264   7
   2 -18  12 808.633 302.146   6
   2  18  12 126.808 290.603   6
   2 -18  12 281.671 291.733   1
  -2 -18 -12 472.433 300.130   4
   2 -18  12 700.611 329.435   7
  -2 -19  13 83.9407 195.987   2
  -2  19  13 468.216 592.481   3
  -2 -19  13 331.666 266.724   7
  -2 -19  12 662.985 207.769   2
  -2  19  12 1132.30 553.907   3
  -2 -19  12 570.523 273.923   7
  -2  19  11 577.881 479.943   3
  -2 -19  11 1023.15 219.847   2
  -2 -19  11 1296.10 306.246   7
  -2  19  10 260.313 438.504   3
  -2 -19  10-180.754 242.633   7
  -2 -19  10 61.2974 175.883   2
  -2  19   9-275.338 432.025   3
  -2 -19   9 343.193 231.672   7
  -2 -19   9-64.1442 171.838   2
  -2  19   8 849.677 433.057   3
   2 -19  -8 147.384 217.538   1
  -2 -19   8 626.978 251.265   7
  -2 -19   8 571.767 187.102   2
  -2  19   7 309.224 401.793   3
   2 -19  -7 559.406 250.700   1
  -2 -19   7 241.767 216.924   7
  -2 -19   7 357.483 178.958   2
  -2  19   6 483.496 384.077   3
  -2 -19   6 1071.27 199.839   2
   2 -19  -6 1205.48 256.907   1
  -2  19   5 388.106 396.539   3
   2 -19  -5 270.195 229.114   1
  -2 -19   5 342.465 177.528   2
  -2  19   4-17.3019 346.439   3
   2 -19  -4-124.070 236.919   1
  -2 -19   4 15.5742 154.455   2
  -2  19   3-225.692 309.202   3
   2 -19  -3 369.151 250.849   1
  -2 -19   3 237.555 151.326   2
   2  19  -2 5682.09 392.069   6
   2 -19  -2 6040.28 434.781   1
  -2 -19   2 6252.90 322.227   2
   2 -19  -1 242.989 82.0544   6
  -2  19   1 162.272 288.254   3
   2  19  -1 136.594 178.566   6
   2 -19  -1 190.116 236.153   1
  -2 -19   1 171.992 145.527   2
   2 -19   0 445.651 123.027   6
   2  19   0 515.102 203.952   6
   2 -19   0 448.449 252.992   1
  -2 -19   0 471.375 161.945   2
   2 -19   1 247.178 140.977   6
   2  19   1 138.482 198.567   6
   2 -19   1 30.5982 225.701   1
  -2 -19  -1-63.3313 140.261   2
   2  19   2-33.4568 195.743   6
   2 -19   2 115.486 257.834   1
  -2 -19  -2 64.2010 151.516   2
  -2 -19  -2 14.9566 194.317   4
   2 -19   2 181.101 184.349   7
   2 -19   2 89.6136 146.517   6
   2  19   3 324.957 207.397   6
   2 -19   3 298.408 260.656   1
  -2 -19  -3 285.306 205.982   4
   2 -19   3-217.832 184.947   7
  -2 -19  -3 17.7769 150.934   2
   2  19   4 286.990 215.788   6
   2 -19   4 554.192 248.630   1
  -2 -19  -4 299.619 197.485   4
   2 -19   4 146.371 204.309   7
  -2 -19  -4 297.928 162.308   2
   2  19   5 2262.58 309.348   6
   2 -19   5 1790.14 329.476   1
  -2 -19  -5 2524.82 298.402   4
  -2 -19  -5 2602.86 235.225   2
   2 -19   5 2195.70 288.104   7
   2  19   6 380.646 254.416   6
   2  19   6 257.529 249.715   3
   2 -19   6-117.000 249.331   1
   2 -19   6-124.617 218.885   7
  -2 -19  -6 79.1963 203.154   4
  -2 -19  -6 56.0033 169.189   2
   2  19   7-104.138 227.356   6
   2  19   7 69.6349 272.313   3
   2 -19   7 181.228 256.442   1
   2 -19   7-108.714 234.045   7
  -2 -19  -7 168.735 214.258   4
  -2 -19  -7-89.6151 168.894   2
   2  19   8 345.818 260.492   6
   2 -19   8-20.2930 261.679   1
  -2 -19  -8 12.0560 243.654   4
   2 -19   8-221.982 250.290   7
  -2 -19  -8 110.038 171.444   2
   2  19   9 87.6334 262.252   6
   2 -19   9 362.907 288.625   1
  -2 -19  -9 525.555 262.465   4
   2 -19   9 457.379 268.912   7
  -2 -19  -9 697.546 191.072   2
   2  19  10 328.256 295.739   6
   2 -19  10 248.803 285.315   1
   2 -19  10-167.975 307.321   7
   2 -19  10-235.205 263.999   6
   2 -19  11-94.6554 253.105   6
   2  19  11 333.500 303.417   6
   2 -19  11 84.4487 281.060   1
  -2 -19 -11 146.463 267.229   4
   2 -19  11 146.898 274.752   7
   2 -19  12 397.888 294.095   6
   2  19  12-106.352 291.012   6
   2 -19  12 48.8526 289.861   1
  -2 -19 -12 77.5007 284.317   4
   2 -19  12 81.9000 305.033   7
  -2 -20  12 333.396 214.920   2
  -2  20  12 368.322 495.606   3
  -2 -20  12-6.54804 262.923   7
  -2 -20  11 109.100 190.331   2
  -2  20  11 528.988 513.269   3
  -2 -20  11 124.767 260.796   7
  -2 -20  10 514.447 265.152   7
  -2 -20  10 212.624 183.964   2
  -2  20   9 553.509 431.164   3
  -2 -20   9 1264.25 238.520   2
  -2 -20   9 1251.11 287.829   7
  -2  20   8 1042.89 464.106   3
   2 -20  -8 776.434 257.582   1
  -2 -20   8 525.063 248.253   7
  -2 -20   8 857.677 200.102   2
  -2  20   7 79.0246 396.360   3
   2 -20  -7 425.219 258.481   1
  -2 -20   7 441.074 242.676   7
  -2 -20   7 686.617 202.844   2
   2 -20  -6 771.734 252.363   1
  -2 -20   6 1102.08 206.090   2
   2 -20  -5-143.591 245.228   1
  -2 -20   5 118.108 162.899   2
  -2  20   4 294.589 352.296   3
   2 -20  -4 821.824 281.241   1
  -2 -20   4 781.147 197.944   2
   2 -20  -3 799.399 269.989   1
  -2  20   3 1714.42 411.104   3
  -2 -20   3 1635.39 226.456   2
   2 -20  -2 2403.57 338.877   1
  -2 -20   2 2960.63 266.493   2
  -2  20   2 2452.76 391.436   3
   2  20  -2 2257.81 297.498   6
   2  20  -1 3269.93 326.735   6
   2 -20  -1 3530.38 375.537   1
  -2 -20   1 3712.27 276.246   2
  -2  20   1 2492.71 400.586   3
   2  20   0 603.783 216.403   6
   2 -20   0 397.659 253.056   1
  -2 -20   0 503.548 177.348   2
   2 -20   0 872.030 143.111   6
   2  20   1 1718.07 275.961   6
   2 -20   1 1425.58 307.176   1
  -2 -20  -1 2016.75 228.347   2
   2 -20   1 1605.60 226.931   7
   2 -20   1 1403.40 181.308   6
   2  20   2-186.063 213.507   6
   2 -20   2 255.212 242.151   1
   2 -20   2 175.660 195.869   7
   2 -20   2-152.440 150.333   6
  -2 -20  -2 220.750 181.807   2
   2  20   3 1163.46 261.176   6
   2 -20   3 294.771 252.555   1
  -2 -20  -3 946.571 258.472   4
   2 -20   3 1074.92 229.500   7
  -2 -20  -3 793.229 191.343   2
   2  20   4-163.665 219.328   6
   2 -20   4 398.233 261.568   1
  -2 -20  -4 88.5647 199.296   4
   2 -20   4-289.523 220.375   7
  -2 -20  -4 319.360 177.956   2
   2  20   5 141.523 231.103   6
   2 -20   5 399.656 260.303   1
  -2 -20  -5 713.431 243.851   4
   2 -20   5 91.3078 226.492   7
  -2 -20  -5 494.342 186.759   2
   2 -20   6-284.826 236.458   7
   2  20   6 397.365 249.511   6
   2  20   6-377.037 268.000   3
   2 -20   6 451.416 293.074   1
  -2 -20  -6-48.2513 205.715   4
  -2 -20  -6 109.945 165.745   2
   2  20   7 394.629 250.634   6
   2  20   7 346.271 286.919   3
   2 -20   7 979.728 336.726   1
  -2 -20  -7 601.524 241.694   4
   2 -20   7 31.2968 242.232   7
  -2 -20  -7 646.581 194.085   2
   2  20   8 85.3841 266.780   6
   2 -20   8 231.939 281.056   1
  -2 -20  -8 432.488 264.473   4
   2 -20   8 55.7647 257.379   7
  -2 -20  -8-90.3922 167.539   2
   2  20   9 849.790 291.894   6
  -2 -20  -9 1166.84 220.830   2
  -2 -20  -9 555.717 284.434   4
   2 -20   9 524.492 288.205   7
   2  20  10-26.1395 275.498   6
   2 -20  10 896.159 345.803   1
  -2 -20 -10 445.919 275.420   4
   2 -20  10 485.352 286.991   7
   2 -20  10 401.254 275.037   6
   2 -20  11 1417.75 353.210   1
   2 -20  11 1414.13 347.051   7
   2 -20  11 1749.99 344.314   6
   2  20  11 1631.13 369.284   6
  -2 -21  12 874.009 244.020   2
  -2  21  12 1058.30 550.907   3
  -2 -21  12 586.590 281.659   7
  -2 -21  11 156.607 199.123   2
  -2  21  11 402.346 498.718   3
  -2 -21  11 807.670 317.418   7
  -2 -21  10-185.437 192.389   2
  -2  21  10-150.369 468.901   3
  -2 -21  10 396.915 274.517   7
  -2  21   9 42.1497 436.859   3
  -2 -21   9-577.434 271.264   7
  -2 -21   9 228.331 197.625   2
  -2 -21   8 370.169 237.819   7
   2 -21  -8 957.576 276.778   1
  -2 -21   8 517.081 199.727   2
  -2  21   7 43.5819 407.879   3
   2 -21  -7-373.731 255.070   1
  -2 -21   7 720.311 260.204   7
  -2 -21   7 512.364 205.328   2
   2 -21  -6 2820.74 340.211   1
  -2 -21   6 2361.90 261.543   2
  -2  21   5 101.077 374.312   3
   2 -21  -5 561.621 272.878   1
  -2 -21   5 46.2895 175.167   2
  -2  21   4 406.343 348.280   3
   2 -21  -4 484.348 275.799   1
  -2 -21   4 604.501 194.445   2
  -2  21   3-141.539 337.117   3
   2 -21  -3 175.985 270.684   1
  -2 -21   3-19.3825 178.290   2
  -2  21   2 1170.20 352.925   3
   2 -21  -2 1726.51 319.894   1
  -2 -21   2 1754.28 228.306   2
   2  21  -1 279.819 187.417   6
   2 -21  -1 146.621 257.513   1
  -2 -21   1-25.7653 168.673   2
   2  21   0 3241.23 342.955   6
   2 -21   0 2810.91 366.746   1
  -2 -21   0 3656.75 296.757   2
   2  21   1 187.289 194.363   6
   2 -21   1 236.228 260.506   1
   2 -21   1 511.345 191.109   7
  -2 -21  -1 742.643 202.950   2
   2  21   2 457.406 236.596   6
   2 -21   2 984.403 314.348   1
  -2 -21  -2 1104.93 209.363   2
   2 -21   2 793.244 224.546   7
   2 -21   2 833.448 181.529   6
   2  21   3 278.952 206.998   6
   2 -21   3-201.586 256.131   1
   2 -21   3 163.356 205.506   7
  -2 -21  -3 52.8605 175.180   2
   2  21   4 1463.66 283.755   6
   2 -21   4 852.744 301.089   1
  -2 -21  -4 1979.83 314.127   4
  -2 -21  -4 1889.26 250.596   2
   2 -21   4 1267.43 264.162   7
   2  21   5-428.581 231.936   6
   2 -21   5 159.040 268.016   1
  -2 -21  -5 15.4090 203.958   4
   2 -21   5-101.622 212.846   7
  -2 -21  -5 163.663 179.139   2
   2  21   6-198.463 247.645   6
   2 -21   6-74.0667 273.468   1
  -2 -21  -6 45.1949 221.951   4
   2 -21   6 10.3872 234.148   7
  -2 -21  -6 278.256 179.766   2
   2 -21   7 459.958 271.821   7
   2  21   7-20.6302 235.210   6
   2 -21   7 147.240 274.411   1
  -2 -21  -7-46.6150 178.554   2
  -2 -21  -7-40.9389 223.295   4
   2  21   8 1060.89 318.360   6
   2 -21   8 506.527 292.709   1
  -2 -21  -8 1368.56 325.419   4
   2 -21   8 797.218 279.705   7
  -2 -21  -8 1209.96 222.535   2
   2  21   9 463.285 282.396   6
   2 -21   9 928.787 338.285   1
  -2 -21  -9 103.413 251.285   4
   2 -21   9-279.691 286.051   7
   2 -21  10 1623.48 371.570   1
  -2 -21 -10 2728.28 404.612   4
   2 -21  10 1681.30 357.001   7
   2 -21  10 1667.16 337.709   6
   2  21  10 2134.03 365.255   6
  -2 -22  11 83.3052 209.047   2
  -2  22  11-224.854 502.570   3
  -2 -22  11 707.363 297.313   7
  -2 -22  10-54.8682 206.323   2
  -2  22  10 242.214 482.991   3
  -2 -22  10 253.011 267.386   7
  -2  22   9 1208.31 503.488   3
  -2 -22   9 1128.24 240.065   2
  -2 -22   9 1219.01 295.688   7
  -2  22   8 609.363 475.735   3
  -2 -22   8 1058.58 277.753   7
  -2 -22   8 459.430 221.606   2
  -2  22   7 1992.76 521.168   3
   2 -22  -7 1825.33 325.056   1
  -2 -22   7 1558.89 257.031   2
  -2 -22   7 2120.88 322.887   7
  -2  22   6 399.437 422.335   3
   2 -22  -6 227.007 274.131   1
  -2 -22   6-335.767 249.619   7
  -2 -22   6 245.436 191.214   2
  -2  22   5 635.862 387.437   3
   2 -22  -5 733.623 286.926   1
  -2 -22   5 987.341 216.687   2
  -2  22   4 182.867 341.160   3
   2 -22  -4 342.213 269.361   1
  -2 -22   4 371.410 196.003   2
  -2  22   3-180.290 314.071   3
   2 -22  -3-62.0533 263.174   1
  -2 -22   3 756.378 211.589   2
  -2  22   2-17.7372 296.778   3
   2 -22  -2-101.840 262.551   1
  -2 -22   2-61.1527 173.234   2
   2  22  -1 469.779 204.209   6
   2 -22  -1 681.157 301.192   1
  -2 -22   1 843.444 204.248   2
   2  22   0 459.492 208.568   6
  -2 -22   0 703.676 204.070   2
   2  22   1 6154.99 439.903   6
   2 -22   1 5752.32 473.578   1
  -2 -22  -1 7000.39 397.083   2
   2 -22   1 5987.11 340.779   7
   2  22   2 37.2443 204.716   6
   2 -22   2 116.286 284.534   1
   2 -22   2-48.4172 198.306   7
  -2 -22  -2 369.700 193.276   2
   2  22   3 773.518 239.416   6
   2 -22   3 835.262 305.525   1
   2 -22   3 426.743 208.536   7
  -2 -22  -3 598.940 203.800   2
   2  22   4 116.054 223.200   6
   2 -22   4-190.928 271.159   1
  -2 -22  -4 120.333 236.963   4
   2 -22   4 589.733 243.522   7
  -2 -22  -4 60.7670 182.452   2
   2  22   5 464.360 248.777   6
   2 -22   5 205.814 270.193   1
  -2 -22  -5 403.430 249.423   4
   2 -22   5 172.946 229.889   7
  -2 -22  -5 814.286 218.396   2
  -2 -22  -6 534.868 209.897   2
   2  22   6 131.588 234.862   6
   2 -22   6 661.211 301.436   1
  -2 -22  -6-110.327 244.304   4
   2 -22   6 223.611 235.780   7
   2  22   7 1231.78 308.371   6
   2 -22   7 871.073 317.248   1
  -2 -22  -7 1895.66 342.388   4
  -2 -22  -7 1749.18 248.628   2
   2 -22   7 984.000 295.898   7
   2  22   8 486.250 280.304   6
  -2 -22  -8 344.023 204.156   2
   2 -22   8-79.9848 289.121   1
  -2 -22  -8-298.965 271.865   4
   2 -22   8-139.969 250.992   7
   2 -22   9 2839.24 428.024   1
  -2 -22  -9 3743.21 457.630   4
   2 -22   9 2784.55 374.900   7
   2  22   9 2241.45 379.049   6
   2  22  10 851.094 305.981   6
   2 -22  10 472.276 327.222   1
  -2 -22 -10-143.848 275.823   4
   2 -22  10 178.254 293.555   7
   2 -22  10-207.792 248.510   6
  -2 -23  10 276.476 208.084   2
  -2  23  10 417.560 498.877   3
  -2 -23  10 361.661 276.860   7
  -2 -23   9 670.705 241.334   2
  -2  23   9-551.749 526.469   3
  -2 -23   9-231.481 268.294   7
  -2 -23   8 198.938 198.523   2
  -2  23   8-69.1862 454.477   3
  -2 -23   8 578.075 264.079   7
  -2  23   7 32.3171 456.659   3
   2 -23  -7 158.256 266.348   1
  -2 -23   7-96.4870 235.791   7
  -2 -23   7 273.769 216.372   2
  -2  23   6 338.983 431.867   3
   2 -23  -6 779.765 270.945   1
  -2 -23   6 1230.09 288.102   7
  -2 -23   6 719.106 229.357   2
  -2 -23   5 129.780 188.453   2
  -2  23   5-193.347 372.168   3
   2 -23  -5 372.115 268.714   1
   2 -23  -4 3007.68 391.292   1
  -2 -23   4 2679.84 293.108   2
  -2  23   4 2103.22 474.615   3
  -2  23   3 290.199 342.946   3
   2 -23  -3 1.86590 275.006   1
  -2 -23   3 470.054 217.258   2
  -2  23   2 506.437 319.500   3
   2 -23  -2 768.431 304.344   1
  -2 -23   2 877.159 238.163   2
   2 -23  -1 130.897 279.010   1
  -2 -23   1 163.133 187.757   2
   2  23   0 2548.12 320.876   6
   2 -23   0 3620.63 425.212   1
  -2 -23   0 3573.87 310.460   2
   2  23   1 835.988 241.694   6
   2 -23   1 529.232 285.892   1
  -2 -23  -1 1050.58 237.233   2
   2  23   2 1011.19 247.633   6
   2 -23   2 1724.76 361.899   1
  -2 -23  -2 1796.62 262.716   2
   2 -23   2 1639.93 255.317   7
   2  23   3 171.322 219.825   6
   2 -23   3 93.2660 275.212   1
   2 -23   3-207.283 220.688   7
  -2 -23  -3-69.5745 198.219   2
   2  23   4 863.186 281.121   6
   2 -23   4 661.542 301.857   1
   2 -23   4 58.7856 217.867   7
  -2 -23  -4-47.2628 204.830   2
   2  23   5-38.0743 223.891   6
   2 -23   5-273.490 296.174   1
  -2 -23  -5-224.361 266.640   4
   2 -23   5 454.749 248.271   7
  -2 -23  -5 145.748 205.697   2
   2  23   6 437.834 266.395   6
   2 -23   6 76.6615 291.912   1
  -2 -23  -6-47.6132 248.857   4
   2 -23   6 53.1019 239.143   7
  -2 -23  -6 104.545 199.468   2
   2  23   7-166.198 240.522   6
   2 -23   7 32.0801 308.624   1
   2 -23   7-152.296 254.694   7
  -2 -23  -7 206.235 271.244   4
  -2 -23  -7 61.2651 199.563   2
  -2 -23  -8 1049.96 238.103   2
   2  23   8 1164.06 310.429   6
   2 -23   8 1234.47 361.189   1
  -2 -23  -8 974.242 294.384   4
   2 -23   8 1084.07 297.638   7
   2  23   9 482.789 299.952   6
   2 -23   9 20.9803 304.855   1
  -2 -23  -9 69.1566 268.009   4
   2 -23   9 122.383 299.163   7
  -2 -24   9 525.429 237.462   2
  -2  24   9-23.5082 486.932   3
  -2 -24   9 9.67972 270.241   7
  -2 -24   8 742.621 240.289   2
  -2  24   8-106.219 488.139   3
  -2 -24   8 498.106 270.704   7
  -2 -24   7 106.791 216.689   2
  -2  24   7-265.667 463.201   3
  -2 -24   7 107.757 256.953   7
   2 -24  -7 193.552 273.242   1
  -2  24   6 640.769 445.492   3
   2 -24  -6 814.557 292.185   1
  -2 -24   6 711.283 267.457   7
  -2 -24   6 971.130 261.748   2
  -2  24   5 853.278 425.956   3
   2 -24  -5 614.451 290.632   1
  -2 -24   5 1081.66 282.467   7
  -2 -24   5 520.750 241.546   2
  -2  24   4 105.580 337.539   3
   2 -24  -4 353.929 285.547   1
  -2 -24   4 312.765 203.062   2
  -2  24   3 229.001 331.940   3
   2 -24  -3 309.157 283.414   1
  -2 -24   3-54.5857 219.150   2
   2 -24  -2 901.867 299.216   1
  -2 -24   2 269.662 215.656   2
   2 -24  -1 656.191 296.183   1
  -2 -24   1 871.879 246.991   2
   2  24   0-54.7309 199.497   6
   2 -24   0-125.413 283.821   1
  -2 -24   0-84.7866 194.306   2
   2  24   1 129.622 200.750   6
  -2 -24  -1 462.514 221.275   2
   2  24   2-25.6394 215.097   6
   2 -24   2-129.648 277.947   1
  -2 -24  -2-62.0683 204.695   2
   2  24   3 101.513 220.062   6
   2 -24   3-12.1161 283.346   1
   2 -24   3 427.950 242.155   7
  -2 -24  -3 436.482 220.361   2
   2  24   4-97.0773 224.288   6
   2 -24   4-24.0277 287.002   1
   2 -24   4 273.046 224.632   7
  -2 -24  -4-69.9245 207.369   2
   2  24   5-79.4902 236.317   6
   2 -24   5 517.488 317.481   1
   2 -24   5 57.6482 231.456   7
  -2 -24  -5-105.125 221.652   2
   2  24   6-193.983 236.024   6
   2 -24   6 91.6625 313.228   1
  -2 -24  -6-46.3408 264.510   4
   2 -24   6 615.707 264.111   7
  -2 -24  -6 403.763 231.249   2
  -2 -24  -7 629.351 235.399   2
   2  24   7-5.14318 244.470   6
   2 -24   7 233.458 324.107   1
  -2 -24  -7 960.381 334.253   4
   2 -24   7 331.497 277.880   7
   2  24   8 487.205 282.217   6
   2 -24   8 299.673 339.427   1
  -2 -24  -8-52.3961 264.508   4
   2 -24   8 72.1419 271.493   7
  -2 -25   8 218.507 225.479   2
  -2  25   8 190.624 484.906   3
  -2 -25   8 98.8935 259.807   7
  -2 -25   7 344.125 233.686   2
  -2  25   7 887.049 499.495   3
  -2 -25   7 409.942 271.780   7
  -2 -25   6 23.6202 210.996   2
  -2  25   6 476.536 435.735   3
   2 -25  -6 233.302 292.425   1
  -2 -25   6-160.204 263.904   7
  -2  25   5 73.4386 412.225   3
   2 -25  -5 409.659 309.607   1
  -2 -25   5-432.649 272.701   7
  -2 -25   5-44.9823 214.666   2
  -2  25   4-368.859 353.470   3
   2 -25  -4 362.927 299.950   1
  -2 -25   4 387.040 228.978   2
  -2  25   3 168.717 352.835   3
   2 -25  -3 801.174 302.372   1
  -2 -25   3-24.8691 216.599   2
   2 -25  -2 1183.72 354.095   1
  -2 -25   2 993.403 265.607   2
   2 -25  -1 37.2217 285.685   1
  -2 -25   1-44.9070 209.051   2
  -2 -25   0 133.137 225.666   2
   2  25   1-197.878 209.686   6
   2 -25   1-253.206 303.945   1
  -2 -25  -1 12.5644 207.246   2
   2  25   2 217.493 205.644   6
   2 -25   2 368.278 298.829   1
  -2 -25  -2 156.013 225.435   2
   2  25   3 333.986 253.299   6
   2 -25   3-20.1175 298.975   1
  -2 -25  -3 164.711 232.527   2
   2 -25   4 183.167 309.198   1
  -2 -25  -4-303.679 230.771   2
   2  25   5 270.281 249.164   6
   2 -25   5 776.419 335.876   1
   2 -25   5 508.572 261.217   7
  -2 -25  -5 277.558 221.709   2
  -2 -25  -6 33.8971 216.326   2
   2  25   6-65.1544 239.081   6
   2 -25   6 549.606 327.268   1
   2 -25   6 402.899 270.903   7
  -2 -25  -7 458.934 238.066   2
   2  25   7 385.919 281.945   6
   2 -25   7 659.146 336.269   1
  -2 -25  -7 618.654 310.986   4
   2 -25   7 552.441 288.213   7
  -2 -26   7 475.845 239.809   2
  -2  26   7 149.646 439.702   3
  -2 -26   7 41.3885 267.965   7
  -2 -26   6 604.274 249.267   2
  -2  26   6 134.248 438.934   3
   2 -26  -6 246.598 308.553   1
  -2 -26   6 47.7377 260.826   7
  -2 -26   5 917.147 264.547   2
  -2  26   5 1126.38 450.666   3
   2 -26  -5 856.222 337.782   1
  -2 -26   5 639.625 283.870   7
  -2 -26   4 227.680 235.619   2
  -2  26   4 993.935 413.772   3
   2 -26  -4 767.015 334.411   1
  -2 -26   4 484.993 262.641   7
   2 -26  -3-247.601 299.252   1
  -2 -26   3 243.906 233.595   2
   2 -26  -2 676.574 324.142   1
  -2 -26   2 1245.34 272.561   2
   2 -26  -1 1112.83 335.868   1
  -2 -26   1 433.341 242.557   2
   2 -26   0 455.240 335.401   1
  -2 -26   0-318.861 240.148   2
   2  26   1 147.993 242.552   6
   2 -26   1 631.729 333.020   1
  -2 -26  -1 140.007 231.066   2
   2  26   2 246.050 223.581   6
  -2 -26  -2 451.798 251.381   2
   2  26   3-108.621 216.876   6
   2 -26   3 396.267 304.373   1
  -2 -26  -3-95.9418 217.602   2
  -2 -26  -4-156.482 222.445   2
   2  26   4-203.248 224.217   6
   2 -26   4-144.676 322.458   1
  -2 -26  -5 1258.63 276.132   2
   2  26   5 792.245 277.267   6
   2 -26   5 972.002 366.226   1
  -2 -27   5 119.925 229.647   2
  -2  27   5-563.438 436.889   3
   2 -27  -5 55.2997 302.775   1
  -2 -27   5 41.8450 265.126   7
  -2 -27   4 1172.84 298.028   2
  -2  27   4 1229.71 464.448   3
   2 -27  -4 656.807 332.159   1
  -2 -27   4 654.916 277.931   7
  -2 -27   3 651.132 254.359   2
   2 -27  -3 203.034 316.494   1
  -2 -27   2 876.079 274.586   2
   2 -27  -2 1090.03 348.433   1
  -2 -27   1 208.117 233.768   2
   2 -27  -1 53.6057 316.205   1
  -2 -27   0 623.778 261.566   2
   2 -27   0 434.939 327.518   1
  -2 -27  -1 471.762 240.246   2
   2 -27   1 804.909 350.142   1
   2  27   2 2063.84 332.557   6
   2 -27   2 2188.32 433.809   1
  -2 -27  -2 3018.37 353.155   2
  -2 -27  -3-33.4393 240.298   2
   2  27   3-454.988 243.309   6
   2 -27   3-537.711 336.399   1
   2 -28  -1 544.162 344.460   1
  -2 -28   1 1449.93 316.304   2
  -2 -28   0 908.357 285.354   2
   2 -28   0 963.434 375.940   1
  -3   0  16 405.159 535.974   3
  -3   0  15 986.035 225.698   7
  -3   0  15 1823.34 592.678   3
  -3   0  14-261.322 180.119   7
  -3   0  14-558.595 449.127   3
  -3   0  13 1588.22 176.660   2
  -3   0  13 1841.12 224.715   7
  -3   0  13 2098.47 479.719   3
  -3   0  12-13.5660 137.107   2
  -3   0  12-218.012 162.879   7
  -3   0  12-274.202 385.824   3
  -3   0  11 2382.90 219.950   2
  -3   0  11 3052.25 499.389   3
  -3   0  11 2477.59 236.076   7
  -3   0  10 95.1490 153.841   2
  -3   0  10 1.59564 150.435   7
  -3   0  10-117.048 352.392   3
  -3   0   9 2860.13 256.846   2
  -3   0   9 2736.05 428.237   3
  -3   0   8 62.1928 153.509   2
  -3   0   8 7.02622 267.465   3
  -3   0   7 3335.49 270.184   2
  -3   0   7 3398.71 359.064   3
   3   0  -6 269.500 183.775   1
   3   0  -6 43.6705 132.578   6
  -3   0   6-290.648 177.276   2
  -3   0   6 1.46107 196.076   3
   3   0  -5 9821.57 379.914   6
  -3   0   5 9666.64 445.631   2
  -3   0   5 9142.94 459.643   3
   3   0  -5 9452.18 422.939   1
   3   0  -4-14.6933 137.144   6
   3   0  -4 89.2208 174.374   1
  -3   0   4 72.1859 71.9568   4
  -3   0   4 56.5270 178.203   3
   3   0  -3 10303.9 402.631   6
  -3   0   3 10182.4 303.754   4
   3   0  -3 9807.00 435.623   1
  -3   0   3 9459.80 395.328   3
  -3   0   2-85.9398 133.054   3
   3   0  -2-39.7757 157.581   6
  -3   0   2 104.724 108.239   4
   3   0  -2 302.480 196.692   1
  -3   0   1-33.8663 121.271   3
   3   0  -1-106.582 160.014   6
  -3   0   1 192.888 129.036   4
   3   0  -1-219.426 200.687   1
   3   0  -1-101.103 144.259   3
   3   0   0-98.5480 178.602   6
   3   0   0 206.528 193.342   1
  -3   0   0 6.92265 136.489   4
   3   0   0 246.756 128.673   3
   3   0   1-32.0432 175.692   6
   3   0   1 232.813 199.248   1
  -3   0  -1 162.599 152.472   4
   3   0   1 84.8359 120.346   3
   3   0   2-131.450 204.949   1
   3   0   2-37.4051 186.175   6
  -3   0  -2 167.370 172.891   4
   3   0   2 295.320 115.825   3
   3   0   3 689.263 135.544   3
   3   0   3 1013.96 232.815   1
   3   0   3 690.825 212.086   6
  -3   0  -3 835.815 208.476   4
   3   0   4 2.71389 133.117   3
   3   0   4-104.521 205.370   6
  -3   0  -4-218.380 179.296   4
   3   0   4 184.861 208.690   1
  -3   0  -5 1594.73 271.900   4
   3   0   5 1486.57 197.186   3
   3   0   5 1371.50 242.680   1
   3   0   5 1488.64 278.883   6
   3   0   6 446.590 232.932   6
   3   0   6 24.8153 146.142   3
  -3   0  -6 67.7147 201.014   4
   3   0   6-253.446 210.557   1
   3   0   7 748.944 260.760   6
  -3   0  -7 839.196 269.664   4
   3   0   7 937.582 257.276   1
   3   0   8-98.1069 252.238   6
  -3   0  -8 17.2065 235.239   4
   3   0   8-109.919 217.820   1
  -3   0  -9 4429.79 460.786   4
   3   0   9 3682.26 388.571   6
   3   0   9 4991.44 393.867   1
   3   0  10-105.877 229.716   1
   3   0  10-67.6093 278.422   6
  -3   0 -10 276.371 275.755   4
  -3   0 -11 1807.61 391.909   4
   3   0  11 1853.57 306.639   1
   3   0  11 2265.21 369.940   6
   3   0  12 188.726 302.368   6
   3   0  12 164.055 254.560   1
  -3   0 -12 5.11718 307.808   4
   3   0  13 123.549 298.033   6
  -3   0 -13-544.387 338.151   4
   3   0  14-395.528 343.649   6
  -3   0 -14-34.5828 330.444   4
  -3  -1  16 448.588 231.375   7
  -3   1  16 224.802 552.047   3
  -3  -1  15-82.7311 190.974   7
  -3  -1  15 381.987 508.064   3
  -3   1  15 1139.77 517.857   3
  -3  -1  14 23.4615 184.261   7
  -3   1  14 80.5687 151.171   7
  -3  -1  14-9.01051 420.100   3
  -3   1  14 497.886 459.222   3
  -3  -1  13 241.648 130.039   2
  -3  -1  13 49.4974 169.043   7
  -3   1  13 68.0900 145.192   7
  -3  -1  13 264.799 420.771   3
  -3   1  13 153.042 397.015   3
  -3  -1  12 992.045 185.381   7
  -3   1  12 1342.83 184.319   2
  -3  -1  12 992.405 166.570   2
  -3   1  12 1226.23 210.391   7
  -3  -1  12 1647.38 475.607   3
  -3   1  12 852.241 414.354   3
  -3  -1  11 1113.39 181.209   2
  -3   1  11 744.388 172.473   2
  -3  -1  11 502.990 168.536   7
  -3   1  11 820.780 180.282   7
  -3  -1  11 1089.69 398.093   3
  -3   1  11 1149.10 415.547   3
  -3   1  10 270.180 170.936   2
  -3  -1  10 224.795 158.850   2
  -3   1  10-20.8472 146.315   7
  -3  -1  10 101.627 350.710   3
  -3   1  10 318.059 319.325   3
  -3   1   9 406.933 172.150   2
  -3  -1   9 59.5056 147.844   2
  -3  -1   9 438.086 313.655   3
  -3   1   9 569.887 346.645   3
  -3   1   8 215.449 171.283   2
  -3  -1   8 238.525 152.858   2
  -3  -1   8-3.85293 244.555   3
  -3   1   8 438.894 278.866   3
  -3   1   7 1622.16 212.630   2
  -3  -1   7 1252.11 189.320   2
   3  -1  -7 1143.04 199.282   1
  -3  -1   7 1220.75 278.058   3
  -3   1   7 1257.76 287.098   3
  -3   1   6 409.405 188.546   2
   3   1  -6 135.150 139.750   6
   3  -1  -6 199.342 175.141   1
  -3  -1   6 443.063 192.983   2
  -3  -1   6 202.936 193.835   3
  -3   1   6 442.841 219.410   3
   3   1  -5 61.3132 145.080   6
   3  -1  -5-194.401 138.983   6
   3  -1  -5 28.1196 169.347   1
  -3   1   5 12.8342 38.7824   4
  -3  -1   5-105.996 172.174   2
   3   1  -5 178.710 177.327   1
  -3  -1   5-185.181 194.855   3
  -3   1   5 235.482 192.800   3
   3  -1  -4 2628.06 224.223   6
   3   1  -4 2457.16 236.502   6
  -3  -1   4 2109.89 258.077   2
  -3   1   4 1952.27 134.301   4
  -3  -1   4 1789.33 109.529   4
   3  -1  -4 2489.91 268.874   1
  -3  -1   4 1868.72 243.046   3
   3   1  -4 2329.67 249.080   1
  -3   1   4 2169.05 250.691   3
   3  -1  -3 1164.18 185.204   6
   3   1  -3 1369.36 199.428   6
  -3  -1   3 1155.88 232.544   2
  -3   1   3 1245.76 142.369   4
  -3  -1   3 1159.47 123.154   4
   3  -1  -3 1731.49 247.772   1
   3  -1  -3 1600.49 245.683   3
   3   1  -3 1442.93 231.847   1
  -3  -1   3 1359.49 200.148   3
  -3   1   3 1350.53 205.878   3
  -3  -1   2 399.911 144.827   3
  -3   1   2 546.427 158.150   3
   3  -1  -2 425.066 153.373   6
   3   1  -2 284.150 153.861   6
   3   1  -2 419.867 197.704   1
   3  -1  -2 645.294 221.938   1
  -3   1   2 466.565 137.274   4
  -3  -1   2 449.210 124.328   4
   3  -1  -2 645.120 194.910   3
  -3  -1   1 263.263 107.814   3
  -3   1   1 277.968 141.980   3
   3  -1  -1-107.747 166.618   6
   3   1  -1 0.45460 161.007   6
   3  -1  -1 415.467 208.637   1
  -3   1   1 101.942 118.951   4
  -3  -1   1 234.667 128.322   4
   3  -1  -1 208.314 167.537   3
   3   1  -1 533.704 203.799   1
  -3   1   0 3572.60 276.379   4
  -3  -1   0 3620.26 270.057   4
   3  -1   0 3537.36 304.772   1
   3   1   0 4606.00 330.693   1
   3  -1   0 4111.29 275.302   3
  -3   1   0 3053.17 192.480   3
   3  -1   0 4037.73 297.256   6
   3   1   0 3837.35 315.380   6
   3  -1   1 662.753 189.229   6
   3   1   1 433.672 180.890   6
  -3   1  -1 405.352 169.616   4
  -3  -1  -1 423.739 158.052   4
   3   1   1 489.231 205.741   1
   3   1   1 361.730 83.4206   3
   3  -1   1 714.834 169.239   3
   3  -1   1 562.743 190.336   1
  -3   1  -2 3800.04 153.518   5
  -3   1  -2 5615.28 364.430   4
  -3  -1  -2 5575.85 363.410   4
   3  -1   2 5500.03 361.972   1
   3   1   2 6164.82 379.573   1
   3  -1   2 5510.38 280.904   3
   3  -1   2 5849.85 365.697   6
   3   1   2 5709.73 367.702   6
   3  -1   3 99.0341 144.775   3
   3  -1   3 135.064 185.918   6
   3   1   3 167.759 204.133   6
   3   1   3 86.4625 193.333   1
  -3   1  -3 250.103 92.9053   5
  -3   1  -3 308.606 182.308   4
  -3  -1  -3-247.520 170.312   4
   3  -1   3-9.30091 198.710   1
   3   1   3 109.740 75.6768   3
  -3   1  -4 2270.03 169.859   5
  -3   1  -4 2077.99 284.718   4
  -3  -1  -4 2032.50 276.028   4
   3  -1   4 2039.86 292.943   1
   3   1   4 2437.27 274.370   1
   3   1   4 1826.88 149.721   3
   3  -1   4 1857.36 208.522   3
   3  -1   4 2108.66 279.321   6
   3   1   4 1946.78 279.945   6
   3  -1   5 1044.26 244.859   6
   3   1   5 1019.97 255.891   6
   3  -1   5 1081.24 204.135   3
   3   1   5 951.968 243.765   1
  -3   1  -5 978.194 154.417   5
  -3   1  -5 1204.22 261.286   4
  -3  -1  -5 724.074 234.039   4
   3  -1   5 1377.82 261.591   1
   3   1   5 1017.59 155.257   3
   3  -1   6 1159.95 269.413   6
   3   1   6 957.469 260.209   6
   3   1   6 1456.33 243.582   1
  -3   1  -6 1235.06 185.756   5
  -3   1  -6 1179.98 272.959   4
  -3  -1  -6 896.841 248.905   4
   3  -1   6 1388.14 249.894   1
   3  -1   6 1137.23 203.873   3
   3   1   6 984.794 159.768   3
   3  -1   7 859.262 262.505   6
   3   1   7 1044.04 264.044   6
  -3   1  -7 1297.51 294.547   4
  -3  -1  -7 1194.04 284.764   4
   3  -1   7 1552.05 279.556   1
   3   1   7 1415.96 276.259   1
  -3   1  -8 3278.67 397.968   4
  -3  -1  -8 3633.51 409.980   4
   3  -1   8 3653.61 339.759   1
   3   1   8 4292.10 360.962   1
   3  -1   8 3469.00 385.453   6
   3   1   8 3757.77 383.961   6
   3  -1   9-16.3453 252.114   6
   3   1   9 276.212 274.982   6
   3   1   9-29.6374 215.161   1
  -3   1  -9-63.0209 275.091   4
  -3  -1  -9-4.20103 246.902   4
   3  -1   9-156.581 224.412   1
  -3   1 -10 2844.08 428.493   4
  -3  -1 -10 2803.21 442.010   4
   3  -1  10 2844.05 350.043   1
   3   1  10 2622.91 318.099   1
   3   1  10 3311.19 408.217   3
   3  -1  10 2258.74 365.258   6
   3   1  10 2612.03 377.726   6
   3  -1  11 524.213 306.667   6
   3   1  11 100.935 271.494   6
   3   1  11-45.2100 248.148   1
  -3   1 -11 330.695 315.200   4
  -3  -1 -11 313.870 296.002   4
  -3  -1 -11 158.577 243.433   2
   3   1  11 527.053 304.920   3
   3  -1  11 481.771 261.419   1
   3  -1  12-370.093 312.713   6
   3   1  12 255.083 280.445   6
  -3   1 -12-478.662 349.009   4
  -3  -1 -12 269.089 314.822   4
   3   1  12 77.3627 233.329   1
   3  -1  12 207.011 258.789   1
   3  -1  13-190.641 304.827   6
   3   1  13 78.1671 330.988   6
  -3   1 -13 637.870 366.780   4
  -3  -1 -13-231.926 296.179   4
   3  -1  14-680.895 358.849   6
   3   1  14-589.432 361.803   6
  -3   1 -14-448.389 343.035   4
  -3  -1 -14 175.521 310.505   4
  -3  -2  16 1033.08 260.541   7
  -3  -2  16 1006.09 570.747   3
  -3  -2  15 270.678 203.488   7
  -3  -2  15-412.349 492.604   3
  -3   2  15 607.747 496.123   3
  -3  -2  14 722.834 211.862   7
  -3   2  14 747.699 187.088   7
  -3  -2  14 807.469 465.440   3
  -3   2  14 728.634 454.233   3
  -3  -2  13 1088.43 153.515   2
  -3   2  13 1031.52 183.547   7
  -3  -2  13 977.545 207.590   7
  -3  -2  13 656.480 423.570   3
  -3   2  13 1183.16 470.334   3
  -3   2  12 1564.55 197.316   2
  -3  -2  12 1975.36 192.799   2
  -3   2  12 1233.78 200.311   7
  -3  -2  12 943.789 191.574   7
  -3  -2  12 1506.28 444.940   3
  -3   2  12 1930.43 483.510   3
  -3   2  11 3719.23 268.495   2
  -3  -2  11 3959.31 252.679   2
  -3  -2  11 4367.77 549.505   3
  -3   2  11 4192.02 562.269   3
  -3  -2  11 3171.13 260.571   7
  -3   2  11 3100.30 245.821   7
  -3   2  10 791.407 197.558   2
  -3  -2  10 749.750 160.739   2
  -3   2  10 757.635 165.371   7
  -3  -2  10 678.651 350.442   3
  -3   2  10 1112.42 397.544   3
  -3   2   9 2284.01 254.546   2
  -3  -2   9 2872.39 235.737   2
  -3  -2   9 3150.03 411.087   3
  -3   2   9 3665.03 474.953   3
  -3   2   8 424.007 297.062   3
  -3   2   8 705.301 191.190   2
  -3  -2   8 128.687 139.858   2
  -3  -2   8 518.818 261.279   3
  -3   2   7 697.383 183.400   2
  -3  -2   7 943.524 182.732   2
  -3  -2   7 1217.33 283.086   3
   3  -2  -7 1091.26 210.745   1
  -3   2   7 1044.75 287.545   3
   3   2  -6 305.780 146.630   6
   3  -2  -6 263.851 173.268   1
  -3  -2   6 240.574 173.526   2
  -3  -2   6 164.597 208.162   3
  -3   2   6 185.010 226.581   3
  -3   2   6 846.528 181.675   6
   3   2  -5 1407.44 190.442   6
   3  -2  -5 1509.66 184.349   6
  -3  -2   5 1451.12 222.648   2
  -3   2   5 764.348 86.5292   4
   3  -2  -5 1259.21 222.024   1
  -3  -2   5 1357.83 236.259   3
  -3   2   5 985.029 165.622   6
  -3   2   5 1064.54 240.807   3
   3  -2  -4 986.764 169.506   6
   3   2  -4 991.042 184.520   6
  -3   2   4 912.974 204.809   3
  -3  -2   4 1139.77 230.335   2
  -3   2   4 1215.67 159.533   5
  -3   2   4 772.823 119.542   4
  -3  -2   4 868.633 81.7585   4
  -3  -2   4 900.033 205.319   3
   3  -2  -4 634.298 197.746   1
   3   2  -4 1050.76 211.336   1
   3  -2  -4 861.392 231.922   3
  -3   2   4 865.984 152.107   6
  -3   2   3 692.882 176.536   3
  -3   2   3 557.816 150.499   6
   3  -2  -3 575.924 160.501   6
   3   2  -3 466.543 152.715   6
  -3   2   3 644.064 117.512   5
  -3   2   3 567.886 133.540   4
  -3  -2   3 839.890 115.483   4
   3   2  -3 740.440 188.230   1
  -3  -2   3 657.753 210.436   2
   3  -2  -3 985.654 239.016   1
   3  -2  -3 822.650 217.673   3
  -3  -2   3 536.121 163.642   3
   3   2  -2 1338.94 214.460   6
  -3  -2   2 728.776 148.602   3
  -3  -2   2 1625.78 250.135   2
  -3   2   2 844.962 94.1104   5
  -3   2   2 1269.45 168.995   4
  -3  -2   2 1328.50 143.467   4
   3  -2  -2 1495.74 249.572   1
   3   2  -2 1357.39 227.442   1
  -3   2   2 1082.54 201.450   3
   3  -2  -2 1160.60 221.300   3
  -3   2   2 1095.77 175.596   6
   3  -2  -2 1185.98 190.134   6
   3  -2  -1 738.551 210.755   1
  -3   2   1 874.329 180.230   3
   3   2  -1 721.745 188.274   6
  -3  -2   1 1002.36 226.691   2
  -3   2   1 982.305 170.655   4
  -3  -2   1 1134.52 158.933   4
   3   2  -1 1030.22 227.115   1
   3  -2  -1 1086.46 224.164   3
  -3  -2   1 830.759 107.410   3
   3  -2  -1 954.507 189.804   6
   3   2   0 763.613 206.649   1
   3  -2   0 426.337 174.523   6
   3   2   0 902.241 219.616   6
  -3   2   0 485.735 125.432   3
  -3   2   0 454.954 154.537   4
  -3  -2   0 592.224 156.087   4
   3  -2   0 846.821 227.150   1
   3  -2   0 733.191 195.490   3
  -3   2  -1 1623.70 228.262   4
  -3  -2  -1 1816.84 239.307   4
   3  -2   1 1959.51 271.942   1
   3   2   1 1916.73 250.794   1
   3  -2   1 1979.85 226.132   3
   3  -2   1 1656.41 234.079   6
   3   2   1 2065.64 257.986   6
   3  -2   2 315.436 162.711   3
   3  -2   2 537.592 201.415   6
   3   2   2 889.333 225.790   6
  -3   2  -2 507.446 179.876   4
  -3  -2  -2 701.318 193.074   4
   3  -2   2 956.123 238.156   1
   3   2   2 286.207 204.922   1
  -3   2  -3 2510.42 295.198   4
  -3  -2  -3 2703.36 296.666   4
   3  -2   3 2754.81 302.620   1
   3   2   3 2611.11 277.759   1
   3  -2   3 1913.39 217.868   3
   3  -2   3 1994.88 273.716   6
   3   2   3 2204.17 266.208   6
   3   2   4 95.2358 60.1798   3
   3  -2   4-291.096 189.076   3
   3  -2   4-29.4771 185.333   6
   3   2   4 180.587 213.974   6
  -3   2  -4 119.332 126.716   5
  -3   2  -4 201.112 192.385   4
  -3  -2  -4 362.302 207.885   4
   3   2   4 110.070 197.718   1
   3  -2   4 411.659 213.695   1
   3   2   4 114.192 63.8000   3
   3  -2   5 314.896 220.745   6
   3   2   5 430.696 237.924   6
   3   2   5 121.633 104.968   3
   3  -2   5 212.406 189.826   3
  -3   2  -5 232.039 145.159   5
  -3   2  -5 184.068 209.793   4
   3   2   5 205.594 194.482   1
  -3  -2  -5-50.4283 202.686   4
   3  -2   5 323.560 219.991   1
   3   2   5 246.205 111.193   3
   3   2   6 1538.32 269.837   6
  -3   2  -6 1708.07 208.206   5
  -3   2  -6 1353.00 289.531   4
  -3  -2  -6 2169.13 324.328   4
   3  -2   6 1602.99 278.979   1
   3   2   6 1904.72 282.823   1
   3   2   6 1801.52 201.299   3
   3  -2   6 1354.53 228.080   3
   3   2   6 1327.05 145.726   3
   3  -2   6 1715.89 299.200   6
   3  -2   7-17.0504 223.696   6
   3   2   7 78.3604 226.967   6
  -3   2  -7-155.761 161.222   5
   3   2   7 90.1717 210.433   1
  -3   2  -7 250.804 252.897   4
  -3  -2  -7 104.094 248.414   4
   3  -2   7-111.553 211.670   1
   3   2   7 4.42726 193.258   3
  -3  -2  -8 3805.99 358.623   2
  -3   2  -8 3894.97 297.864   5
  -3   2  -8 3504.00 417.088   4
  -3  -2  -8 4365.10 446.754   4
   3  -2   8 3877.45 359.242   1
   3   2   8 4152.82 346.543   1
   3   2   8 4272.16 354.698   3
   3  -2   8 3393.06 377.749   6
   3   2   8 3354.84 382.318   6
   3  -2   9 336.199 264.326   6
   3   2   9 373.533 258.195   6
  -3   2  -9 232.528 192.131   5
  -3   2  -9 121.317 268.742   4
  -3  -2  -9 26.9277 273.353   4
   3   2   9-53.4104 217.389   1
  -3  -2  -9 263.697 239.554   2
   3  -2   9 459.345 242.041   1
   3   2   9 832.846 271.889   3
   3  -2  10 681.636 285.525   6
   3   2  10 757.020 293.904   6
  -3   2 -10 588.620 315.496   4
  -3  -2 -10 417.561 265.727   4
  -3  -2 -10 503.576 251.250   2
   3   2  10 745.059 252.684   1
   3  -2  10 443.456 237.308   1
   3   2  10 294.765 269.871   3
   3  -2  11 251.380 271.459   6
   3   2  11-427.040 304.318   6
  -3   2 -11 245.205 298.981   4
  -3  -2 -11 316.173 302.353   4
  -3  -2 -11 169.088 225.844   2
   3  -2  11 148.062 248.510   1
   3   2  11 299.421 229.057   1
   3   2  12 1515.94 362.956   6
  -3   2 -12 1292.21 379.133   4
  -3  -2 -12 1504.29 379.898   4
   3  -2  12 1913.37 326.962   1
   3   2  12 1790.35 282.987   1
   3  -2  12 2175.27 388.511   6
   3  -2  13 220.223 315.696   6
   3   2  13-411.127 334.538   6
  -3   2 -13-329.393 348.196   4
  -3  -2 -13 72.3156 304.684   4
   3  -2  13 539.724 268.810   1
   3  -2  14 2223.24 418.445   6
  -3  -2 -14 2011.03 448.436   4
  -3   2 -14 1852.21 475.886   4
   3   2  14 2015.95 428.908   6
  -3  -3  16 755.755 242.257   7
  -3  -3  16 1968.11 588.668   3
  -3   3  16 1577.44 587.927   3
  -3  -3  15 495.954 239.528   7
  -3  -3  15 672.556 492.937   3
  -3   3  15-154.217 488.101   3
  -3  -3  14 426.338 217.472   7
  -3   3  14 186.553 447.937   3
  -3  -3  13 532.075 137.128   2
  -3  -3  13 270.899 206.400   7
  -3   3  13 415.920 161.754   7
  -3  -3  13 669.874 455.630   3
  -3   3  13 460.140 404.978   3
  -3  -3  12 765.312 158.831   2
  -3   3  12 158.519 145.570   2
  -3   3  12 53.1602 146.745   7
  -3  -3  12 454.073 192.449   7
  -3  -3  12 678.193 421.386   3
  -3   3  12 264.635 406.725   3
  -3   3  11 122.530 166.044   2
  -3  -3  11-33.3288 130.441   2
  -3  -3  11-107.834 166.493   7
  -3   3  11-162.520 157.586   7
  -3  -3  11 13.0366 328.183   3
  -3   3  11 113.426 370.926   3
  -3   3  10 894.556 386.268   3
  -3   3  10 415.999 175.678   2
  -3  -3  10 647.924 158.379   2
  -3   3  10 295.330 139.474   7
  -3  -3  10 795.525 325.781   3
  -3   3   9 779.525 208.581   2
  -3  -3   9 758.536 157.993   2
  -3  -3   9 850.482 286.308   3
  -3   3   9 1071.36 348.117   3
  -3   3   8 647.522 196.927   2
   3  -3  -8 444.569 182.979   1
  -3  -3   8 503.464 152.192   2
  -3  -3   8 573.801 253.828   3
  -3   3   8 272.889 281.566   3
  -3  -3   7 3784.63 273.029   2
  -3  -3   7 3863.28 377.999   3
   3  -3  -7 3658.43 294.293   1
  -3   3   7 3261.00 396.364   3
  -3   3   7 3204.17 248.923   6
   3   3  -6 1555.35 201.100   6
   3  -3  -6 1191.37 213.921   1
  -3   3   6 1258.88 194.578   5
  -3  -3   6 1498.38 214.547   2
  -3   3   6 559.379 59.0134   4
  -3  -3   6 1309.07 271.735   3
  -3   3   6 1537.40 305.811   3
  -3   3   6 1320.71 175.827   6
   3   3  -5 5020.90 304.421   6
   3  -3  -5 4557.97 253.242   6
  -3  -3   5 4419.60 312.443   2
  -3   3   5 4235.98 254.521   5
   3  -3  -5 4527.98 328.328   1
  -3  -3   5 4495.26 349.404   3
  -3   3   5 3460.58 352.242   3
  -3   3   5 4124.72 252.876   6
   3  -3  -4 1092.94 167.276   6
   3   3  -4 1258.44 201.946   6
  -3   3   4 1142.51 234.914   3
  -3  -3   4 969.644 206.839   3
  -3   3   4 685.130 136.144   6
  -3   3   4 1093.99 154.440   5
   3  -3  -4 1079.60 228.985   1
  -3  -3   4 854.613 81.0612   4
  -3  -3   4 1033.86 211.735   2
   3  -3  -4 1142.71 264.301   3
  -3   3   3-10.8774 174.808   3
  -3   3   3 198.179 114.847   6
   3  -3  -3 586.535 209.133   1
   3  -3  -3 364.544 146.610   6
   3   3  -3 326.758 165.732   6
   3   3  -3 403.554 191.062   1
  -3  -3   3 193.668 183.441   2
  -3  -3   3 348.884 99.6998   4
   3  -3  -3 193.908 206.427   3
  -3  -3   3 560.022 168.737   3
   3   3  -2 3001.63 269.837   6
  -3  -3   2 3035.21 295.578   2
  -3  -3   2 3157.84 196.192   4
   3  -3  -2 3151.21 307.386   1
   3  -3  -2 2977.93 314.349   3
   3   3  -2 3667.78 294.528   1
  -3  -3   2 2961.47 198.614   3
  -3   3   2 2629.90 258.577   3
  -3   3   2 2876.81 229.179   6
   3  -3  -2 2982.79 242.620   6
  -3  -3   1 1881.03 255.897   2
  -3  -3   1 1806.06 177.108   4
   3  -3  -1 1531.93 253.738   1
   3  -3  -1 2380.19 280.895   3
   3   3  -1 1660.05 232.626   1
  -3  -3   1 1631.81 115.866   3
  -3   3   1 1824.12 225.954   3
  -3   3   1 1987.03 211.905   6
   3  -3  -1 2064.96 225.922   6
   3   3  -1 1769.17 235.097   6
   3  -3   0-143.712 165.387   6
   3   3   0 98.0509 174.232   6
  -3   3   0-23.4275 125.361   3
  -3  -3   0 63.9887 125.311   4
   3   3   0-39.7002 177.890   1
  -3  -3   0 24.2247 204.500   2
   3  -3   0 79.5572 191.478   1
   3  -3   0 148.809 183.163   3
  -3  -3  -1 13230.4 528.532   2
  -3  -3  -1 12385.6 455.439   4
   3  -3   1 12232.4 525.604   1
   3   3   1 13612.3 513.823   1
   3  -3   1 11150.7 448.876   3
   3  -3   1 12121.3 468.552   6
   3   3   1 13183.7 534.029   6
   3  -3   2 809.653 208.026   3
   3  -3   2 715.410 210.059   6
   3   3   2 911.494 221.381   1
   3   3   2 669.445 206.582   6
  -3   3  -2 650.903 192.083   4
  -3  -3  -2 970.144 198.958   4
   3  -3   2 761.153 227.697   1
  -3  -3  -2 931.421 246.419   2
  -3  -3  -3 1656.35 258.892   2
  -3   3  -3 1531.92 256.783   4
  -3  -3  -3 2266.62 266.057   4
   3  -3   3 1894.70 274.371   1
   3   3   3 2061.91 258.401   1
   3  -3   3 1462.90 219.820   3
   3  -3   3 1883.48 251.137   6
   3   3   3 1563.00 254.584   6
   3  -3   4-41.2304 194.879   6
   3  -3   4-102.637 185.552   3
   3   3   4 199.889 207.238   6
  -3  -3  -4 253.304 223.418   2
  -3   3  -4-58.5562 208.313   4
   3  -3   4 156.048 211.786   1
  -3  -3  -4 53.8264 184.606   4
   3   3   4 126.648 198.786   1
  -3  -3  -5 3974.76 352.418   2
  -3   3  -5 3236.37 365.373   4
  -3  -3  -5 4093.28 372.827   4
   3  -3   5 3493.38 339.131   1
   3   3   5 4592.90 347.010   1
   3   3   5 2910.93 153.245   3
   3   3   5 2879.62 129.697   3
   3  -3   5 3623.12 308.501   3
   3  -3   5 2986.36 310.096   6
   3   3   5 3560.80 355.012   6
   3  -3   6 8.20822 205.609   6
   3   3   6-152.123 215.014   6
   3  -3   6 250.170 196.960   3
   3   3   6 12.5164 91.2266   3
  -3   3  -6 154.081 160.948   5
   3  -3   6 322.303 218.446   1
  -3   3  -6-28.4257 208.917   4
  -3  -3  -6 210.698 216.414   4
  -3  -3  -6-66.8664 220.535   2
   3   3   6-89.7697 196.594   1
   3   3   6-2.64432 130.296   3
  -3  -3  -7 2420.90 322.269   2
  -3   3  -7 1982.22 243.134   5
  -3   3  -7 2590.96 368.253   4
  -3  -3  -7 2488.97 344.633   4
   3  -3   7 2485.65 322.855   1
   3   3   7 2090.20 264.824   1
   3   3   7 3378.73 276.000   3
   3  -3   7 2105.14 309.133   6
   3   3   7 2313.57 334.155   6
   3  -3   8 445.929 250.207   6
   3   3   8 697.036 259.921   6
  -3   3  -8 1077.21 226.168   5
  -3  -3  -8 1308.32 312.799   4
   3  -3   8 487.302 247.134   1
  -3   3  -8 917.568 302.057   4
  -3  -3  -8 786.790 243.314   2
   3   3   8 959.661 243.554   1
   3   3   8 797.375 241.119   3
   3  -3   9 27.0873 245.096   6
   3   3   9-27.9076 265.759   6
  -3   3  -9 202.142 199.852   5
   3  -3   9 288.317 237.897   1
  -3   3  -9-170.974 251.790   4
  -3  -3  -9 33.4957 242.063   4
  -3  -3  -9 130.485 232.563   2
   3   3   9 344.142 252.142   3
   3   3   9-69.7946 203.534   1
   3  -3  10 92.2570 261.509   6
   3   3  10-308.373 269.792   6
  -3   3 -10 146.673 229.349   5
  -3   3 -10-283.117 302.516   4
   3  -3  10-16.5623 238.329   1
  -3  -3 -10 393.722 286.905   4
  -3  -3 -10-33.2493 233.196   2
   3   3  10 490.808 294.264   3
   3   3  10 450.207 226.392   1
   3  -3  11 256.921 258.769   6
   3   3  11 408.164 307.822   6
   3   3  11 200.126 216.516   1
  -3   3 -11 61.4841 229.438   5
  -3   3 -11 9.66752 307.652   4
  -3  -3 -11 573.712 300.610   4
   3  -3  11-36.8891 239.140   1
  -3  -3 -11 414.790 229.659   2
   3  -3  12 107.267 279.717   6
   3   3  12-149.923 310.644   6
   3   3  12-548.610 243.973   1
  -3   3 -12 401.967 325.772   4
  -3  -3 -12 174.754 297.039   4
   3  -3  12 95.2608 251.171   1
   3  -3  13 753.187 332.607   6
   3   3  13 229.002 325.189   6
  -3   3 -13 1059.76 395.498   4
   3  -3  13 427.878 259.891   1
   3  -3  14 372.720 325.350   6
   3   3  14 55.0738 314.408   6
  -3   3 -14-275.942 343.418   4
  -3  -3 -14-475.544 378.054   4
  -3  -4  16 359.018 231.281   7
  -3  -4  16 289.789 507.382   3
  -3   4  16 1319.08 593.913   3
  -3  -4  15 1244.33 266.091   7
  -3  -4  15 2114.07 591.999   3
  -3   4  15 1041.69 530.402   3
  -3  -4  14 45.8866 199.586   7
  -3  -4  14-472.127 465.348   3
  -3  -4  13 208.016 132.856   2
  -3  -4  13 353.072 200.266   7
  -3  -4  13 579.179 449.884   3
  -3   4  13 194.329 408.548   3
  -3   4  12 508.036 176.367   2
  -3  -4  12 686.618 145.566   2
  -3  -4  12 683.526 197.135   7
  -3   4  12 732.498 163.811   7
  -3  -4  12 802.654 406.200   3
  -3   4  12 963.697 438.211   3
  -3  -4  11 853.657 159.151   2
  -3   4  11 783.009 189.073   2
  -3   4  11 855.408 180.199   7
  -3  -4  11 648.631 189.765   7
  -3  -4  11 515.781 318.402   3
  -3   4  11 750.129 407.164   3
  -3   4  10 648.362 150.080   7
  -3   4  10 652.683 208.639   2
  -3  -4  10 692.078 151.590   2
  -3  -4  10 535.155 313.783   3
  -3   4  10 828.308 375.891   3
  -3   4   9 1902.27 241.479   2
  -3  -4   9 2026.04 200.681   2
  -3  -4   9 1805.81 338.057   3
  -3   4   9 1874.37 412.901   3
   3  -4  -9 2419.63 241.182   1
  -3  -4   8 3463.85 250.067   2
  -3  -4   8 4048.44 410.763   3
   3  -4  -8 3435.93 279.604   1
  -3   4   8 3573.83 459.346   3
  -3   4   8 2591.03 223.180   6
  -3   4   7 33.5344 139.470   6
   3  -4  -7-35.6547 175.091   1
  -3   4   7 81.0748 51.5424   4
  -3  -4   7 1.51530 159.431   2
  -3  -4   7 3.61857 234.245   3
  -3   4   7-238.331 287.247   3
   3   4  -6 5541.40 316.077   6
  -3   4   6 4465.52 289.103   5
  -3  -4   6 4937.02 314.302   2
  -3   4   6 3323.71 142.812   4
   3  -4  -6 5039.15 341.522   1
  -3  -4   6 5299.53 385.837   3
  -3   4   6 4320.12 423.108   3
  -3   4   6 4345.13 252.052   6
  -3   4   5 874.132 269.904   3
   3   4  -5 1327.19 203.790   6
   3  -4  -5 1292.82 155.375   6
  -3  -4   5 1619.42 232.840   2
  -3   4   5 1330.05 184.072   5
   3  -4  -5 1064.90 224.952   1
  -3  -4   5 1556.59 256.319   3
  -3   4   5 1386.79 178.653   6
   3  -4  -4 2459.50 198.398   6
   3   4  -4 2100.26 230.495   6
  -3  -4   4 1947.10 235.541   2
  -3  -4   4 2143.91 114.910   4
   3  -4  -4 2223.79 275.792   1
  -3  -4   4 2203.07 248.744   3
  -3   4   4 1611.54 261.768   3
  -3   4   4 1790.02 174.305   6
  -3   4   3 609.339 207.712   3
   3  -4  -3 561.156 156.044   6
   3   4  -3 784.202 197.905   6
  -3  -4   3 816.072 110.523   4
  -3  -4   3 825.384 209.659   2
   3  -4  -3 484.815 237.372   3
   3  -4  -3 778.760 220.532   1
  -3  -4   3 1011.44 180.120   3
  -3   4   3 722.151 148.317   6
   3   4  -2 1696.75 216.696   6
  -3  -4   2 1865.10 248.896   2
  -3  -4   2 1836.40 163.318   4
   3  -4  -2 1986.74 273.871   1
   3  -4  -2 1704.08 277.397   3
  -3  -4   2 1689.29 168.290   3
   3   4  -2 2205.61 245.385   1
  -3   4   2 1590.55 241.957   3
  -3   4   2 1818.95 198.805   6
   3  -4  -2 1707.83 197.626   6
  -3   4   1 69.1987 140.769   6
  -3  -4   1 113.860 57.2170   3
  -3   4   1 160.179 169.977   3
   3  -4  -1 102.891 152.366   6
   3   4  -1-46.2908 180.413   6
   3   4  -1-130.892 170.065   1
  -3  -4   1 74.4964 112.246   4
  -3  -4   1 205.643 194.130   2
   3  -4  -1 188.576 198.242   1
   3  -4  -1-13.9331 199.994   3
   3  -4   0 1389.64 246.488   3
  -3   4   0 886.786 155.084   3
  -3  -4   0 1460.67 249.801   2
  -3  -4   0 1173.29 172.922   4
   3  -4   0 950.649 228.052   1
   3   4   0 1547.09 224.955   1
   3  -4   0 1268.58 198.422   6
   3   4   0 1289.03 219.489   6
   3  -4   1 153.878 204.705   3
   3   4   1 18.4464 179.746   1
   3  -4   1 156.069 154.822   6
   3   4   1 169.599 193.998   6
   3  -4   1 207.056 208.486   1
  -3  -4  -1 6.09249 134.072   4
  -3  -4  -1-17.1631 198.061   2
   3  -4   2 242.563 184.521   3
   3  -4   2 261.134 173.937   6
   3   4   2 53.8565 200.416   6
   3  -4   2 88.1146 194.896   1
  -3  -4  -2 184.558 154.118   4
  -3  -4  -2 441.394 212.995   2
   3   4   2 246.692 183.443   1
   3  -4   3-229.573 210.990   3
   3  -4   3-133.874 172.047   6
   3   4   3 31.0627 210.195   6
   3  -4   3-206.043 200.150   1
   3   4   3 5.17030 194.235   1
  -3  -4  -3 45.2222 157.296   4
  -3  -4  -3-244.064 223.778   2
  -3  -4  -4 7619.91 430.732   2
  -3   4  -4 6953.15 461.234   4
  -3  -4  -4 7553.89 434.299   4
   3  -4   4 6915.45 409.721   1
   3   4   4 8039.60 411.490   1
   3  -4   4 6020.33 356.398   3
   3  -4   4 7157.45 423.396   6
   3   4   4 7387.71 451.374   6
   3  -4   5 155.206 207.086   6
   3   4   5 391.649 226.397   6
   3  -4   5 716.247 232.476   3
   3   4   5 344.024 210.128   1
   3  -4   5 379.732 211.735   1
  -3   4  -5 334.513 228.791   4
  -3  -4  -5 587.405 231.376   4
  -3  -4  -5 345.458 217.820   2
  -3  -4  -6 6795.50 415.303   2
  -3   4  -6 6350.82 489.932   4
  -3  -4  -6 7011.58 464.848   4
   3  -4   6 5192.71 371.444   1
   3   4   6 7373.32 402.649   1
   3   4   6 6242.10 252.198   3
   3   4   6 5104.93 183.864   3
   3  -4   6 6307.62 431.815   6
   3   4   6 6054.96 444.544   6
  -3  -4  -7 2979.07 325.027   2
  -3   4  -7 2192.82 257.595   5
  -3   4  -7 2472.14 372.350   4
  -3  -4  -7 2324.51 338.251   4
   3  -4   7 2646.23 313.887   1
   3   4   7 3267.71 312.292   1
   3   4   7 2957.61 245.666   3
   3  -4   7 2090.25 311.232   6
   3   4   7 2405.23 329.582   6
   3  -4   8 1109.32 289.832   6
   3   4   8 1104.91 236.800   1
  -3   4  -8 777.479 216.538   5
   3  -4   8 443.968 222.583   1
  -3   4  -8 1040.43 302.939   4
  -3  -4  -8 908.238 287.332   4
  -3  -4  -8 1009.97 259.679   2
   3   4   8 1576.10 259.825   3
   3   4   8 1372.35 306.733   6
   3  -4   9 592.450 269.228   6
   3   4   9-410.852 269.834   6
  -3   4  -9-320.473 228.100   5
   3   4   9 117.184 200.620   1
   3  -4   9-170.534 222.424   1
  -3   4  -9 37.3373 260.532   4
  -3  -4  -9 319.999 272.014   4
  -3  -4  -9 130.383 222.038   2
   3   4   9 238.848 245.528   3
   3  -4  10 998.912 308.784   6
   3   4  10 1022.64 323.402   6
  -3   4 -10 878.007 262.142   5
   3  -4  10 994.071 273.225   1
   3   4  10 944.434 247.704   1
  -3   4 -10 843.518 331.716   4
  -3  -4 -10 571.985 290.279   4
  -3  -4 -10 1216.13 257.264   2
   3  -4  11 221.722 265.626   6
   3   4  11 191.088 268.967   6
  -3   4 -11 321.966 233.291   5
   3  -4  11 363.136 244.169   1
  -3   4 -11 169.077 298.251   4
  -3  -4 -11 421.603 296.659   4
  -3  -4 -11 135.276 223.699   2
   3   4  11 318.325 214.523   1
   3  -4  12-665.986 331.676   6
   3   4  12-379.703 314.617   6
  -3   4 -12 169.344 246.066   5
  -3   4 -12-125.915 295.502   4
   3  -4  12 575.230 283.263   1
  -3  -4 -12 138.372 284.725   4
   3  -4  13 248.380 298.872   6
   3   4  13 1141.29 344.158   6
  -3   4 -13 213.782 311.129   4
  -3  -4 -13 432.195 312.881   4
   3  -4  13 115.544 274.159   1
   3  -4  14 1949.50 404.284   6
  -3   4 -14 2555.68 487.271   4
  -3  -4 -14 2923.79 476.996   4
   3   4  14 2869.73 455.654   6
  -3  -5  16 157.489 239.279   7
  -3  -5  16 411.635 485.547   3
  -3   5  16-393.439 560.190   3
  -3  -5  15-124.731 214.531   7
  -3  -5  15 706.185 500.957   3
  -3   5  15 487.659 506.396   3
  -3  -5  14-409.629 231.236   7
  -3  -5  14-11.6703 415.017   3
  -3   5  14-458.797 489.582   3
  -3  -5  13 350.463 130.632   2
  -3  -5  13 199.276 192.334   7
  -3  -5  13 330.084 375.774   3
  -3   5  13 343.334 416.830   3
  -3   5  12 241.446 165.721   2
  -3  -5  12-33.9507 114.014   2
  -3  -5  12 52.6574 182.691   7
  -3   5  12 230.290 148.642   7
  -3  -5  12 72.8612 359.513   3
  -3   5  12 5.31768 376.780   3
  -3   5  11 395.156 189.153   2
  -3  -5  11-124.571 126.530   2
  -3  -5  11-102.199 179.666   7
  -3   5  11 94.0979 138.237   7
  -3  -5  11 399.260 331.938   3
  -3   5  11-76.5861 372.546   3
  -3   5  10 3294.00 295.932   2
  -3  -5  10 3693.63 237.230   2
  -3  -5  10 3660.90 445.587   3
  -3   5  10 3243.53 491.978   3
  -3   5  10 2823.82 203.009   7
  -3  -5   9 10559.0 388.132   2
  -3  -5   9 10742.9 620.642   3
  -3   5   9 9460.93 656.432   3
   3  -5  -9 10174.2 425.537   1
  -3  -5   8 4050.40 267.332   2
  -3  -5   8 3784.19 392.341   3
   3  -5  -8 3753.86 299.972   1
  -3   5   8 3743.54 458.953   3
  -3   5   8 3274.63 232.744   6
  -3   5   7 235.423 135.482   6
  -3   5   7 134.163 72.4789   4
  -3  -5   7 105.921 149.212   2
   3  -5  -7 466.641 186.671   1
  -3  -5   7 276.262 229.720   3
  -3   5   7 653.469 311.429   3
   3   5  -6 10062.1 422.903   6
  -3   5   6 8467.53 380.244   5
  -3  -5   6 10114.0 407.917   2
   3  -5  -6 9603.65 450.195   1
  -3  -5   6 10108.0 506.355   3
  -3   5   6 8777.79 542.860   3
  -3   5   6 8254.11 322.339   6
   3   5  -5 1732.97 226.921   6
   3  -5  -5 1886.26 163.235   6
  -3  -5   5 1867.73 225.134   2
   3  -5  -5 1704.06 255.780   1
  -3  -5   5 1758.98 262.550   3
  -3   5   5 1757.52 309.914   3
  -3   5   5 1450.34 172.848   6
  -3   5   4 395.229 223.836   3
  -3   5   4 464.990 123.930   6
   3  -5  -4 607.586 139.874   6
   3   5  -4 519.162 180.249   6
  -3  -5   4 566.161 81.6996   4
  -3  -5   4 678.473 199.487   2
   3  -5  -4 447.808 218.126   1
  -3  -5   4 548.281 193.286   3
   3  -5  -3 4390.88 249.470   6
   3   5  -3 5257.72 345.274   6
  -3  -5   3 5652.65 358.681   2
  -3  -5   3 5062.50 204.351   4
   3  -5  -3 5055.57 365.644   1
  -3  -5   3 5262.65 284.708   3
  -3   5   3 3483.68 319.286   3
  -3   5   3 4068.90 247.810   6
   3   5  -2 3967.00 303.894   6
  -3  -5   2 3975.11 306.315   2
  -3  -5   2 3991.85 214.436   4
   3  -5  -2 4087.77 332.993   1
   3  -5  -2 3275.72 346.102   3
  -3  -5   2 3532.73 194.006   3
  -3   5   2 2967.70 279.661   3
  -3   5   2 3542.53 238.921   6
   3  -5  -2 3488.18 241.566   6
  -3   5   1 196.429 139.590   6
   3  -5  -1 66.1187 146.703   6
  -3   5   1-37.8684 175.797   3
   3   5  -1 382.963 179.147   6
   3  -5  -1 394.438 201.851   1
  -3  -5   1 100.786 119.090   4
  -3  -5   1 440.669 203.966   2
   3  -5  -1-41.5599 218.382   3
   3  -5   0 365.293 163.431   6
   3   5   0 305.086 195.266   6
  -3   5   0 258.842 142.307   3
   3  -5   0 120.249 196.484   1
  -3  -5   0 375.176 137.097   4
  -3  -5   0 426.792 188.776   2
   3   5   0 458.942 188.888   1
   3  -5   0 215.331 221.721   3
  -3  -5  -1 4227.82 325.029   2
  -3  -5  -1 3682.65 271.761   4
   3  -5   1 2968.68 291.196   1
   3  -5   1 3288.73 320.557   3
   3   5   1 3847.61 307.959   1
   3  -5   1 3835.93 294.914   6
   3   5   1 3831.21 329.163   6
  -3  -5  -2 2685.06 286.057   2
  -3  -5  -2 2821.62 266.733   4
   3  -5   2 2495.15 289.927   1
   3  -5   2 2280.12 255.702   6
   3   5   2 2511.93 265.282   1
   3  -5   2 2583.20 290.524   3
   3   5   2 2714.13 300.238   6
   3  -5   3-221.950 207.248   3
   3  -5   3 178.932 186.636   6
   3   5   3-193.521 193.416   6
   3  -5   3 128.365 191.309   1
   3   5   3-86.6225 185.048   1
  -3  -5  -3-134.097 167.537   4
  -3  -5  -3-199.702 205.155   2
   3  -5   4-45.2149 189.135   6
   3   5   4-19.8616 186.624   1
   3  -5   4 231.057 210.100   3
   3   5   4 317.526 225.074   6
   3  -5   4-28.2550 210.941   1
  -3  -5  -4-214.260 179.063   4
  -3  -5  -4 95.9847 209.965   2
   3  -5   5-138.773 189.668   6
   3   5   5 140.487 245.205   6
   3  -5   5 273.834 209.832   1
  -3  -5  -5-217.566 187.521   4
  -3  -5  -5 293.148 225.343   2
   3   5   5 243.412 185.478   1
   3  -5   6 106.900 215.611   6
   3   5   6 157.476 256.130   6
   3   5   6 98.5527 58.6149   3
   3  -5   6 273.714 214.967   1
  -3   5  -6 190.244 227.629   4
  -3  -5  -6 14.5225 203.848   4
  -3  -5  -6-126.612 215.415   2
   3   5   6-116.394 189.526   1
   3   5   6 31.5789 78.4666   3
  -3  -5  -7 5612.02 385.721   2
  -3   5  -7 4667.90 462.860   4
  -3  -5  -7 5396.98 439.097   4
   3  -5   7 5005.00 391.752   1
   3   5   7 5949.79 288.855   3
   3   5   7 6041.35 379.744   1
   3  -5   7 4131.49 389.864   6
   3   5   7 4809.97 409.051   6
  -3  -5  -8 2506.37 313.427   2
  -3   5  -8 1936.86 370.026   4
  -3  -5  -8 1880.79 338.742   4
   3  -5   8 1811.02 280.203   1
   3   5   8 2437.38 271.513   3
   3   5   8 2331.71 272.670   1
   3  -5   8 1998.70 331.626   6
   3   5   8 1916.93 337.529   6
   3  -5   9-52.1237 252.445   6
   3   5   9 83.5781 262.149   6
   3   5   9 125.647 203.608   1
   3  -5   9-35.5877 221.422   1
  -3   5  -9 177.475 217.674   5
  -3   5  -9-8.69289 270.749   4
  -3  -5  -9-79.7420 234.397   4
  -3  -5  -9 437.045 219.865   2
   3  -5  10 337.715 276.281   6
   3   5  10 435.657 285.529   6
  -3   5 -10 741.837 267.558   5
   3  -5  10 92.7678 237.153   1
   3   5  10 1069.90 236.765   1
  -3   5 -10 156.725 274.825   4
  -3  -5 -10 943.873 320.081   4
  -3  -5 -10 719.875 215.844   2
   3  -5  11 255.205 271.446   6
   3   5  11 77.0585 287.828   6
  -3   5 -11-48.8145 249.097   5
   3  -5  11 136.378 237.651   1
  -3   5 -11-303.194 313.209   4
  -3  -5 -11 144.732 288.244   4
  -3  -5 -11-294.386 217.646   2
   3   5  11-63.2212 209.229   1
   3  -5  12 410.089 297.694   6
   3   5  12 469.980 332.741   6
  -3   5 -12 44.5477 255.371   5
   3  -5  12 701.028 284.979   1
  -3   5 -12 598.068 317.420   4
  -3  -5 -12 819.254 333.321   4
   3  -5  13 368.552 329.145   6
   3   5  13 361.102 310.846   6
  -3   5 -13 261.125 274.342   5
   3  -5  13 538.176 267.719   1
  -3   5 -13-70.4969 315.410   4
  -3  -5 -13 653.011 350.392   4
   3  -5  14-5.99584 310.677   6
   3   5  14 722.959 377.446   6
  -3   5 -14 245.328 336.397   4
  -3  -5 -14-286.669 319.860   4
  -3  -6  16-28.7893 235.011   7
  -3  -6  16 86.2715 498.409   3
  -3   6  16 632.727 563.988   3
  -3  -6  15-119.660 247.384   7
  -3  -6  15 276.301 474.505   3
  -3   6  15 154.009 516.143   3
  -3  -6  14-129.597 226.423   7
  -3  -6  14-773.785 462.221   3
  -3  -6  13 467.325 221.480   7
  -3  -6  13 303.779 116.392   2
  -3  -6  13-2.56629 372.787   3
  -3   6  13-268.781 428.532   3
  -3   6  12-10.7553 158.694   2
  -3  -6  12 26.3889 119.856   2
  -3  -6  12-397.521 207.056   7
  -3  -6  12-230.510 356.327   3
  -3   6  12 123.412 425.312   3
  -3   6  11 3166.84 295.357   2
  -3  -6  11 4434.44 246.949   2
  -3  -6  11 4129.82 498.770   3
  -3  -6  11 3374.61 303.684   7
  -3   6  11 3749.57 538.530   3
  -3   6  11 3154.46 207.976   7
  -3  -6  10 2188.93 199.429   2
  -3   6  10 1630.45 174.097   7
   3  -6 -10 1762.36 225.142   1
  -3  -6  10 1834.19 347.940   3
  -3   6  10 1821.96 444.538   3
   3   6  -9 24.2649 194.247   5
  -3  -6   9 294.774 142.963   2
  -3   6   9-67.5864 116.072   7
  -3  -6   9-72.4696 231.954   3
   3  -6  -9 250.101 172.596   1
  -3   6   9 38.6304 323.465   3
   3  -6  -8 3.06916 175.297   1
  -3   6   8 267.169 128.298   6
   3   6  -8 270.838 189.842   5
  -3  -6   8 201.842 148.897   2
  -3  -6   8 199.266 257.702   3
  -3   6   8 164.693 301.913   3
   3   6  -7 7577.93 352.866   5
  -3  -6   7 7363.81 345.230   2
  -3   6   7 4465.06 198.352   4
   3  -6  -7 6990.86 396.205   1
  -3  -6   7 6785.17 460.817   3
  -3   6   7 5805.21 522.784   3
  -3   6   7 5193.18 252.146   6
  -3   6   6 799.637 304.130   3
   3   6  -6 919.080 203.018   6
  -3   6   6 596.473 137.434   6
   3  -6  -6 1069.49 228.566   1
   3   6  -6 777.607 162.590   5
  -3  -6   6 925.303 197.427   2
  -3   6   6 748.243 110.891   4
  -3  -6   6 715.124 222.261   3
   3   6  -5 5636.05 348.313   6
   3  -6  -5 5105.74 230.658   6
   3   6  -5 5720.88 253.807   5
  -3  -6   5 5432.72 321.476   2
   3  -6  -5 5290.64 374.264   1
  -3  -6   5 5064.01 346.367   3
  -3   6   5 3843.33 389.394   3
  -3   6   5 4312.46 232.223   6
   3  -6  -4 1405.43 155.302   6
   3   6  -4 1404.62 212.429   6
  -3   6   4 990.178 273.532   3
   3   6  -4 1402.23 137.515   5
  -3  -6   4 1727.98 234.703   2
  -3  -6   4 1644.91 122.707   4
   3  -6  -4 1558.24 246.721   1
  -3  -6   4 1700.20 221.986   3
  -3   6   4 1407.73 154.400   6
   3  -6  -3 2677.33 201.169   6
   3   6  -3 2587.47 270.374   6
  -3  -6   3 2552.41 261.390   2
  -3  -6   3 2538.45 160.409   4
   3  -6  -3 2307.93 280.864   1
  -3  -6   3 2566.27 230.691   3
  -3   6   3 2206.56 303.464   3
  -3   6   3 2086.36 182.973   6
   3   6  -2 4471.21 317.458   6
  -3  -6   2 4264.74 318.149   2
   3   6  -2 4353.97 265.308   4
  -3  -6   2 4397.88 220.666   4
   3  -6  -2 3643.98 325.501   1
  -3  -6   2 3924.04 207.226   3
  -3   6   2 3154.63 301.135   3
  -3   6   2 3272.27 223.458   6
   3  -6  -2 3790.95 249.428   6
  -3   6   1 67.9408 129.398   6
   3  -6  -1-56.5566 146.802   6
  -3   6   1 156.977 175.747   3
   3   6  -1-9.41944 178.548   6
   3  -6  -1 149.573 194.072   1
   3   6  -1 197.327 129.148   4
  -3  -6   1 89.1617 110.204   4
  -3  -6   1-42.8340 185.327   2
   3  -6  -1 244.666 236.264   3
   3   6   0 1355.56 230.895   6
  -3  -6   0 1615.92 248.824   2
  -3  -6   0 1447.39 182.249   4
   3  -6   0 1172.75 240.739   1
  -3   6   0 1062.11 188.371   3
  -3   6   0 1149.54 186.493   6
   3  -6   0 1180.52 192.274   6
   3  -6   0 896.963 250.226   3
   3  -6   1 270.565 231.539   3
   3  -6   1-95.0990 159.257   6
   3   6   1-253.309 203.651   6
   3  -6   1-191.593 217.438   1
  -3  -6  -1-17.9459 140.148   4
  -3  -6  -1 175.273 189.141   2
  -3  -6  -2 4855.07 344.864   2
  -3  -6  -2 5443.68 342.054   4
   3  -6   2 4767.66 375.357   1
   3  -6   2 4233.21 356.474   3
   3   6   2 5380.88 341.610   1
   3  -6   2 4730.41 324.301   6
   3   6   2 4782.36 364.684   6
  -3  -6  -3 4306.82 340.380   2
  -3  -6  -3 4555.88 333.875   4
   3  -6   3 4043.93 359.483   1
   3  -6   3 3560.11 331.395   3
   3  -6   3 4226.19 335.042   6
   3   6   3 4221.77 354.495   6
   3  -6   4 1032.83 237.513   6
   3  -6   4 497.698 237.594   1
  -3  -6  -4 1277.58 255.115   2
  -3  -6  -4 1158.91 227.646   4
   3   6   4 1286.86 221.173   1
   3   6   4 1337.57 268.062   6
  -3  -6  -5 2874.94 305.564   2
  -3  -6  -5 2931.14 323.679   4
   3  -6   5 2829.83 326.946   1
   3   6   5 3016.75 278.248   1
   3  -6   5 2705.55 308.863   6
   3   6   5 2357.94 302.223   6
   3   6   6 753.755 212.420   1
   3  -6   6 325.848 223.992   6
   3   6   6 753.443 273.867   6
   3  -6   6 528.170 234.948   1
  -3  -6  -6 607.706 227.950   4
  -3  -6  -6 655.933 230.897   2
   3  -6   7 953.487 268.879   6
   3   6   7 1402.21 290.294   6
   3  -6   7 1075.61 273.614   1
  -3   6  -7 1117.87 293.668   4
  -3  -6  -7 1202.17 265.831   4
  -3  -6  -7 1237.86 250.172   2
   3   6   7 1223.12 160.010   3
   3   6   7 1156.78 236.185   1
   3  -6   8 528.486 250.919   6
   3   6   8 310.032 243.707   6
   3  -6   8 411.857 231.867   1
   3   6   8 706.336 223.986   1
  -3   6  -8 496.597 271.846   4
  -3  -6  -8 426.454 262.744   4
  -3  -6  -8 646.428 238.994   2
   3   6   8 1297.54 229.917   3
   3  -6   9-130.685 246.694   6
   3   6   9 353.990 288.038   6
   3  -6   9 15.5546 228.325   1
  -3   6  -9-3.44228 261.615   4
  -3  -6  -9-14.2310 255.994   4
  -3  -6  -9 264.404 217.504   2
   3   6   9 287.619 225.144   1
   3  -6  10-62.0578 268.692   6
   3   6  10-215.141 260.488   6
   3  -6  10 100.457 230.314   1
  -3   6 -10 55.7094 239.013   5
  -3   6 -10-283.082 290.606   4
  -3  -6 -10-7.40041 260.011   4
  -3  -6 -10-33.2250 196.840   2
   3   6  10-23.7101 196.361   1
   3  -6  11 111.597 269.783   6
   3   6  11 794.941 333.456   6
   3  -6  11 202.396 257.635   1
  -3   6 -11 348.563 245.403   5
  -3   6 -11 417.440 304.839   4
  -3  -6 -11 488.184 304.011   4
  -3  -6 -11 413.596 205.932   2
   3  -6  12 321.416 306.478   6
   3   6  12 373.702 312.643   6
  -3   6 -12-186.620 297.012   5
   3  -6  12 124.448 237.757   1
  -3   6 -12 369.700 315.533   4
  -3  -6 -12-85.6928 305.250   4
   3  -6  13 1001.32 346.461   6
   3   6  13 783.453 334.871   6
  -3   6 -13 1170.77 350.372   5
   3  -6  13 412.989 271.370   1
  -3   6 -13 443.343 315.697   4
  -3  -6 -13 366.036 321.160   4
   3  -6  14 43.2415 305.704   6
   3   6  14 394.599 358.990   6
  -3   6 -14-307.727 316.660   5
  -3   6 -14 195.431 341.721   4
  -3  -6 -14-108.423 361.017   4
  -3  -7  16 407.204 242.496   7
  -3  -7  16 251.363 498.182   3
  -3   7  16 462.208 608.059   3
  -3  -7  15-13.4655 231.464   7
  -3  -7  15-88.6596 436.367   3
  -3   7  15 5.47607 525.590   3
  -3  -7  14 790.877 265.235   7
  -3  -7  14 794.744 443.559   3
  -3   7  14 94.8287 460.449   3
  -3  -7  13 137.891 223.093   7
  -3  -7  13 74.9746 112.996   2
  -3  -7  13-105.169 380.365   3
  -3   7  13 210.028 442.662   3
  -3  -7  12 132.673 212.021   7
  -3   7  12 299.524 189.076   2
  -3  -7  12 238.727 112.873   2
  -3  -7  12 853.042 410.392   3
  -3   7  12-255.453 445.416   3
  -3   7  11 884.304 218.177   2
   3   7 -11 776.020 250.680   5
  -3  -7  11 1100.85 167.539   2
  -3  -7  11 957.292 368.143   3
  -3  -7  11 818.886 227.541   7
  -3   7  11 1150.96 433.323   3
   3   7 -10 6496.79 422.974   5
  -3  -7  10 6496.10 306.017   2
  -3  -7  10 7143.03 564.359   3
   3  -7 -10 5596.05 330.294   1
  -3   7  10 4325.20 213.748   7
  -3   7  10 5512.38 622.475   3
   3   7  -9 1748.25 263.063   5
  -3  -7   9 1431.56 181.671   2
  -3  -7   9 1765.84 326.142   3
   3  -7  -9 1556.82 231.698   1
  -3   7   9 1013.00 131.626   7
  -3   7   9 1339.05 391.114   3
   3   7  -8 3884.33 307.047   5
  -3  -7   8 3282.84 246.546   2
   3  -7  -8 3466.11 302.168   1
  -3  -7   8 3209.96 371.462   3
  -3   7   7-240.443 310.004   3
  -3   7   7 42.5754 117.027   6
   3  -7  -7-98.3030 194.567   1
   3   7  -7 142.930 161.036   5
  -3   7   7 48.7155 98.6208   4
  -3  -7   7 7.87069 147.621   2
  -3  -7   7-269.183 244.255   3
   3   7  -6 2467.60 264.289   6
   3   7  -6 2602.44 223.672   5
  -3  -7   6 2345.13 231.571   2
   3  -7  -6 2336.85 279.387   1
  -3  -7   6 2692.28 316.455   3
  -3   7   6 1914.00 356.264   3
  -3   7   6 2006.92 167.427   6
  -3   7   5 45.9494 274.181   3
  -3   7   5-112.779 111.778   6
   3   7  -5 89.7269 165.056   6
   3   7  -5 194.164 137.948   5
   3   7  -5 69.1757 87.6960   4
  -3  -7   5 30.3785 156.768   2
   3  -7  -5-165.107 195.517   1
  -3  -7   5-271.405 213.359   3
   3  -7  -4 5576.06 238.757   6
   3   7  -4 5818.17 361.103   6
   3   7  -4 5672.60 237.193   5
  -3  -7   4 5549.53 328.701   2
   3   7  -4 5511.37 258.609   4
  -3  -7   4 5257.18 209.310   4
   3  -7  -4 5395.44 377.272   1
  -3  -7   4 5740.95 338.014   3
  -3   7   4 4243.51 382.351   3
  -3   7   4 4595.16 228.179   6
  -3   7   3 227.955 118.457   6
  -3   7   3 44.5939 213.923   3
   3  -7  -3 464.398 132.120   6
   3   7  -3 451.007 199.709   6
   3   7  -3 354.662 95.5002   5
   3  -7  -3 405.515 219.453   1
   3   7  -3-1.33216 121.699   4
  -3  -7   3 470.379 106.704   4
  -3  -7   3 580.898 190.883   2
  -3  -7   3 647.942 165.724   3
   3   7  -2 1888.78 254.841   6
  -3  -7   2 1920.83 243.045   2
   3   7  -2 1960.87 204.982   4
  -3  -7   2 1585.13 154.762   4
   3  -7  -2 1444.33 238.691   1
  -3  -7   2 1702.58 163.920   3
  -3   7   2 1377.74 262.515   3
  -3   7   2 960.385 154.599   6
   3  -7  -2 1810.59 193.059   6
   3   7  -1 2430.58 273.858   6
  -3  -7   1 2251.17 260.859   2
   3   7  -1 2317.82 220.592   4
  -3  -7   1 2421.32 197.480   4
   3  -7  -1 2036.90 270.784   1
  -3   7   1 2184.25 271.688   3
  -3   7   1 2063.41 202.610   6
   3  -7  -1 2107.54 206.571   6
  -3   7   0 247.048 145.965   6
   3   7   0 423.642 193.199   6
   3  -7   0 697.729 225.636   1
  -3   7   0 347.867 174.043   3
  -3  -7   0 656.485 151.770   4
  -3  -7   0 622.685 200.749   2
   3  -7   0 744.093 187.024   6
  -3  -7  -1 2206.93 266.350   2
  -3  -7  -1 1690.34 217.264   4
   3  -7   1 1531.18 269.001   1
   3  -7   1 1826.68 224.757   6
   3   7   1 2025.66 290.760   6
   3  -7   2-13.3623 173.528   6
   3  -7   2 351.285 220.935   1
   3   7   2 275.769 203.753   6
  -3  -7  -2 159.108 151.183   4
  -3  -7  -2 195.345 192.184   2
   3  -7   3 26.2236 210.449   1
   3  -7   3-31.1313 173.056   6
  -3  -7  -3-58.0678 163.193   4
  -3  -7  -3-249.099 203.953   2
  -3  -7  -4 2213.20 271.037   2
  -3  -7  -4 2230.82 280.151   4
   3  -7   4 1946.14 281.431   1
   3  -7   4 1855.18 265.697   6
   3   7   4 2412.23 316.971   6
   3  -7   5 476.905 248.952   1
   3  -7   5 481.146 215.755   6
   3   7   5 325.830 214.370   6
  -3  -7  -5 164.506 201.814   4
  -3  -7  -5-62.6572 204.193   2
  -3  -7  -6 6533.80 406.625   2
  -3  -7  -6 6840.74 465.371   4
   3  -7   6 4977.87 404.534   1
   3  -7   6 5479.17 407.559   6
   3   7   6 5190.79 416.523   6
  -3  -7  -7 5656.43 379.473   2
  -3  -7  -7 5328.28 444.496   4
   3  -7   7 4265.93 387.786   1
   3   7   7 5057.44 230.096   3
   3  -7   7 4467.21 402.283   6
   3   7   7 4945.54 425.387   6
   3  -7   8 75.8345 234.531   6
   3  -7   8 84.7272 246.409   1
   3   7   8-32.0999 248.470   6
  -3   7  -8 32.7451 273.246   4
  -3  -7  -8-67.2604 228.888   4
  -3  -7  -8 100.003 201.346   2
   3  -7   9 558.577 262.458   6
   3  -7   9-159.302 245.997   1
   3   7   9 281.809 269.625   6
  -3   7  -9 222.804 263.200   4
  -3  -7  -9 240.612 267.268   4
  -3  -7  -9 387.126 209.641   2
   3  -7  10 168.650 262.327   6
   3   7  10-81.0143 280.176   6
   3  -7  10-112.625 241.188   1
  -3   7 -10 163.933 237.440   5
  -3   7 -10-421.723 335.082   4
  -3  -7 -10 434.436 290.107   4
  -3  -7 -10 77.5705 200.161   2
   3  -7  11 652.601 305.485   6
   3   7  11 654.791 287.433   6
   3  -7  11 1089.48 299.920   1
  -3   7 -11 870.376 276.574   5
  -3  -7 -11 1470.71 233.905   2
  -3   7 -11 96.1015 325.780   4
  -3  -7 -11 1173.52 347.608   4
   3  -7  12-122.145 297.147   6
   3   7  12-350.802 311.490   6
   3  -7  12 83.9115 257.287   1
  -3   7 -12 544.018 291.629   5
  -3   7 -12 410.489 330.583   4
  -3  -7 -12-34.7638 313.842   4
   3  -7  13-93.3752 301.783   6
   3   7  13 151.775 324.170   6
   3  -7  13 15.3713 249.853   1
  -3   7 -13 264.532 302.877   5
  -3   7 -13-114.545 327.520   4
  -3  -7 -13 452.833 327.756   4
   3  -7  14 219.655 316.458   6
   3   7  14 1260.30 394.444   6
  -3   7 -14 750.472 329.288   5
  -3   7 -14-131.480 374.260   4
  -3  -7 -14 669.901 367.543   4
  -3  -8  16 261.505 260.355   7
  -3  -8  16 445.471 484.642   3
  -3   8  16 304.453 556.725   3
  -3  -8  15 498.129 252.321   7
  -3  -8  15 1187.75 509.263   3
  -3   8  15 1276.05 566.415   3
  -3  -8  14 459.539 257.383   7
  -3  -8  14-192.346 435.473   3
  -3   8  14 501.984 487.323   3
   3   8 -13-18.2504 273.678   5
  -3  -8  13 142.191 210.499   7
  -3  -8  13 307.540 386.983   3
  -3  -8  13 143.169 116.079   2
  -3   8  13 235.161 465.945   3
   3   8 -12 729.060 274.585   5
  -3  -8  12 635.611 223.635   7
  -3  -8  12 663.439 144.049   2
  -3  -8  12 757.851 398.898   3
  -3   8  12 463.677 474.922   3
   3   8 -11 14.4111 232.951   5
  -3  -8  11-138.513 201.486   7
  -3  -8  11 186.761 134.057   2
  -3   8  11 329.469 397.433   3
   3   8 -10 461.281 232.233   5
  -3  -8  10 569.089 296.986   3
   3  -8 -10 185.004 179.142   1
  -3  -8  10 554.075 147.540   2
  -3   8  10 758.523 409.302   3
  -3   8   9 517.077 391.355   3
   3   8  -9-75.0327 209.465   5
  -3  -8   9 91.9538 257.691   3
  -3  -8   9 305.638 150.914   2
  -3   8   9 280.290 109.237   7
   3  -8  -9 123.164 186.914   1
  -3   8   8 616.017 375.684   3
   3   8  -8 775.478 210.864   5
  -3  -8   8 905.100 179.835   2
   3  -8  -8 1129.27 237.850   1
  -3   8   8 649.064 120.579   7
  -3   8   7 576.053 331.469   3
   3  -8  -7 947.503 216.064   1
  -3   8   7 634.163 117.386   6
   3   8  -7 913.753 205.944   5
  -3  -8   7 1204.51 190.411   2
  -3   8   7 657.122 132.832   4
   3   8  -6 2003.52 248.365   6
   3   8  -6 2083.78 229.092   5
  -3  -8   6 1807.91 225.757   2
   3   8  -6 1172.17 113.215   4
  -3   8   6 1103.80 148.110   4
   3  -8  -6 1686.30 261.254   1
  -3   8   6 2322.82 372.822   3
  -3   8   6 1184.89 133.283   6
  -3   8   5 250.484 274.034   3
  -3   8   5 222.123 96.7896   6
   3   8  -5 280.643 181.911   6
   3   8  -5 266.312 107.707   4
   3  -8  -5 511.290 229.105   1
  -3   8   5-47.3245 118.003   4
  -3  -8   5 452.304 209.697   3
  -3  -8   5 343.468 175.401   2
  -3   8   4 279.615 111.634   6
  -3   8   4 240.390 253.170   3
   3  -8  -4 314.168 105.336   6
   3   8  -4 218.364 188.084   6
   3  -8  -4 826.185 230.330   1
   3   8  -4 256.013 110.023   4
  -3  -8   4 158.984 161.708   2
  -3  -8   4 264.302 177.873   3
   3  -8  -3 2373.16 182.297   6
   3   8  -3 2908.03 296.541   6
  -3  -8   3 2385.60 246.367   2
   3   8  -3 2522.40 206.714   4
  -3  -8   3 2564.94 169.024   4
   3  -8  -3 2478.46 273.903   1
  -3  -8   3 2590.97 227.153   3
  -3   8   3 1599.88 284.935   3
  -3   8   3 1631.47 165.076   6
   3   8  -2 1651.28 249.231   6
   3   8  -2 1586.33 185.517   4
  -3  -8   2 1486.31 163.776   4
   3  -8  -2 1179.05 243.198   1
  -3  -8   2 1343.66 211.181   2
  -3  -8   2 1416.95 154.767   3
  -3   8   2 1644.26 291.688   3
  -3   8   2 1108.21 157.333   6
   3  -8  -2 1392.00 171.562   6
   3   8  -1 2565.92 289.869   6
  -3  -8   1 2706.92 267.610   2
   3   8  -1 2514.54 233.792   4
  -3  -8   1 2321.67 195.232   4
   3  -8  -1 2182.64 290.936   1
  -3   8   1 1920.79 283.720   3
  -3   8   1 1751.63 191.858   6
   3  -8  -1 2180.96 205.311   6
  -3  -8   0 3061.00 283.965   2
  -3  -8   0 2889.78 232.431   4
   3  -8   0 2972.99 324.252   1
  -3   8   0 2192.05 260.536   3
   3  -8   0 2674.99 238.629   6
   3   8   0 2999.55 305.029   6
   3  -8   1 1182.16 256.911   1
   3   8   1 1158.80 91.8559   5
  -3  -8  -1 1672.34 245.251   2
  -3  -8  -1 1621.99 204.976   4
   3  -8   1 1373.82 207.194   6
   3   8   1 1446.69 251.834   6
   3  -8   2 193.978 216.430   1
   3  -8   2 552.856 190.119   6
   3   8   2 289.020 212.546   6
   3   8   2 158.047 80.7758   5
  -3  -8  -2 463.150 176.287   4
  -3  -8  -2 515.548 204.595   2
  -3  -8  -3 2994.03 291.998   2
  -3  -8  -3 2655.90 291.006   4
   3  -8   3 2361.27 321.766   1
   3  -8   3 1973.92 254.661   6
   3   8   3 2546.98 308.877   6
  -3  -8  -4 2119.64 271.538   2
  -3  -8  -4 1841.51 262.862   4
   3  -8   4 1356.05 285.207   1
   3  -8   4 1493.25 257.676   6
   3   8   4 1738.02 280.607   6
  -3  -8  -5 3082.49 297.354   2
  -3  -8  -5 2925.82 325.324   4
   3  -8   5 2799.60 338.478   1
   3  -8   5 3030.44 319.550   6
   3   8   5 2933.03 338.946   6
  -3  -8  -6 3847.09 315.903   2
  -3  -8  -6 3612.40 364.845   4
   3  -8   6 3165.16 357.743   1
   3  -8   6 2899.78 330.040   6
   3   8   6 3579.10 380.651   6
  -3  -8  -7 12430.9 496.315   2
  -3  -8  -7 13130.0 652.206   4
   3  -8   7 10987.3 574.244   1
   3  -8   7 9940.03 545.963   6
   3   8   7 11446.5 604.605   6
   3  -8   8 14.1280 220.679   6
   3   8   8 212.909 249.961   6
  -3  -8  -8 594.047 268.961   4
  -3  -8  -8 633.869 221.776   2
   3  -8   8 447.760 257.466   1
   3  -8   9 150.231 266.240   1
   3  -8   9 254.352 255.604   6
   3   8   9 62.6921 291.958   6
  -3   8  -9 20.9510 261.671   4
  -3  -8  -9 295.343 257.391   4
  -3  -8  -9-268.218 206.665   2
   3  -8  10 280.016 251.609   1
   3  -8  10 957.489 291.544   6
   3   8  10 1139.25 323.292   6
  -3  -8 -10 1260.53 236.501   2
  -3   8 -10 376.772 318.093   4
  -3  -8 -10 532.403 286.750   4
   3  -8  11 253.283 278.778   6
   3  -8  11 414.341 273.579   1
   3   8  11-7.69827 288.485   6
  -3   8 -11 654.750 298.554   5
  -3   8 -11 649.584 361.523   4
  -3  -8 -11 321.345 272.385   4
   3  -8  12 26.6581 289.882   6
   3   8  12 429.796 316.560   6
   3  -8  12 420.815 283.526   1
  -3   8 -12 534.052 294.917   5
  -3   8 -12 164.264 323.105   4
  -3  -8 -12 351.927 306.658   4
   3  -8  13 699.480 328.313   6
   3   8  13 115.304 312.619   6
   3  -8  13 58.7856 269.913   1
  -3   8 -13-320.515 289.815   5
  -3   8 -13 399.153 333.434   4
  -3  -8 -13 238.971 341.846   4
  -3  -9  15 519.160 255.577   7
  -3  -9  15 1181.93 513.584   3
  -3   9  15 389.560 547.672   3
   3   9 -14-77.9967 281.729   5
  -3  -9  14-253.843 259.143   7
  -3  -9  14 284.722 426.734   3
  -3   9  14 563.231 535.619   3
   3   9 -13 162.355 273.333   5
  -3  -9  13-119.633 229.152   7
  -3  -9  13 594.479 399.501   3
  -3  -9  13 206.700 123.597   2
  -3   9  13 771.622 497.023   3
   3   9 -12-56.8995 265.895   5
  -3  -9  12 830.753 411.382   3
  -3  -9  12 131.210 204.858   7
  -3  -9  12 407.527 138.393   2
  -3   9  12 61.4288 433.219   3
   3   9 -11 3886.42 385.833   5
  -3  -9  11 4168.92 252.935   2
  -3  -9  11 3681.00 338.074   7
  -3   9  11 2602.13 541.533   3
   3  -9 -11 2495.37 241.883   1
  -3   9  10 1351.70 465.833   3
   3   9 -10 1361.21 269.483   5
  -3  -9  10 1511.92 197.190   2
   3  -9 -10 1540.71 225.079   1
  -3   9   9 529.545 397.648   3
   3   9  -9 728.895 232.913   5
  -3  -9   9 796.837 170.084   2
   3  -9  -9 716.596 208.049   1
  -3   9   8 399.793 351.612   3
   3  -9  -8 7.14444 199.299   1
   3   9  -8-205.411 206.111   5
  -3  -9   8 117.415 139.196   2
  -3   9   8 1.86267 80.2883   7
   3   9  -7 1692.82 123.191   4
  -3  -9   7 2454.82 234.439   2
  -3   9   7 1374.17 163.970   4
   3  -9  -7 2230.89 282.486   1
  -3   9   7 2261.31 403.166   3
   3   9  -6 1532.30 231.922   6
  -3   9   6 1331.21 363.450   3
  -3  -9   6 1812.46 224.813   2
   3   9  -6 1039.66 122.266   4
  -3   9   6 997.251 164.607   4
   3  -9  -6 1382.13 259.486   1
  -3   9   6 833.591 97.4886   6
   3   9  -5 2764.41 287.399   6
  -3  -9   5 3271.58 263.344   2
   3   9  -5 2821.86 187.290   4
  -3   9   5 1519.56 190.437   4
   3  -9  -5 3141.36 311.780   1
  -3   9   5 2414.51 386.731   3
  -3   9   5 1845.21 125.916   6
  -3   9   4 153.657 95.9400   6
  -3   9   4 39.5709 273.300   3
   3  -9  -4 202.636 92.1224   6
   3   9  -4 5.42811 167.901   6
   3  -9  -4 52.7952 199.443   1
   3   9  -4 228.051 134.586   4
  -3  -9   4 235.908 171.089   2
  -3   9   3 278.614 110.445   6
  -3   9   3 94.5020 246.704   3
   3  -9  -3 97.2062 106.745   6
   3   9  -3 271.114 178.005   6
   3   9  -3 236.565 124.556   4
   3  -9  -3 898.615 252.300   1
  -3  -9   3 263.244 104.272   4
  -3  -9   3 603.397 188.044   2
  -3   9   3 561.635 158.128   7
  -3   9   2-106.878 252.741   3
   3  -9  -2 302.373 216.815   1
   3  -9  -2 101.091 123.570   6
   3   9  -2 53.2680 177.484   6
   3   9  -2-79.0218 127.791   4
  -3  -9   2 103.611 108.338   4
  -3  -9   2 7.83599 165.829   2
  -3  -9   2-115.151 114.227   3
  -3   9   2-10.5078 147.974   7
   3  -9  -1-6.12066 210.471   1
  -3  -9   1-35.4742 66.3330   3
   3  -9  -1-217.075 143.237   6
  -3   9   1-2.03593 213.883   3
   3   9  -1-190.392 195.977   6
  -3  -9   1 17.3321 111.173   4
  -3  -9   1-25.3388 171.652   2
  -3  -9   1-34.6689 64.3979   3
  -3   9   1 85.9438 154.956   7
   3  -9   0 651.968 246.053   1
   3  -9   0 462.857 166.419   6
   3   9   0 533.282 230.038   6
  -3   9   0 394.888 186.808   3
  -3  -9   0 546.529 148.950   4
  -3  -9   0 843.095 214.473   2
   3  -9   1 277.953 158.633   6
   3   9   1 403.557 224.675   6
  -3  -9  -1 640.487 174.108   4
  -3  -9  -1 482.207 196.567   2
   3  -9   1 585.502 242.188   1
  -3  -9  -2 4291.20 316.057   2
  -3  -9  -2 3967.08 307.296   4
   3  -9   2 3433.67 361.222   1
   3  -9   2 3818.25 295.345   6
   3   9   2 3704.60 353.060   6
   3  -9   3 518.497 200.584   6
   3   9   3 731.865 256.825   6
   3   9   3 782.675 134.265   5
  -3  -9  -3 658.510 191.927   4
  -3  -9  -3 673.399 194.073   2
   3  -9   3 532.952 241.283   1
   3  -9   4 201.115 203.092   6
   3   9   4 37.7546 235.473   6
   3   9   4 193.064 126.857   5
  -3  -9  -4 245.061 190.344   4
  -3  -9  -4 126.444 194.504   2
   3  -9   4-570.728 250.270   1
  -3  -9  -5 2969.82 279.727   2
  -3  -9  -5 2811.70 318.859   4
   3  -9   5 2050.03 305.433   1
   3  -9   5 1981.06 281.320   6
   3   9   5 2762.57 336.182   6
  -3  -9  -6 2882.31 287.673   2
  -3  -9  -6 2911.85 347.160   4
   3  -9   6 2476.17 339.170   1
   3  -9   6 2460.82 308.001   6
   3   9   6 2255.78 330.124   6
  -3  -9  -7 9012.32 426.051   2
  -3  -9  -7 9076.32 542.731   4
   3  -9   7 7160.97 484.460   1
   3  -9   7 6914.82 455.476   6
   3   9   7 8353.10 529.265   6
  -3  -9  -8 2083.33 262.043   2
  -3  -9  -8 2066.25 338.906   4
   3  -9   8 1954.44 336.268   1
   3  -9   8 1707.20 297.195   6
   3   9   8 2005.16 342.640   6
  -3  -9  -9 5003.21 337.119   2
  -3  -9  -9 5308.86 478.546   4
   3  -9   9 4339.50 418.582   1
   3  -9   9 4373.76 420.209   6
   3   9   9 4197.67 438.776   6
   3  -9  10 41.4953 253.370   6
   3   9  10-166.268 278.871   6
  -3   9 -10-97.9088 285.274   4
  -3  -9 -10 65.4548 254.403   4
  -3  -9 -10 228.995 185.508   2
   3  -9  10-109.339 254.845   1
   3  -9  11 897.652 323.330   1
   3  -9  11 641.391 285.077   6
   3   9  11 88.8046 298.440   6
  -3   9 -11-5.08519 330.333   4
  -3  -9 -11 263.491 281.710   4
   3  -9  12 639.513 321.299   6
   3  -9  12 272.506 271.911   1
   3   9  12 637.311 331.711   6
  -3   9 -12-105.704 292.216   5
  -3   9 -12 532.400 350.256   4
  -3  -9 -12 1255.82 367.710   4
   3  -9  13-288.951 313.273   6
   3   9  13 398.061 338.596   6
   3  -9  13-86.5228 275.032   1
  -3   9 -13 346.116 299.903   5
  -3   9 -13 216.444 323.973   4
  -3  -9 -13-67.4033 323.847   4
   3  10 -15 584.379 396.317   5
  -3 -10  15 647.144 265.677   7
  -3 -10  15 789.942 477.316   3
  -3  10  15 1307.17 576.089   3
  -3 -10  14 331.938 244.506   7
   3  10 -14 303.329 311.055   5
  -3 -10  14 1220.64 488.989   3
  -3 -10  14 329.825 136.416   2
  -3  10  14 161.810 504.104   3
  -3  10  13 293.396 478.970   3
   3  10 -13 197.133 298.855   5
  -3 -10  13 814.934 418.367   3
  -3 -10  13-24.8746 237.855   7
  -3 -10  13 213.061 132.953   2
  -3  10  12 205.794 442.392   3
   3  10 -12 284.271 284.153   5
  -3 -10  12 145.130 209.404   7
  -3 -10  12 136.227 124.241   2
  -3  10  11 733.602 414.630   3
   3  10 -11 1342.75 288.315   5
  -3 -10  11 1233.39 177.318   2
   3 -10 -11 1398.15 204.672   1
  -3 -10  11 935.792 237.186   7
  -3  10  10-123.742 363.608   3
   3  10 -10 91.4250 229.772   5
  -3 -10  10 213.812 145.570   2
   3 -10 -10 180.635 193.728   1
  -3  10   9 873.057 375.971   3
   3  10  -9 1515.59 284.969   5
  -3 -10   9 1458.30 192.380   2
   3 -10  -9 1342.46 250.730   1
  -3 -10   8 4915.07 289.863   2
   3 -10  -8 4595.01 344.537   1
  -3  10   8 3810.54 501.710   3
  -3  10   7-57.6942 334.066   3
   3 -10  -7 216.283 217.595   1
  -3 -10   7 452.555 163.639   2
   3 -10  -6 814.130 238.508   1
   3  10  -6 497.822 121.098   4
  -3 -10   6 686.052 179.249   2
  -3  10   6 304.435 315.718   3
   3  10  -5 10553.1 484.160   6
  -3 -10   5 10699.8 416.470   2
   3  10  -5 9523.57 328.453   4
   3 -10  -5 9720.59 468.089   1
  -3  10   5 7992.49 581.597   3
  -3  10   5 9118.24 283.015   7
   3  10  -4 3692.74 321.472   6
   3 -10  -4 2618.54 134.833   6
  -3 -10   4 3488.02 280.008   2
   3  10  -4 3820.81 242.606   4
   3 -10  -4 3487.76 321.088   1
  -3  10   4 2116.08 352.642   3
  -3  10   4 3143.84 203.355   7
  -3  10   3 97.0047 253.389   3
   3 -10  -3 58.2472 215.917   1
   3 -10  -3 207.356 97.9345   6
   3  10  -3 321.962 197.710   6
   3  10  -3 29.6381 127.473   4
  -3 -10   3 54.2949 109.180   4
  -3 -10   3 32.6495 160.746   2
  -3  10   3 22.6690 132.660   7
   3 -10  -2 1192.75 266.397   1
  -3  10   2 1007.33 287.286   3
   3  10  -2 880.556 224.667   6
  -3 -10   2 1375.77 158.826   4
  -3 -10   2 1129.55 198.448   2
  -3 -10   2 943.534 139.208   3
  -3  10   2 874.839 162.744   7
   3 -10  -2 875.208 146.079   6
   3 -10  -1 443.224 228.529   1
   3 -10  -1 698.211 150.622   6
  -3  10   1 312.279 221.472   3
   3  10  -1 873.076 229.828   6
  -3 -10   1 699.090 152.285   4
  -3 -10   1 472.066 94.7325   3
  -3 -10   1 846.550 204.753   2
  -3 -10   1 599.875 107.510   3
  -3  10   1 554.669 168.990   7
   3  10   0 1039.53 229.114   6
  -3  10   0 607.759 201.954   3
  -3 -10   0 1068.56 176.014   4
  -3 -10   0 1223.42 206.922   2
   3 -10   0 1081.15 271.025   1
   3 -10   0 1088.17 183.667   6
   3 -10   1 648.361 179.037   6
   3  10   1 961.417 238.558   6
  -3 -10  -1 958.469 191.304   4
  -3 -10  -1 1002.92 207.916   2
   3 -10   1 556.570 243.325   1
  -3 -10  -2 3730.59 298.679   2
  -3 -10  -2 3250.53 291.033   4
   3 -10   2 3057.41 328.336   1
   3 -10   2 3028.45 272.231   6
   3  10   2 3131.44 329.687   6
  -3 -10  -3 2885.73 279.081   2
  -3 -10  -3 3186.15 303.027   4
   3 -10   3 2238.10 317.416   1
   3 -10   3 3377.93 303.316   6
   3  10   3 3371.83 341.880   6
   3 -10   4 172.609 199.413   6
   3  10   4 3.49188 232.830   6
   3  10   4 55.9634 127.418   5
  -3 -10  -4 204.354 194.248   4
  -3 -10  -4-173.851 192.635   2
   3 -10   4 453.289 241.083   1
   3 -10   5 322.500 198.057   6
   3  10   5 680.403 248.400   6
  -3 -10  -5 802.788 245.196   4
  -3 -10  -5 479.797 200.937   2
   3 -10   5 144.562 233.628   1
  -3 -10  -6 3758.47 314.523   2
  -3 -10  -6 3444.49 366.276   4
   3 -10   6 2377.06 331.865   1
   3 -10   6 3202.54 327.360   6
   3  10   6 3463.47 375.630   6
   3 -10   7 1268.46 275.067   6
  -3 -10  -7 1979.45 247.785   2
   3 -10   7 1421.29 301.217   1
   3  10   7 1474.41 322.448   6
   3 -10   8 53.2908 239.182   6
   3  10   8 7.90912 247.058   6
  -3 -10  -8-0.20343 233.842   4
  -3 -10  -8 230.989 193.045   2
   3 -10   8 197.174 254.119   1
   3 -10   9 696.775 282.872   6
   3  10   9 238.819 274.660   6
  -3 -10  -9 136.347 278.909   4
  -3 -10  -9 274.216 193.595   2
   3 -10   9-275.913 281.202   1
   3 -10  10 475.727 285.695   6
   3  10  10 742.190 308.700   6
  -3 -10 -10 643.790 306.511   4
  -3 -10 -10 674.933 192.675   2
   3 -10  10 423.123 283.218   1
   3 -10  11 325.067 278.690   6
   3  10  11 242.769 306.072   6
  -3  10 -11-544.544 330.855   4
  -3 -10 -11 637.671 319.900   4
   3 -10  11 563.630 310.110   1
   3 -10  12 549.367 307.388   1
   3 -10  12 517.683 324.246   6
   3  10  12 540.112 348.573   6
  -3  10 -12 566.480 364.764   4
  -3 -10 -12 84.1858 326.566   4
   3 -10  13 330.299 301.336   6
   3 -10  13 9.49224 300.247   1
   3  10  13-78.9581 312.275   6
  -3  10 -13-141.448 294.730   5
  -3  10 -13-464.075 364.118   4
  -3 -10 -13 98.9715 336.708   4
  -3  11  15 147.796 535.475   3
   3  11 -15 289.240 332.834   5
  -3 -11  15 279.529 246.018   7
  -3 -11  15 974.977 510.839   3
  -3  11  14 1235.06 557.874   3
   3  11 -14 1163.91 360.286   5
  -3 -11  14 1336.94 183.593   2
  -3 -11  14 1184.33 292.106   7
   3  11 -13 1059.19 335.008   5
  -3 -11  13 981.763 163.305   2
  -3 -11  13 474.683 247.390   7
  -3  11  12 2004.83 549.454   3
   3  11 -12 1303.66 319.451   5
  -3 -11  12 1450.82 177.320   2
  -3 -11  12 1212.97 265.561   7
  -3  11  11-356.234 455.116   3
   3  11 -11 400.489 260.577   5
  -3 -11  11 267.407 229.807   7
  -3 -11  11 403.911 147.249   2
  -3  11  10 683.492 427.068   3
   3  11 -10 658.657 282.796   5
   3 -11 -10 373.559 202.642   1
  -3 -11  10 347.400 145.270   2
  -3  11   9-270.765 409.171   3
   3 -11  -9-118.750 208.000   1
  -3 -11   9-96.8600 143.757   2
  -3 -11   8 4009.67 277.274   2
   3 -11  -8 4156.48 336.139   1
  -3  11   8 3271.14 501.506   3
  -3  11   7 1930.63 423.191   3
  -3 -11   7 1505.09 198.182   2
   3 -11  -7 1568.47 265.624   1
  -3  11   6 1038.93 353.874   3
  -3 -11   6 1403.54 203.454   2
   3 -11  -6 1175.99 256.604   1
   3  11  -5 1648.60 246.726   6
  -3  11   5 1341.65 354.398   3
  -3 -11   5 1884.71 221.598   2
   3  11  -5 1560.56 172.845   4
   3 -11  -5 1453.80 254.538   1
  -3  11   4 189.266 271.547   3
   3 -11  -4 185.216 224.288   1
   3  11  -4-103.656 196.209   6
   3  11  -4 241.324 133.620   4
  -3 -11   4 110.369 156.527   2
  -3  11   4 414.121 133.100   7
   3 -11  -3 200.434 217.675   1
  -3  11   3 146.541 268.590   3
   3 -11  -3-72.9666 82.0350   6
   3  11  -3 20.7431 185.274   6
   3  11  -3-105.668 130.205   4
  -3 -11   3-95.5246 129.705   4
  -3 -11   3 2.12326 164.674   2
  -3  11   3-81.3263 133.554   7
   3  11  -2 1698.15 263.582   6
  -3  11   2 901.992 298.271   3
  -3 -11   2 1522.99 221.735   2
  -3 -11   2 1482.52 165.848   4
   3 -11  -2 1656.82 295.783   1
  -3  11   2 1648.78 186.484   7
  -3 -11   2 1531.79 190.783   3
   3 -11  -2 1425.43 156.073   6
  -3 -11   1 334.078 120.691   3
   3 -11  -1 222.038 134.960   6
  -3  11   1 302.537 227.657   3
   3  11  -1 380.877 211.105   6
  -3 -11   1 362.188 140.510   4
  -3 -11   1 629.087 187.828   2
  -3  11   1 357.637 156.660   7
   3 -11  -1 162.557 238.729   1
   3 -11   0 169.244 148.060   6
   3  11   0 339.779 202.119   6
  -3  11   0 312.621 226.922   3
  -3 -11   0 586.452 158.354   4
  -3 -11   0 468.532 173.256   2
   3 -11   0 687.586 275.452   1
   3 -11   1 711.587 187.168   6
   3  11   1 316.968 220.971   6
  -3 -11  -1 501.244 165.213   4
  -3 -11  -1 577.264 203.162   2
   3 -11   1 25.4615 222.953   1
  -3 -11  -2 1749.45 235.515   2
  -3 -11  -2 1643.12 231.840   4
   3 -11   2 1886.62 291.244   1
   3 -11   2 1433.19 222.723   6
   3  11   2 1479.49 266.178   6
   3 -11   3 415.336 193.050   6
   3  11   3 113.131 217.172   6
  -3 -11  -3 128.228 172.518   4
  -3 -11  -3 673.439 195.087   2
   3 -11   3 324.301 225.269   1
   3 -11   4 403.237 201.548   6
   3  11   4-29.8522 223.800   6
  -3 -11  -4 200.362 192.631   4
  -3 -11  -4-73.0770 191.618   2
   3 -11   4 201.719 221.842   1
  -3 -11  -5 3798.30 308.882   2
  -3 -11  -5 4257.56 393.211   4
   3 -11   5 2883.67 345.132   1
   3 -11   5 3393.94 340.458   6
   3  11   5 3352.30 374.591   6
   3 -11   6 208.544 214.977   6
   3  11   6 483.401 268.362   6
  -3 -11  -6-85.9678 203.319   4
  -3 -11  -6-83.0431 181.103   2
   3 -11   6 480.395 255.907   1
   3 -11   7-414.505 236.936   6
   3  11   7-157.708 257.193   6
  -3 -11  -7 161.321 230.640   4
  -3 -11  -7 246.773 186.238   2
   3 -11   7-116.369 264.375   1
  -3 -11  -8 6069.54 342.066   2
  -3 -11  -8 6367.63 507.969   4
   3 -11   8 5077.73 460.603   1
   3 -11   8 4780.08 420.461   6
   3  11   8 5191.09 458.242   6
   3 -11   9 925.852 278.970   6
   3  11   9 1248.24 334.408   6
  -3 -11  -9 1597.54 231.238   2
  -3 -11  -9 1815.54 337.300   4
   3 -11   9 977.243 296.789   1
   3 -11  10 832.611 289.342   6
   3  11  10 647.723 319.982   6
  -3 -11 -10 900.768 312.520   4
  -3 -11 -10 744.225 189.042   2
   3 -11  10 419.395 256.900   1
   3 -11  11 1042.72 303.730   6
   3  11  11 782.261 324.945   6
  -3  11 -11 432.785 335.727   4
  -3 -11 -11 1470.83 375.221   4
   3 -11  11 1372.63 335.819   1
   3 -11  12 378.441 303.477   6
   3  11  12 41.0259 317.793   6
  -3  11 -12 133.387 329.517   4
  -3 -11 -12 140.518 304.464   4
   3 -11  12-114.635 286.062   1
   3 -11  13 463.837 312.026   1
   3 -11  13 205.668 297.708   6
   3  11  13 725.619 369.413   6
  -3  11 -13 173.375 337.935   5
  -3  11 -13 457.728 414.466   4
  -3 -11 -13-54.5165 316.592   4
  -3  12  15 77.6079 522.614   3
   3  12 -15 212.080 324.139   5
  -3 -12  15 378.193 454.493   3
  -3 -12  15 214.380 256.677   7
  -3  12  14 884.807 535.550   3
   3  12 -14 367.620 325.733   5
  -3 -12  14 589.155 280.853   7
  -3 -12  14 484.091 171.187   2
  -3  12  13 1833.23 584.501   3
   3  12 -13 1354.58 344.833   5
  -3 -12  13 1900.59 208.261   2
  -3 -12  13 1444.76 304.587   7
  -3  12  12 432.048 441.200   3
   3  12 -12 1146.65 348.991   5
  -3 -12  12 992.090 178.322   2
  -3 -12  12 533.042 230.966   7
  -3  12  11 956.885 465.768   3
   3  12 -11 1263.07 338.778   5
  -3 -12  11 616.292 235.931   7
  -3 -12  11 858.313 167.006   2
   3 -12 -10-157.880 199.397   1
  -3 -12  10-132.303 150.583   2
  -3 -12   9-274.502 161.611   2
   3 -12  -9-254.683 207.562   1
  -3  12   8 1242.35 412.121   3
  -3 -12   8 1584.59 208.258   2
   3 -12  -8 829.095 243.343   1
  -3  12   7 1223.67 411.388   3
   3 -12  -7 1427.97 279.564   1
  -3 -12   7 891.337 187.982   2
  -3  12   6 56.9105 317.288   3
   3 -12  -6 429.221 206.044   1
  -3 -12   6-60.8185 157.607   2
   3  12  -5 2043.99 271.396   6
  -3 -12   5 2054.76 229.607   2
   3 -12  -5 2072.36 298.948   1
  -3  12   5 1787.94 386.397   3
   3  12  -4 2167.29 286.007   6
  -3 -12   4 2379.54 238.819   2
   3 -12  -4 2279.14 313.018   1
   3 -12  -3-10.8805 224.070   1
  -3  12   3 100.041 270.601   3
   3 -12  -3 80.9031 63.3993   6
  -3 -12   3 164.433 164.100   3
   3  12  -3 261.717 206.687   6
  -3 -12   3 401.515 184.465   2
  -3  12   3 96.8928 123.899   7
   3 -12  -2 635.355 117.986   6
  -3  12   2 698.337 304.980   3
   3  12  -2 998.324 239.757   6
  -3 -12   2 1021.56 168.038   4
  -3 -12   2 1068.37 203.537   2
  -3 -12   2 1152.09 208.221   3
  -3  12   2 778.013 158.358   7
   3 -12  -2 819.919 269.914   1
   3  12  -1 1823.37 280.425   6
  -3  12   1 1429.33 274.910   3
  -3 -12   1 1844.94 233.111   2
  -3 -12   1 1902.46 201.203   4
   3 -12  -1 1797.29 301.597   1
  -3  12   1 1872.01 202.240   7
  -3 -12   1 1609.56 177.655   3
   3 -12  -1 1685.56 178.853   6
   3 -12   0 69.2486 147.024   6
   3  12   0 435.887 217.078   6
  -3  12   0 197.705 211.577   3
  -3 -12   0 124.875 138.516   4
  -3 -12   0 200.197 171.242   2
   3 -12   0 74.7081 221.370   1
  -3 -12   0 142.145 85.4972   3
   3  12   1 2463.94 318.988   6
  -3 -12  -1 2454.02 261.369   2
  -3 -12  -1 2460.22 252.786   4
   3 -12   1 1492.35 281.082   1
   3 -12   1 2035.09 228.109   6
  -3 -12  -2 3584.79 289.677   2
  -3 -12  -2 3366.12 300.015   4
   3 -12   2 2829.51 344.529   1
   3 -12   2 2938.11 271.845   6
   3  12   2 3301.27 362.456   6
   3  12   3 1206.09 279.076   6
  -3 -12  -3 1236.63 210.195   4
  -3 -12  -3 1332.02 214.279   2
   3 -12   3 1472.39 281.594   1
   3 -12   3 1537.65 238.739   6
   3 -12   4 1040.05 236.506   6
   3  12   4 723.634 262.127   6
  -3 -12  -4 1065.53 234.301   4
  -3 -12  -4 1064.29 215.448   2
   3 -12   4 544.624 262.344   1
  -3 -12  -5 2192.10 247.951   2
  -3 -12  -5 2092.20 290.401   4
   3 -12   5 1590.45 323.376   1
   3 -12   5 1692.27 276.244   6
   3  12   5 1923.74 315.667   6
   3  12   6 1567.78 327.907   6
  -3 -12  -6 1958.01 243.068   2
  -3 -12  -6 1821.10 309.834   4
   3 -12   6 1736.42 335.810   1
   3 -12   6 1626.93 288.072   6
   3 -12   7 173.376 221.880   6
   3  12   7 833.133 290.220   6
  -3 -12  -7 1383.26 313.595   4
  -3 -12  -7 895.916 210.432   2
   3 -12   7 606.037 283.571   1
   3 -12   8 242.975 243.547   6
   3  12   8-137.689 261.273   6
   3 -12   8-336.353 292.134   1
  -3 -12  -8 405.402 267.517   4
  -3 -12  -8 224.170 177.388   2
   3 -12   9 553.594 286.274   6
  -3 -12  -9 1392.88 316.095   4
  -3 -12  -9 1255.02 210.123   2
   3 -12   9 1157.48 293.922   1
   3  12   9 1566.07 375.954   6
   3 -12  10-237.275 276.358   6
   3  12  10 192.029 320.905   6
  -3 -12 -10-54.4571 263.245   4
  -3 -12 -10-104.467 165.425   2
   3 -12  10-73.8218 276.394   1
   3 -12  11 555.528 289.035   6
   3  12  11 868.248 329.880   6
  -3 -12 -11 1130.94 378.005   4
   3 -12  11 711.681 297.549   1
   3 -12  12 169.731 294.121   6
   3  12  12 233.935 307.499   6
  -3  12 -12-19.9648 343.949   4
  -3 -12 -12 246.899 300.654   4
   3 -12  12 175.537 312.761   1
  -3  13  14 463.247 557.026   3
   3  13 -14 284.681 320.784   5
  -3 -13  14 1146.38 312.608   7
  -3 -13  14 817.249 183.355   2
  -3  13  13 158.926 477.232   3
   3  13 -13 125.469 309.256   5
  -3 -13  13 142.421 249.722   7
  -3 -13  13 77.5974 151.409   2
  -3  13  12 1320.65 516.974   3
   3  13 -12 1853.60 366.257   5
  -3 -13  12 1411.96 195.926   2
  -3 -13  12 843.594 268.891   7
  -3 -13  11 373.897 231.851   7
  -3 -13  11 518.013 163.333   2
  -3 -13  10 1958.24 217.371   2
   3 -13 -10 2430.24 284.534   1
  -3 -13   9 1715.70 209.646   2
   3 -13  -9 1816.97 274.729   1
  -3 -13   8 4521.14 283.417   2
   3 -13  -8 3820.48 347.550   1
  -3  13   7 49.8825 350.576   3
   3 -13  -7 551.257 225.161   1
  -3 -13   7 723.106 178.575   2
  -3 -13   6 10579.2 427.612   2
   3 -13  -6 8730.30 473.445   1
  -3  13   5-37.7391 318.328   3
   3 -13  -5 180.250 233.953   1
   3  13  -5 295.771 188.496   6
  -3 -13   5 372.042 170.512   2
   3 -13  -4 380.695 247.092   1
  -3  13   4 216.283 306.400   3
   3  13  -4 488.871 201.749   6
  -3 -13   4 120.403 157.053   2
  -3  13   3-36.3969 287.088   3
   3 -13  -3 121.451 37.1235   6
   3  13  -3 545.408 214.526   6
  -3 -13   3 303.262 172.481   2
   3 -13  -3 173.286 234.508   1
   3  13  -2 1936.23 283.414   6
  -3  13   2 1287.08 317.190   3
  -3 -13   2 2232.25 249.914   2
   3 -13  -2 1698.44 297.982   1
  -3 -13   2 1916.90 211.023   4
   3 -13  -2 1441.91 124.941   6
   3 -13  -1 133.701 123.645   6
  -3  13   1-345.171 230.070   3
   3  13  -1 460.176 223.168   6
  -3 -13   1 310.849 145.962   4
  -3 -13   1 163.182 175.457   2
   3 -13  -1 378.248 234.959   1
   3  13   0 1727.97 290.571   6
  -3 -13   0 1808.63 230.833   2
  -3 -13   0 1901.55 217.122   4
   3 -13   0 1442.95 286.368   1
   3 -13   0 1689.44 197.911   6
   3 -13   1 298.089 163.509   6
   3  13   1 181.358 230.922   6
  -3 -13  -1 173.638 166.733   4
  -3 -13  -1 85.4514 164.811   2
   3 -13   1-225.870 248.428   1
  -3 -13  -2 3151.94 286.878   2
   3 -13   2 2766.97 344.055   1
  -3 -13  -2 2807.62 275.749   4
   3 -13   2 2934.43 270.051   6
   3  13   2 2960.05 354.187   6
   3 -13   3 659.340 209.435   6
   3  13   3 510.498 242.903   6
  -3 -13  -3 554.424 188.555   4
  -3 -13  -3 983.773 200.635   2
   3 -13   3 568.841 265.641   1
  -3 -13  -4 2881.43 275.268   2
  -3 -13  -4 2596.84 310.913   4
   3 -13   4 2358.68 339.652   1
   3 -13   4 2019.96 273.762   6
   3  13   4 2150.43 321.304   6
   3 -13   5-359.678 224.638   6
   3  13   5-251.331 262.967   6
  -3 -13  -5 58.1953 202.147   4
   3 -13   5-41.9881 280.605   1
  -3 -13  -5-79.6826 178.695   2
   3 -13   6 838.946 258.004   6
   3  13   6 523.655 287.858   6
  -3 -13  -6 88.2078 212.580   4
   3 -13   6 246.886 269.363   1
  -3 -13  -6 433.526 189.333   2
   3 -13   7 92.3214 220.934   6
   3  13   7-225.367 283.522   6
  -3 -13  -7 349.438 239.124   4
   3 -13   7 119.282 261.325   1
  -3 -13  -7 301.450 186.812   2
   3 -13   8 422.055 255.862   6
   3  13   8 92.0040 263.999   6
  -3 -13  -8 257.620 266.000   4
   3 -13   8 520.214 275.617   1
  -3 -13  -8-10.2711 178.041   2
   3 -13   9-191.969 259.470   6
   3  13   9-276.646 288.651   6
  -3 -13  -9 425.697 274.221   4
  -3 -13  -9 231.566 178.908   2
   3 -13   9 707.850 300.204   1
   3  13  10 1343.12 353.787   6
  -3 -13 -10 1106.19 337.207   4
   3 -13  10 977.536 327.569   1
   3 -13  10 964.136 324.885   6
   3 -13  11-181.618 279.693   6
   3  13  11-252.922 319.282   6
  -3 -13 -11 556.541 319.441   4
   3 -13  11-258.080 303.210   1
   3  13  12 1879.13 410.910   6
  -3  13 -12 1153.27 430.470   4
   3 -13  12 1228.68 359.201   1
   3 -13  12 2130.81 385.388   6
   3  14 -14 617.154 357.303   5
  -3 -14  14 430.650 285.017   7
  -3 -14  14 99.3627 172.941   2
  -3  14  13-153.075 499.794   3
   3  14 -13-175.215 335.655   5
  -3 -14  13 143.384 249.644   7
  -3 -14  13 83.4205 165.124   2
   3  14 -12 448.392 328.292   5
  -3 -14  12-97.4043 240.766   7
  -3 -14  12 129.620 145.727   2
  -3  14  11 512.135 441.615   3
  -3 -14  11 468.552 250.541   7
  -3 -14  11 523.871 167.904   2
  -3  14  10 1342.34 497.252   3
  -3 -14  10 1311.58 292.120   7
  -3 -14  10 1323.23 198.100   2
   3 -14 -10 1442.53 269.953   1
  -3  14   9 756.050 436.118   3
   3 -14  -9 806.261 255.422   1
  -3 -14   9 773.644 181.561   2
  -3  14   8 1201.29 444.858   3
  -3 -14   8 1485.41 215.985   2
   3 -14  -8 1175.96 258.681   1
  -3  14   7-65.2437 355.567   3
   3 -14  -7 96.3503 217.193   1
  -3 -14   7 232.812 155.861   2
  -3  14   6 457.983 362.182   3
   3 -14  -6 1057.36 273.771   1
  -3 -14   6 1138.77 200.148   2
   3 -14  -5 290.350 245.273   1
  -3  14   5 700.258 350.466   3
   3  14  -5 389.456 190.564   6
  -3 -14   5 762.953 192.807   2
  -3  14   4 530.542 338.182   3
   3  14  -4 989.148 244.574   6
  -3 -14   4 1091.92 199.871   2
   3 -14  -4 1342.99 292.241   1
   3  14  -3 1466.34 261.088   6
  -3  14   3 1350.50 354.332   3
  -3 -14   3 1700.02 223.399   2
   3 -14  -3 1501.14 302.667   1
   3 -14  -2-30.2941 74.9836   6
  -3  14   2-51.4435 272.272   3
   3  14  -2-15.8768 198.930   6
  -3 -14   2 130.490 173.221   2
   3 -14  -2 146.302 245.143   1
   3  14  -1 2152.16 301.560   6
  -3 -14   1 2696.01 265.729   2
   3 -14  -1 2207.32 324.031   1
  -3 -14   1 2281.56 235.731   4
  -3  14   1 1527.72 288.543   3
   3 -14  -1 2017.06 170.058   6
   3 -14   0 195.106 153.022   6
   3  14   0-35.7547 207.696   6
  -3 -14   0 142.083 145.826   4
  -3 -14   0 215.128 172.563   2
   3 -14   0 356.832 259.579   1
   3 -14   1 332.909 166.578   6
   3  14   1 427.398 243.844   6
  -3 -14  -1 752.636 190.344   4
   3 -14   1 618.800 279.432   1
  -3 -14  -1 481.406 182.336   2
   3  14   2 3138.08 347.283   6
  -3 -14  -2 4195.57 309.305   2
   3 -14   2 3212.37 384.224   1
  -3 -14  -2 3744.14 315.754   4
   3 -14   2 3124.09 282.664   6
   3 -14   3 267.683 186.753   6
   3  14   3 533.723 256.083   6
  -3 -14  -3 45.4773 174.661   4
   3 -14   3 523.643 282.273   1
  -3 -14  -3 193.256 179.568   2
  -3 -14  -4 5752.87 350.381   2
   3 -14   4 5055.29 446.953   1
  -3 -14  -4 5610.07 406.298   4
   3 -14   4 4615.81 355.598   6
   3  14   4 4764.21 423.626   6
   3 -14   5 88.2288 209.558   6
   3  14   5 541.060 266.058   6
  -3 -14  -5 395.539 206.988   4
   3 -14   5 837.814 317.068   1
  -3 -14  -5 699.395 195.838   2
   3 -14   6 669.431 235.953   6
   3  14   6 863.178 280.153   6
  -3 -14  -6 922.325 267.001   4
   3 -14   6 1338.66 328.887   1
  -3 -14  -6 1042.03 208.818   2
   3 -14   7 776.426 262.449   6
   3  14   7 549.914 311.617   6
  -3 -14  -7 858.589 213.436   2
  -3 -14  -7 618.697 244.466   4
   3 -14   7 654.120 322.331   1
   3 -14   8 477.807 244.496   6
   3  14   8-21.6560 273.302   6
  -3 -14  -8-277.677 256.227   4
   3 -14   8-469.238 291.386   1
  -3 -14  -8-94.2374 170.218   2
   3 -14   9-14.3308 246.381   6
   3  14   9 67.7105 286.276   6
  -3 -14  -9 352.908 264.016   4
   3 -14   9 681.301 306.098   1
  -3 -14  -9 95.6268 175.250   2
   3 -14  10 175.265 279.458   6
   3  14  10 402.666 293.929   6
  -3 -14 -10 850.101 302.031   4
   3 -14  10 272.835 275.860   1
   3 -14  11 869.170 319.364   6
   3  14  11 960.769 345.377   6
  -3 -14 -11 1048.27 334.357   4
   3 -14  11 440.160 289.088   1
   3 -14  12-58.9801 301.999   6
   3  14  12 881.530 337.666   6
  -3 -14 -12 1317.67 377.342   4
   3 -14  12 668.234 322.888   1
  -3  15  13 490.147 533.291   3
   3  15 -13 314.410 323.441   5
  -3 -15  13-204.659 280.258   7
  -3 -15  13-99.9665 170.848   2
  -3  15  12 425.439 527.464   3
  -3 -15  12 429.659 260.661   7
  -3 -15  12 177.047 162.739   2
  -3  15  11 1061.08 540.712   3
  -3 -15  11 800.684 259.456   7
  -3 -15  11 637.498 167.954   2
  -3  15  10-195.440 410.854   3
  -3 -15  10 498.930 261.341   7
  -3 -15  10 2.77628 148.132   2
  -3  15   9-187.222 452.559   3
   3 -15  -9 97.9608 218.871   1
  -3 -15   9 147.295 152.412   2
  -3  15   8 422.701 402.363   3
   3 -15  -8 23.5013 222.609   1
  -3 -15   8-86.5048 149.095   2
   3 -15  -7 1075.15 263.843   1
  -3 -15   7 1280.49 206.450   2
   3 -15  -6 174.791 234.509   1
  -3  15   6 3.38062 344.941   3
  -3 -15   6 225.170 169.215   2
   3  15  -5 2602.77 306.126   6
  -3 -15   5 3169.10 269.490   2
   3 -15  -5 2674.41 349.921   1
  -3  15   4 455.302 342.518   3
   3  15  -4-127.146 188.147   6
  -3 -15   4-55.2911 162.548   2
   3 -15  -4 286.146 257.639   1
  -3  15   3-24.6528 298.669   3
   3  15  -3 234.760 217.594   6
  -3 -15   3 1.81577 166.019   2
   3 -15  -3-197.376 227.041   1
   3  15  -2 2125.83 286.051   6
  -3 -15   2 2551.94 255.101   2
   3 -15  -2 1987.05 325.654   1
  -3  15   1 348.249 255.889   3
   3  15  -1 820.536 241.511   6
  -3 -15   1 794.813 182.783   4
   3 -15  -1 408.980 256.308   1
  -3 -15   1 988.102 199.241   2
   3 -15  -1 741.774 130.202   6
   3 -15   0 441.891 149.675   6
   3  15   0 403.937 236.154   6
  -3 -15   0 258.121 147.923   4
   3 -15   0 187.881 255.512   1
  -3 -15   0 183.749 178.561   2
   3 -15   1-121.603 160.959   6
   3  15   1 355.684 240.530   6
  -3 -15  -1 147.713 162.866   4
   3 -15   1 261.054 274.560   1
  -3 -15  -1-76.6497 164.355   2
   3 -15   2 431.208 182.623   6
   3  15   2 484.355 256.096   6
  -3 -15  -2 285.503 185.567   4
   3 -15   2 73.1947 258.750   1
  -3 -15  -2 8.39407 171.336   2
  -3 -15  -3 7831.67 385.567   2
   3 -15   3 6621.56 511.708   1
  -3 -15  -3 7556.98 452.487   4
   3 -15   3 6409.32 386.339   6
   3  15   3 7083.55 496.195   6
   3 -15   4-122.803 200.307   6
   3  15   4 117.756 237.755   6
  -3 -15  -4 144.744 205.573   4
   3 -15   4-1.42883 253.180   1
  -3 -15  -4 30.7960 181.748   2
   3 -15   5 6150.50 493.766   1
  -3 -15  -5 6343.69 452.579   4
   3 -15   5 5067.53 390.768   6
   3  15   5 5726.40 459.573   6
   3 -15   6-350.387 227.277   6
   3  15   6 257.877 292.496   6
  -3 -15  -6 96.8886 233.421   4
   3 -15   6 254.404 276.710   1
  -3 -15  -6 380.533 192.947   2
   3 -15   7 826.434 259.625   6
   3  15   7 756.262 322.841   6
  -3 -15  -7 1051.25 287.634   4
   3 -15   7 320.388 286.219   1
  -3 -15  -7 845.350 207.534   2
   3 -15   8 102.432 238.255   6
   3  15   8 422.905 314.585   6
  -3 -15  -8 223.206 265.589   4
   3 -15   8 302.781 286.457   1
  -3 -15  -8 239.621 176.969   2
   3 -15   9 1243.66 307.764   6
   3  15   9 1495.10 359.054   6
  -3 -15  -9 1897.58 233.955   2
  -3 -15  -9 1657.43 337.128   4
   3 -15   9 1170.10 345.439   1
   3 -15  10 349.855 261.846   6
   3  15  10-65.3058 299.358   6
  -3 -15 -10-256.167 265.698   4
   3 -15  10 546.763 315.891   1
   3 -15  11 1160.56 324.295   6
   3  15  11 1130.24 346.864   6
  -3 -15 -11 834.414 317.205   4
   3 -15  11 857.933 333.927   1
  -3 -16  13 553.481 296.857   7
  -3 -16  13 901.201 205.688   2
  -3  16  12 548.175 529.216   3
  -3 -16  12 541.971 263.000   7
  -3 -16  12 1076.44 212.102   2
  -3  16  11 837.213 503.527   3
  -3 -16  11 619.731 282.744   7
  -3 -16  11 547.801 175.131   2
  -3  16  10 221.431 422.322   3
  -3 -16  10 757.003 262.005   7
  -3 -16  10 489.972 178.358   2
  -3  16   9 878.453 446.418   3
   3 -16  -9 1132.32 270.528   1
  -3 -16   9 775.537 181.875   2
  -3  16   8 605.435 421.018   3
   3 -16  -8 1043.80 259.373   1
  -3 -16   8 605.803 171.885   2
  -3  16   7 1469.30 446.975   3
  -3 -16   7 1756.03 218.409   2
   3 -16  -7 1727.77 305.695   1
   3 -16  -6-251.035 241.655   1
  -3  16   6 241.782 350.882   3
  -3 -16   6-291.878 170.660   2
  -3  16   5-246.988 350.211   3
  -3 -16   5 165.292 162.181   2
   3 -16  -5 38.2670 253.264   1
   3  16  -4 2171.00 308.751   6
  -3  16   4 1702.79 413.637   3
  -3 -16   4 2339.47 239.640   2
   3 -16  -4 2099.43 322.553   1
  -3  16   3-14.5050 306.200   3
   3  16  -3-7.28940 201.752   6
  -3 -16   3 213.224 174.132   2
   3 -16  -3-167.848 237.014   1
  -3  16   2 7.12198 279.905   3
   3  16  -2 123.077 216.495   6
   3 -16  -2 133.053 256.738   1
  -3 -16   2-138.261 171.211   2
  -3  16   1 433.460 263.475   3
   3  16  -1-175.122 210.479   6
  -3 -16   1 81.7009 158.941   4
   3 -16  -1 2.33601 246.853   1
  -3 -16   1 81.9073 168.774   2
   3 -16   0 120.151 136.555   6
   3  16   0 58.6601 219.146   6
  -3 -16   0 43.0653 154.637   4
   3 -16   0-322.219 274.636   1
  -3 -16   0-203.533 182.294   2
   3 -16   1 354.540 164.648   6
   3  16   1 423.770 260.671   6
  -3 -16  -1 394.012 180.490   4
   3 -16   1 224.975 255.684   1
  -3 -16  -1 541.465 195.903   2
   3  16   2 6492.03 472.992   6
  -3 -16  -2 8255.35 406.788   2
   3 -16   2 6635.96 503.484   1
  -3 -16  -2 7674.34 434.564   4
   3 -16   2 5709.72 349.757   6
   3 -16   3 484.167 191.636   6
   3  16   3 576.568 251.390   6
  -3 -16  -3 470.228 199.303   4
   3 -16   3 1014.90 320.991   1
  -3 -16  -3 787.876 218.005   2
  -3 -16  -4 1887.43 248.042   2
   3 -16   4 1766.52 354.931   1
  -3 -16  -4 1865.16 286.026   4
   3 -16   4 1601.61 258.666   6
   3  16   4 1830.16 322.663   6
   3 -16   5 83.5764 207.255   6
   3  16   5 294.150 278.149   6
  -3 -16  -5 184.750 224.659   4
   3 -16   5 379.322 272.616   1
  -3 -16  -5-22.8382 183.120   2
   3 -16   6 721.164 250.303   6
   3  16   6 35.8513 255.731   6
  -3 -16  -6 55.5197 218.998   4
   3 -16   6 247.684 282.907   1
  -3 -16  -6 243.174 172.252   2
   3 -16   7-83.6452 221.155   6
   3  16   7 554.523 299.063   6
  -3 -16  -7 748.845 258.047   4
   3 -16   7 523.848 304.211   1
  -3 -16  -7 645.247 194.740   2
   3 -16   8-64.9050 229.655   6
  -3 -16  -8 607.271 283.657   4
   3 -16   8 530.801 294.796   1
  -3 -16  -8 560.836 188.913   2
   3 -16   9 296.408 274.642   6
   3  16   9 804.132 342.300   6
  -3 -16  -9 1003.54 323.414   4
   3 -16   9 377.270 302.851   1
  -3 -16  -9 542.407 186.915   2
   3 -16  10 876.919 322.360   6
   3  16  10 766.362 356.101   6
  -3 -16 -10 1289.68 345.715   4
   3 -16  10 1305.96 363.537   1
   3 -16  11 70.1536 271.424   6
   3  16  11 1250.67 386.941   6
  -3 -16 -11 862.324 337.091   4
   3 -16  11 457.941 332.777   1
  -3  17  12 64.5152 486.834   3
  -3 -17  12-45.3228 263.271   7
  -3 -17  12 423.361 198.688   2
  -3  17  11 2293.23 565.164   3
  -3 -17  11 3266.82 293.121   2
  -3 -17  11 2193.97 338.442   7
  -3  17  10 245.249 419.631   3
  -3 -17  10 21.4934 252.321   7
  -3 -17  10 120.207 165.790   2
  -3  17   9 1046.03 474.739   3
   3 -17  -9 537.354 248.837   1
  -3 -17   9 337.011 172.502   2
  -3 -17   8 2792.52 260.937   2
   3 -17  -8 2652.80 320.543   1
  -3  17   8 2449.43 530.239   3
   3 -17  -7 138.401 248.515   1
  -3  17   7-18.7152 373.689   3
  -3 -17   7-4.69232 153.745   2
  -3 -17   6 5700.36 337.624   2
   3 -17  -6 5076.82 429.021   1
  -3  17   6 4871.55 592.568   3
  -3  17   5 375.629 362.932   3
  -3 -17   5 177.772 171.212   2
   3 -17  -5-234.973 266.894   1
   3  17  -4-44.8457 205.665   6
  -3 -17   4 108.559 159.705   2
   3 -17  -4-231.565 252.467   1
   3  17  -3 1464.40 288.195   6
  -3  17   3 1021.19 368.981   3
   3 -17  -3 949.865 284.838   1
  -3 -17   3 1083.62 206.302   2
  -3  17   2 418.575 305.368   3
   3  17  -2 140.809 202.787   6
  -3 -17   2 740.811 206.750   2
   3 -17  -2 161.564 273.748   1
  -3  17   1 304.465 255.110   3
   3  17  -1-0.54813 211.775   6
   3 -17  -1 271.948 268.443   1
  -3 -17   1 420.418 179.134   2
   3  17   0 2648.97 331.843   6
  -3 -17   0 3032.49 280.198   2
   3 -17   0 2791.49 392.858   1
  -3 -17   0 3295.75 307.357   4
   3 -17   1 665.333 179.702   6
   3  17   1 623.376 251.562   6
  -3 -17  -1 1238.17 233.991   4
   3 -17   1 178.686 259.682   1
  -3 -17  -1 771.120 209.809   2
   3 -17   2-203.545 182.155   6
   3  17   2 117.971 245.463   6
   3 -17   2-1.46494 269.292   1
  -3 -17  -2 86.6064 182.742   4
  -3 -17  -2-75.7710 175.784   2
   3 -17   3 140.729 185.404   6
   3  17   3 299.781 271.855   6
   3 -17   3 167.887 282.391   1
  -3 -17  -3 603.907 219.038   4
  -3 -17  -3 242.118 181.970   2
   3 -17   4-140.469 196.357   6
   3  17   4-227.726 255.546   6
   3 -17   4-33.0673 285.068   1
  -3 -17  -4 333.564 216.274   4
  -3 -17  -4 33.4268 171.955   2
   3 -17   5 474.967 224.668   6
   3  17   5-184.098 255.599   6
   3 -17   5 16.6432 275.066   1
  -3 -17  -5-12.7258 227.843   4
  -3 -17  -5 261.724 186.619   2
   3 -17   6 275.999 231.789   6
   3  17   6 144.911 268.602   6
  -3 -17  -6 75.6831 223.961   4
   3 -17   6 185.040 299.161   1
  -3 -17  -6 558.386 182.875   2
   3 -17   7 277.891 232.020   6
   3  17   7 94.6030 262.052   6
  -3 -17  -7 77.6066 246.341   4
   3 -17   7-250.785 283.061   1
  -3 -17  -7 368.922 181.167   2
   3 -17   8 388.407 253.535   6
   3  17   8 316.194 272.031   6
  -3 -17  -8 1179.94 320.112   4
   3 -17   8 93.6497 284.753   1
  -3 -17  -8 586.974 194.042   2
   3 -17   9 451.849 264.486   6
   3  17   9 1397.07 374.894   6
  -3 -17  -9 1213.49 210.731   2
  -3 -17  -9 1574.19 352.229   4
   3 -17   9 968.472 353.046   1
   3 -17  10-171.217 277.317   6
   3  17  10 151.150 322.372   6
  -3 -17 -10 413.831 295.476   4
   3 -17  10-479.077 307.714   1
  -3  18  12 748.519 542.754   3
  -3 -18  12 471.435 289.339   7
  -3 -18  12 687.153 205.083   2
  -3 -18  11-403.666 255.085   7
  -3 -18  11-211.048 196.122   2
  -3  18  10 647.766 462.263   3
  -3 -18  10 136.514 244.819   7
  -3 -18  10 735.086 199.793   2
  -3  18   9-450.559 445.219   3
  -3 -18   9 128.401 167.284   2
  -3  18   8 184.097 426.671   3
   3 -18  -8-29.8761 246.919   1
  -3 -18   8-91.9867 168.743   2
  -3 -18   7 4982.72 322.803   2
   3 -18  -7 4516.05 425.699   1
  -3  18   7 4323.50 582.822   3
  -3  18   6-380.948 375.537   3
  -3 -18   6 193.438 169.717   2
   3 -18  -6 409.743 277.997   1
  -3 -18   5 2975.33 269.904   2
   3 -18  -5 2945.37 371.515   1
  -3  18   5 2436.48 478.884   3
  -3  18   4-16.5964 349.255   3
   3  18  -4-225.619 206.722   6
   3 -18  -4-44.3822 243.867   1
  -3 -18   4 174.132 164.662   2
  -3  18   3 245.208 338.708   3
   3  18  -3 379.571 233.010   6
   3 -18  -3-275.741 285.113   1
  -3 -18   3 313.573 174.124   2
  -3  18   2 255.355 290.317   3
   3  18  -2 602.158 234.582   6
   3 -18  -2 272.924 278.260   1
  -3 -18   2 851.897 212.422   2
   3  18  -1-100.543 214.249   6
   3 -18  -1 153.944 281.198   1
  -3 -18   1-1.10668 170.285   2
   3  18   0 177.086 223.357   6
   3 -18   0 226.578 280.142   1
  -3 -18   0 113.479 179.832   4
  -3 -18   0 340.421 186.025   2
   3  18   1 181.721 232.998   6
   3 -18   1-310.051 298.908   1
  -3 -18  -1 230.331 187.631   4
  -3 -18  -1 150.412 179.558   2
   3 -18   2 591.513 193.980   6
   3  18   2 254.514 245.986   6
   3 -18   2 301.326 287.750   1
  -3 -18  -2 447.493 206.754   4
  -3 -18  -2 253.151 184.624   2
   3 -18   3 268.750 201.926   6
   3  18   3 524.951 275.063   6
   3 -18   3 309.941 280.683   1
  -3 -18  -3 603.685 214.715   4
  -3 -18  -3 455.878 190.031   2
   3 -18   4-213.255 214.047   6
   3  18   4 410.426 257.864   6
   3 -18   4 6.41448 278.072   1
  -3 -18  -4 233.853 214.690   4
  -3 -18  -4 89.8063 183.846   2
   3 -18   5-165.516 219.318   6
   3  18   5 650.693 283.934   6
   3 -18   5 580.892 308.887   1
  -3 -18  -5-40.4106 213.972   4
  -3 -18  -5 235.901 186.264   2
   3 -18   6-115.468 219.794   6
   3  18   6 64.8640 266.161   6
   3 -18   6 103.266 282.060   1
  -3 -18  -6 31.4312 239.968   4
  -3 -18  -6-18.3618 177.419   2
   3 -18   7 1193.52 289.079   6
  -3 -18  -7 2006.74 238.955   2
  -3 -18  -7 2441.62 383.305   4
   3 -18   7 1289.10 354.908   1
   3  18   7 2351.12 393.664   6
   3 -18   8 548.642 256.448   6
   3  18   8-185.945 295.363   6
  -3 -18  -8-367.311 286.915   4
   3 -18   8-468.528 321.755   1
  -3 -18  -8 282.012 174.366   2
   3 -18   9 835.673 317.310   6
   3  18   9 888.886 359.301   6
  -3 -18  -9 1082.64 345.005   4
   3 -18   9 601.992 328.838   1
   3 -18  10 220.782 304.840   6
   3  18  10 1270.03 383.208   6
  -3 -18 -10 1237.84 366.364   4
   3 -18  10 602.760 330.380   1
  -3  19  11 48.5176 494.338   3
  -3 -19  11 217.800 260.673   7
  -3 -19  11 20.6821 194.280   2
  -3  19  10 187.536 474.106   3
  -3 -19  10 512.186 280.743   7
  -3 -19  10-23.3219 186.357   2
  -3  19   9-404.446 479.880   3
  -3 -19   9-33.2002 252.450   7
  -3 -19   9-157.556 167.328   2
  -3  19   8-132.217 409.936   3
   3 -19  -8 350.581 271.375   1
  -3 -19   8 229.858 175.531   2
   3 -19  -7 126.933 258.679   1
  -3  19   7-22.9311 389.231   3
  -3 -19   7 254.143 174.039   2
  -3  19   6 959.714 457.285   3
  -3 -19   6 515.993 183.451   2
   3 -19  -6 880.026 304.438   1
  -3  19   5 458.232 401.826   3
   3 -19  -5 252.024 272.326   1
  -3 -19   5 323.372 176.642   2
  -3 -19   4 2559.49 260.575   2
   3 -19  -4 2367.63 358.090   1
  -3  19   4 2288.34 455.799   3
  -3  19   3-213.139 332.310   3
   3  19  -3 319.662 232.299   6
   3 -19  -3 496.861 295.590   1
  -3 -19   3 69.0234 169.169   2
  -3  19   2 478.945 306.748   3
   3  19  -2-116.384 212.253   6
   3 -19  -2 446.642 292.955   1
  -3 -19   2 330.711 182.889   2
   3  19  -1 231.185 227.884   6
   3 -19  -1-92.3794 280.608   1
  -3 -19   1-216.305 186.808   2
   3  19   0 359.893 245.497   6
   3 -19   0 128.358 285.569   1
  -3 -19   0 528.674 199.677   2
   3  19   1-156.462 234.869   6
   3 -19   1 406.707 316.129   1
  -3 -19  -1 176.677 187.212   4
  -3 -19  -1 138.975 175.967   2
   3  19   2 652.783 274.589   6
   3 -19   2 106.175 286.947   1
  -3 -19  -2 547.869 216.912   4
  -3 -19  -2 907.953 208.481   2
   3  19   3 530.477 271.214   6
   3 -19   3 161.206 298.242   1
  -3 -19  -3 486.513 204.957   4
  -3 -19  -3 172.425 177.275   2
   3  19   4 1946.74 346.352   6
  -3 -19  -4 2019.89 248.096   2
  -3 -19  -4 1599.94 284.244   4
   3 -19   4 1529.57 369.102   1
   3 -19   4 1405.50 258.875   6
   3 -19   5 279.029 226.158   6
   3  19   5-276.740 263.662   6
   3 -19   5 874.973 321.323   1
  -3 -19  -5 714.547 256.400   4
  -3 -19  -5 244.011 184.494   2
   3 -19   6 1377.88 281.333   6
   3  19   6 1668.31 352.652   6
   3 -19   6 1882.22 395.470   1
  -3 -19  -6 2411.85 263.442   2
  -3 -19  -6 2228.98 370.606   4
   3 -19   7 349.002 242.565   6
   3  19   7 270.143 282.793   6
   3 -19   7-62.9422 300.090   1
  -3 -19  -7 423.209 263.551   4
  -3 -19  -7 186.079 181.673   2
   3 -19   8 739.761 286.913   6
   3  19   8 357.409 308.349   6
   3 -19   8-109.892 318.057   1
  -3 -19  -8 1147.73 323.622   4
  -3 -19  -8 647.167 185.866   2
   3 -19   9 653.353 301.549   6
   3  19   9 701.624 339.214   6
  -3 -19  -9-131.662 280.165   4
   3 -19   9-25.2424 337.819   1
  -3  20  10 2.36856 473.959   3
  -3 -20  10 344.472 264.594   7
  -3 -20  10 389.319 199.109   2
  -3  20   9 900.145 477.635   3
  -3 -20   9 883.761 290.739   7
  -3 -20   9 1041.73 238.348   2
   3 -20  -8 228.696 267.759   1
  -3  20   8 440.779 445.972   3
  -3 -20   8 642.607 196.657   2
  -3  20   7 1513.95 520.751   3
  -3 -20   7 1128.46 219.684   2
   3 -20  -7 952.859 330.355   1
  -3  20   6 121.182 409.279   3
   3 -20  -6 729.571 292.451   1
  -3 -20   6 92.4762 166.995   2
  -3  20   5 246.160 371.031   3
   3 -20  -5 836.210 296.364   1
  -3 -20   5 1060.11 212.909   2
  -3  20   4 213.323 362.596   3
   3 -20  -4 531.108 318.026   1
  -3 -20   4 305.872 182.397   2
  -3  20   3 560.450 359.362   3
   3  20  -3-148.602 224.193   6
   3 -20  -3 169.283 275.850   1
  -3 -20   3 735.622 202.509   2
  -3  20   2 488.180 319.956   3
   3  20  -2 806.794 275.227   6
   3 -20  -2 444.091 307.692   1
  -3 -20   2 768.479 213.067   2
   3  20  -1-309.767 259.542   6
   3 -20  -1-73.4137 274.766   1
  -3 -20   1 70.0297 173.699   2
   3  20   0 194.729 237.264   6
   3 -20   0 441.319 306.545   1
  -3 -20   0 221.067 193.402   2
   3  20   1 138.058 231.060   6
   3 -20   1 28.8422 295.362   1
  -3 -20  -1 64.8639 183.550   2
   3  20   2 129.118 250.942   6
   3 -20   2 473.648 327.116   1
  -3 -20  -2-59.1241 196.284   4
  -3 -20  -2 239.400 179.082   2
   3  20   3 30.8325 246.125   6
   3 -20   3-361.971 301.810   1
  -3 -20  -3 416.944 226.121   4
  -3 -20  -3 228.188 182.287   2
   3  20   4 1143.15 312.626   6
   3 -20   4 847.874 328.285   1
  -3 -20  -4 1355.73 274.199   4
  -3 -20  -4 649.847 199.581   2
   3  20   5-40.0134 277.850   6
   3 -20   5-559.938 340.841   1
  -3 -20  -5 90.5041 236.278   4
  -3 -20  -5-125.279 184.834   2
   3 -20   6 907.740 267.003   6
   3  20   6 949.802 325.107   6
   3 -20   6 477.097 326.644   1
  -3 -20  -6 942.813 206.057   2
   3 -20   7 307.895 248.675   6
   3  20   7 97.0607 290.308   6
   3 -20   7 66.7475 313.314   1
  -3 -20  -7 63.0054 254.617   4
  -3 -20  -7 4.43299 179.745   2
   3 -20   8 134.735 251.915   6
   3  20   8 880.308 359.408   6
  -3 -20  -8 1233.19 230.620   2
   3 -20   8 318.108 311.238   1
  -3 -20  -8 1089.28 345.195   4
  -3  21  10 138.675 480.812   3
  -3 -21  10 191.423 269.342   7
  -3 -21  10 316.862 220.829   2
  -3  21   9 693.222 516.328   3
  -3 -21   9 14.6213 274.509   7
  -3 -21   9-31.7805 199.993   2
  -3  21   8-706.712 489.794   3
  -3 -21   8 179.118 200.586   2
  -3  21   7 986.771 503.510   3
  -3 -21   7 662.343 208.906   2
   3 -21  -7 579.837 294.762   1
  -3  21   6-279.190 436.991   3
   3 -21  -6 202.615 280.308   1
  -3 -21   6-70.1119 182.239   2
  -3  21   5 922.739 427.043   3
   3 -21  -5 450.628 280.312   1
  -3 -21   5 861.035 215.469   2
  -3  21   4 234.192 354.028   3
   3 -21  -4 321.940 308.114   1
  -3 -21   4-104.798 179.933   2
  -3  21   3-63.9234 309.019   3
   3  21  -3 450.182 253.062   6
   3 -21  -3 134.151 299.808   1
  -3 -21   3 427.727 195.714   2
  -3  21   2-72.9478 294.015   3
   3  21  -2 22.9001 227.094   6
   3 -21  -2-264.949 306.134   1
  -3 -21   2 138.222 191.791   2
   3  21  -1 72.4064 223.043   6
   3 -21  -1 409.732 311.631   1
  -3 -21   1 257.856 202.324   2
   3  21   0-53.2295 231.557   6
   3 -21   0-53.0713 287.550   1
  -3 -21   0 345.753 194.200   2
   3  21   1 849.082 291.248   6
   3 -21   1 891.725 324.808   1
  -3 -21  -1 823.646 221.981   2
   3  21   2 393.181 273.701   6
   3 -21   2 601.991 329.134   1
  -3 -21  -2 601.405 250.252   4
  -3 -21  -2 841.722 210.274   2
   3  21   3 101.549 246.264   6
   3 -21   3 381.949 320.243   1
  -3 -21  -3 372.507 210.614   4
  -3 -21  -3 159.520 196.525   2
   3  21   4 160.102 276.389   6
   3 -21   4 404.986 323.162   1
  -3 -21  -4 392.175 259.223   4
  -3 -21  -4 472.301 206.671   2
   3  21   5 895.873 303.374   6
   3 -21   5 583.856 345.993   1
  -3 -21  -5 518.628 253.204   4
  -3 -21  -5 618.236 208.417   2
   3  21   6 224.819 267.644   6
  -3 -21  -6 284.825 261.351   4
  -3 -21  -6 47.3407 189.766   2
   3  21   7 1045.78 327.569   6
  -3 -21  -7 1078.38 235.615   2
  -3 -21  -7 1504.23 344.701   4
   3 -21   7 1141.84 372.184   1
  -3  22   9 249.835 485.867   3
  -3 -22   9-704.262 293.865   7
  -3 -22   9 75.1663 209.725   2
  -3  22   8 137.776 461.168   3
  -3 -22   8 106.723 208.486   2
  -3  22   7 407.105 452.552   3
   3 -22  -7 353.577 297.686   1
  -3 -22   7 214.965 197.929   2
  -3  22   6 866.002 441.323   3
   3 -22  -6 466.156 284.763   1
  -3 -22   6 1068.88 242.033   2
  -3  22   5 198.375 404.906   3
   3 -22  -5-71.6377 277.306   1
  -3 -22   5 9.78344 191.657   2
  -3  22   4 993.377 388.221   3
   3 -22  -4 853.188 338.162   1
  -3 -22   4 630.598 205.941   2
  -3  22   3-458.063 351.939   3
   3 -22  -3 455.554 346.051   1
  -3 -22   3 109.947 182.118   2
   3  22  -2 113.235 232.187   6
  -3 -22   2-91.2027 184.734   2
   3  22  -1 107.766 236.351   6
   3 -22  -1 377.599 319.511   1
  -3 -22   1-6.02179 187.212   2
   3  22   0-94.4545 250.352   6
   3 -22   0 322.364 314.088   1
  -3 -22   0 529.470 206.935   2
   3  22   1 119.622 234.022   6
   3 -22   1 572.627 336.205   1
  -3 -22  -1 141.474 195.917   2
   3  22   2 1141.49 308.255   6
  -3 -22  -2 1568.40 254.742   2
   3 -22   2 873.702 354.825   1
   3  22   3 232.712 257.133   6
   3 -22   3 10.0213 315.860   1
  -3 -22  -3 123.204 223.037   4
  -3 -22  -3-189.566 197.768   2
   3  22   4-90.2470 290.758   6
   3 -22   4 445.324 333.281   1
  -3 -22  -4 407.123 267.489   4
  -3 -22  -4 43.8430 197.771   2
   3  22   5 493.901 296.603   6
   3 -22   5 590.156 315.024   1
  -3 -22  -5 986.811 313.983   4
  -3 -22  -5 384.088 200.579   2
   3  22   6 1776.36 378.216   6
  -3 -22  -6 2250.87 269.397   2
  -3 -22  -6 2461.47 392.832   4
   3 -22   6 1656.60 406.564   1
  -3 -23   8 416.808 299.836   7
  -3  23   7 924.103 501.930   3
   3 -23  -7 188.214 312.505   1
  -3 -23   7 812.071 242.238   2
  -3  23   6 476.564 433.474   3
   3 -23  -6-390.612 314.147   1
  -3 -23   6 468.064 223.383   2
  -3  23   5 737.781 405.163   3
  -3 -23   5 1384.36 269.099   2
   3 -23  -5 1258.63 347.178   1
  -3  23   4-237.872 363.931   3
   3 -23  -4 613.752 344.265   1
  -3 -23   4 262.581 214.371   2
  -3  23   3 42.2626 335.671   3
   3 -23  -3 727.539 343.331   1
  -3 -23   3 1033.01 240.457   2
   3  23  -2 800.105 261.845   6
  -3 -23   2 1318.12 257.107   2
   3 -23  -2 635.743 337.072   1
   3  23  -1 51.2103 231.966   6
   3 -23  -1-125.184 310.997   1
  -3 -23   1 73.7513 200.654   2
   3  23   0-377.551 264.450   6
   3 -23   0 425.867 340.380   1
  -3 -23   0 24.4586 194.047   2
   3  23   1 766.342 292.071   6
   3 -23   1 768.132 322.330   1
  -3 -23  -1 1008.36 233.675   2
   3  23   2 77.5559 247.212   6
   3 -23   2-2.41690 323.827   1
  -3 -23  -2 242.600 203.537   2
   3  23   3 1232.20 324.013   6
  -3 -23  -3 827.059 231.673   2
   3  23   4 166.909 278.789   6
   3 -23   4 553.918 355.054   1
  -3 -23  -4-215.104 261.758   4
  -3 -23  -4-167.940 194.513   2
   3  23   5 609.281 311.232   6
   3 -23   5-228.546 344.607   1
  -3 -23  -5 545.899 282.216   4
  -3 -23  -5 125.972 210.380   2
  -3  24   6 285.245 426.632   3
   3 -24  -6 203.973 296.654   1
  -3 -24   6-4.02529 222.186   2
  -3  24   5 611.745 418.648   3
   3 -24  -5 387.434 315.916   1
  -3 -24   5 415.492 213.506   2
  -3  24   4 46.6188 354.996   3
   3 -24  -4 125.463 320.488   1
  -3 -24   4 393.676 229.105   2
  -3  24   3 949.129 395.370   3
  -3 -24   3 1619.53 291.442   2
   3 -24  -3 1547.00 398.047   1
   3 -24  -2-186.960 341.117   1
  -3 -24   2 349.917 222.056   2
   3  24  -1 189.562 253.894   6
   3 -24  -1 381.076 333.880   1
  -3 -24   1 607.765 243.190   2
   3  24   0-119.017 260.978   6
   3 -24   0 240.285 316.089   1
  -3 -24   0 105.406 206.815   2
   3  24   1 453.296 273.729   6
   3 -24   1 619.102 366.710   1
  -3 -24  -1 585.527 235.493   2
   3  24   2 200.143 272.618   6
   3 -24   2 531.774 355.034   1
  -3 -24  -2-180.041 224.047   2
   3  24   3 993.554 327.237   6
   3 -24   3 891.391 379.415   1
  -3 -24  -3 1431.17 266.571   2
   3  24   4-215.601 284.917   6
   3 -24   4 791.618 384.119   1
  -3 -24  -4 379.839 227.689   2
   3 -25  -4 2145.86 436.552   1
  -3 -25   4 1934.50 304.803   2
   3 -25  -3-841.507 359.455   1
  -3 -25   3-345.125 233.950   2
   3 -25  -2 304.082 328.471   1
  -3 -25   2 336.633 244.111   2
   3  25  -1 76.5740 238.132   6
   3 -25  -1 790.194 383.752   1
  -3 -25   1 251.445 233.103   2
   3  25   0-87.1420 265.474   6
   3 -25   0 637.470 393.892   1
  -3 -25   0 646.193 257.304   2
   3  25   1-240.368 252.914   6
   3 -25   1-373.709 330.850   1
  -3 -25  -1-295.975 241.510   2
   3  25   2 413.653 284.025   6
  -3 -25  -2 878.270 268.671   2
  -4   0  14 4413.16 654.445   3
  -4   0  13 369.058 199.324   7
  -4   0  13 636.106 464.604   3
  -4   0  12 1755.61 250.952   2
  -4   0  12 1770.87 473.667   3
  -4   0  11 26.6306 182.626   2
  -4   0  11-233.280 344.336   3
  -4   0  10 3380.33 302.571   2
  -4   0  10 3885.99 491.990   3
  -4   0   9-26.9644 269.027   3
  -4   0   8 265.082 214.279   2
  -4   0   8-223.855 250.335   3
  -4   0   7 117.452 221.549   2
  -4   0   7 60.2007 242.636   3
   4   0  -6 1803.65 251.302   6
  -4   0   6 2276.73 327.521   2
  -4   0   6 2567.69 342.764   3
   4   0  -6 2164.33 290.789   1
  -4   0   5-105.584 201.654   3
   4   0  -5-160.551 185.910   6
  -4   0   5 135.174 241.411   2
   4   0  -5-186.837 217.386   1
   4   0  -4 1271.47 277.893   1
   4   0  -4 1778.08 269.556   6
  -4   0   4 1358.05 148.939   4
  -4   0   4 1241.30 278.861   2
  -4   0   4 1422.46 238.776   3
  -4   0   3-172.243 172.839   3
   4   0  -3-110.734 196.998   6
   4   0  -3 344.917 244.377   1
  -4   0   3-21.0475 121.949   4
   4   0  -2 2265.93 287.664   6
  -4   0   2 1928.72 210.731   4
   4   0  -2 2188.44 317.821   1
  -4   0   2 1855.86 221.359   3
   4   0  -1 116.298 206.959   6
  -4   0   1-120.086 171.178   4
   4   0  -1-177.886 228.073   1
  -4   0   0 2856.16 281.603   4
   4   0   0 2622.35 342.919   1
   4   0   0 3052.12 322.484   6
   4   0   1-139.394 243.132   6
  -4   0  -1 294.098 197.818   4
   4   0   1 122.943 240.252   1
   4   0   2 351.674 242.669   6
  -4   0  -2 773.620 239.364   4
   4   0   2 247.104 244.540   1
   4   0   3 631.524 251.683   6
  -4   0  -3-17.6547 200.856   4
   4   0   3 610.484 286.774   1
   4   0   4 296.197 247.096   6
   4   0   4 168.276 264.595   1
  -4   0  -4 80.2222 226.392   4
   4   0   5-99.6927 250.215   6
   4   0   5-247.033 267.442   1
  -4   0  -5-259.725 250.806   4
   4   0   6 1000.93 322.948   6
   4   0   6 950.096 306.911   1
  -4   0  -6 851.359 301.154   4
   4   0   7-5.11469 280.563   6
   4   0   7 408.505 281.306   1
  -4   0  -7-1.00787 259.333   4
  -4   0  -8 3250.00 450.478   4
   4   0   8 3777.15 422.560   1
   4   0   8 2930.63 417.866   6
   4   0   9 27.9203 293.523   6
  -4   0  -9 327.992 311.541   4
   4   0   9 200.539 298.545   1
   4   0  10 1056.00 355.657   6
  -4   0 -10 958.586 327.376   2
  -4   0 -10 796.423 357.533   4
   4   0  10 1379.91 340.546   1
   4   0  11-361.191 361.221   6
  -4   0 -11 355.325 362.917   4
  -4   0 -11 3.67461 289.682   2
   4   0  11-89.5313 282.417   1
  -4  -1  14 930.562 512.467   3
  -4   1  14-8.22371 448.733   3
  -4  -1  13-15.6414 190.199   7
  -4  -1  13 122.295 427.620   3
  -4   1  13 633.060 472.770   3
  -4   1  12-169.338 188.472   2
  -4  -1  12-89.5583 179.633   2
  -4  -1  12 240.677 188.755   7
  -4   1  12 127.712 189.085   7
  -4  -1  12 153.242 435.773   3
  -4   1  12 155.516 416.419   3
  -4   1  11 200.955 207.420   2
  -4  -1  11 570.134 210.570   2
  -4  -1  11-72.0775 330.407   3
  -4   1  11 456.391 378.519   3
  -4   1  10 15.8015 191.741   2
  -4  -1  10 172.052 188.743   2
  -4  -1  10 154.451 281.847   3
  -4   1  10-322.533 354.847   3
  -4   1   9-12.5320 181.951   2
  -4  -1   9 432.136 226.801   2
  -4  -1   9-330.139 287.564   3
  -4   1   9 485.064 294.337   3
  -4   1   8 201.254 210.884   2
  -4  -1   8 84.4898 202.248   2
  -4  -1   8 268.129 277.591   3
  -4   1   8 6.31535 266.217   3
  -4   1   7 781.347 266.683   3
  -4   1   7 654.524 241.315   2
  -4  -1   7 1292.37 257.807   2
   4  -1  -7 1240.74 269.051   1
  -4  -1   7 660.545 278.009   3
  -4   1   6 265.834 231.564   3
   4   1  -6 375.467 197.933   6
   4  -1  -6 190.612 168.837   6
  -4   1   6 237.799 244.895   2
  -4  -1   6-81.2000 224.446   2
   4  -1  -6-141.887 227.546   1
  -4  -1   6 164.016 225.089   3
   4  -1  -5 1875.17 251.139   6
   4   1  -5 2447.69 278.758   6
  -4   1   5 2182.87 328.967   2
  -4  -1   5 1928.85 316.181   2
   4  -1  -5 2233.60 312.252   1
  -4  -1   5 2364.94 295.517   3
  -4   1   5 1973.35 288.642   3
   4   1  -5 2457.31 316.232   1
  -4  -1   4-148.341 185.048   3
  -4   1   4 89.3446 186.150   3
   4  -1  -4 114.938 184.292   6
   4   1  -4-121.281 193.602   6
   4  -1  -4 223.634 224.811   1
  -4   1   4 65.8230 110.957   4
  -4  -1   4-204.755 254.168   2
  -4  -1   4-47.4223 94.7284   4
   4   1  -4 388.130 232.361   1
   4  -1  -3 3936.03 326.128   6
   4   1  -3 4217.52 351.151   6
  -4  -1   3 4665.66 408.394   2
  -4   1   3 4240.84 269.280   4
  -4  -1   3 3758.13 235.663   4
   4  -1  -3 4551.92 394.954   1
   4   1  -3 4900.09 395.121   1
  -4  -1   3 3743.06 265.935   3
  -4   1   3 3113.83 277.990   3
  -4  -1   2 104.350 139.063   3
  -4   1   2 314.746 184.677   3
   4  -1  -2-175.795 202.027   6
   4   1  -2 179.689 208.999   6
  -4   1   2 50.3911 151.121   4
  -4  -1   2 35.6667 129.293   4
  -4  -1   2 307.966 266.196   2
   4   1  -2 207.973 239.176   1
   4  -1  -2 253.257 246.744   1
  -4  -1   1 4981.19 433.371   2
  -4   1   1 5328.20 340.656   4
  -4  -1   1 5069.40 316.148   4
   4  -1  -1 5726.17 432.487   1
   4   1  -1 5478.84 418.527   1
   4  -1  -1 5476.86 391.561   6
   4   1  -1 5175.32 387.004   6
   4  -1   0 727.440 248.050   6
  -4  -1   0 1031.49 211.087   4
  -4   1   0 635.099 186.333   4
   4  -1   0 667.643 266.245   1
   4   1   0 1066.98 288.268   1
   4   1   0 1068.92 284.337   6
   4  -1   1 1202.49 261.021   6
   4   1   1 752.753 233.985   6
  -4  -1  -1 1219.57 240.690   4
   4  -1   1 1221.57 292.182   1
  -4   1  -1 831.097 220.111   4
   4   1   1 1244.22 288.264   1
   4  -1   2 392.290 240.692   6
   4   1   2-95.8150 252.932   6
   4  -1   2 633.016 250.683   1
  -4   1  -2 709.162 231.819   4
  -4  -1  -2 921.955 259.829   4
   4   1   2 446.569 249.082   1
  -4   1  -3 2762.09 334.248   4
  -4  -1  -3 3242.45 366.408   4
   4  -1   3 2903.07 363.719   1
   4   1   3 3438.15 377.445   1
   4  -1   3 2985.56 351.336   6
   4   1   3 2860.11 362.851   6
  -4   1  -4 4501.95 414.527   4
  -4  -1  -4 3962.16 407.921   4
   4  -1   4 3805.77 388.052   1
   4   1   4 4321.81 418.543   1
   4  -1   4 3390.09 390.576   6
   4   1   4 3665.07 387.492   6
   4  -1   5 237.465 274.966   6
   4   1   5 162.281 252.541   6
   4  -1   5-83.7485 272.529   1
  -4   1  -5-397.617 243.367   4
  -4  -1  -5-264.246 255.033   4
   4   1   5 183.360 250.498   1
   4  -1   6 363.769 271.538   6
   4   1   6 220.721 272.599   6
   4  -1   6 0.27010 265.947   1
  -4   1  -6-69.7199 258.269   4
  -4  -1  -6 272.670 273.824   4
   4   1   6 552.708 307.190   1
   4  -1   7 1610.71 328.646   6
   4   1   7 1329.63 343.127   6
  -4   1  -7 1304.05 335.579   4
  -4  -1  -7 790.768 294.170   4
   4  -1   7 1582.81 340.014   1
   4   1   7 1895.70 320.444   1
   4  -1   8 27.9846 276.776   6
   4   1   8 143.384 290.962   6
  -4  -1  -8 669.818 334.283   2
   4  -1   8 474.192 300.923   1
  -4   1  -8-278.623 276.173   4
  -4  -1  -8-154.161 281.503   4
   4   1   8 30.2031 260.316   1
  -4  -1  -9 2520.58 385.033   2
  -4   1  -9 2647.42 426.718   4
  -4  -1  -9 2205.02 411.888   4
   4  -1   9 2978.17 396.424   1
   4   1   9 3253.69 390.218   1
   4  -1   9 2748.88 417.840   6
   4   1   9 2337.43 411.197   6
   4  -1  10 29.4169 302.800   6
   4   1  10 472.851 353.696   6
   4  -1  10 46.3438 288.114   1
  -4   1 -10-241.411 311.242   4
  -4  -1 -10 217.982 298.798   4
  -4  -1 -10 9.69327 295.095   2
   4   1  10 93.2215 267.931   1
   4  -1  11 596.036 334.253   6
   4   1  11-31.9066 349.019   6
   4  -1  11 471.037 313.408   1
  -4   1 -11 26.8383 343.406   4
  -4  -1 -11 421.533 339.052   4
  -4  -1 -11 479.175 305.288   2
   4   1  11 258.382 269.399   1
  -4  -2  14 369.128 214.372   7
  -4  -2  14 952.307 488.476   3
  -4   2  14 582.427 454.907   3
  -4  -2  13 884.910 199.551   2
  -4  -2  13 471.621 206.907   7
  -4  -2  13 739.400 454.803   3
  -4   2  13 477.155 461.937   3
  -4   2  12-78.9271 195.667   2
  -4  -2  12 245.277 182.291   2
  -4  -2  12-150.695 204.681   7
  -4  -2  12 263.407 376.359   3
  -4   2  12-351.357 428.131   3
  -4   2  11 862.097 240.979   2
  -4  -2  11 338.475 176.891   2
  -4  -2  11-110.727 313.808   3
  -4   2  11 413.639 388.388   3
  -4   2  10 2404.52 293.908   2
  -4  -2  10 1884.71 247.235   2
  -4  -2  10 1934.82 391.702   3
  -4   2  10 1160.64 398.643   3
  -4   2   9 2244.79 285.762   2
  -4  -2   9 2527.98 290.375   2
  -4  -2   9 2002.55 367.148   3
  -4   2   9 2194.31 407.874   3
  -4   2   8 298.532 301.389   3
  -4   2   8 589.537 241.498   2
  -4  -2   8 361.079 226.172   2
  -4  -2   8 250.136 268.979   3
   4  -2  -7 1067.34 262.348   1
  -4   2   7 289.708 251.236   3
  -4   2   7 944.733 259.585   2
  -4  -2   7 987.936 248.116   2
  -4  -2   7 1485.81 321.018   3
  -4   2   6 388.562 238.878   3
   4  -2  -6 437.085 227.111   1
  -4   2   6 106.439 243.560   2
   4   2  -6-167.863 196.817   6
   4  -2  -6-77.3340 163.318   6
  -4  -2   6-184.600 212.402   2
  -4  -2   6 234.438 247.993   3
  -4  -2   5 495.100 221.409   3
  -4   2   5 4.69098 207.981   3
   4  -2  -5 371.350 184.343   6
   4   2  -5 688.045 224.773   6
   4  -2  -5 146.453 229.689   1
  -4   2   5 229.731 95.3982   4
  -4  -2   5 396.475 234.405   2
  -4  -2   4 739.840 214.501   3
  -4   2   4 557.355 224.791   3
   4  -2  -4 828.383 268.084   1
   4  -2  -4 288.244 180.218   6
   4   2  -4 768.916 222.188   6
  -4  -2   4 602.516 113.682   4
   4   2  -4 453.064 232.588   1
  -4   2   4 615.833 144.466   4
  -4  -2   4 255.327 230.052   2
   4  -2  -3 1480.21 233.382   6
  -4   2   3 1001.99 228.527   3
   4   2  -3 857.600 223.906   6
  -4  -2   3 1599.17 301.311   2
  -4   2   3 1189.07 177.383   4
  -4  -2   3 1380.72 171.786   4
  -4  -2   3 1128.46 197.598   3
   4  -2  -3 1386.31 292.922   1
   4   2  -2 1200.51 261.315   6
  -4   2   2 884.954 219.670   3
   4  -2  -2 811.475 222.434   6
   4   2  -2 1190.41 266.241   1
  -4   2   2 1002.37 189.808   4
  -4  -2   2 747.777 165.896   4
  -4  -2   2 1207.63 295.137   2
   4  -2  -2 1167.38 289.469   1
  -4  -2   2 836.536 140.454   3
   4  -2  -1 303.473 215.556   6
   4   2  -1 36.8897 218.421   6
  -4   2   1 116.286 137.105   3
  -4   2   1 373.776 168.519   4
   4  -2  -1 648.421 268.768   1
  -4  -2   1 384.589 159.255   4
  -4  -2   1-210.818 252.749   2
   4   2  -1 85.9051 229.962   1
  -4  -2   0 4288.40 414.255   2
  -4   2   0 4046.53 328.155   4
  -4  -2   0 4150.48 313.414   4
   4  -2   0 4531.36 424.399   1
   4   2   0 4629.69 387.443   1
   4  -2   0 3403.33 332.631   6
   4   2   0 4575.55 375.821   6
   4  -2   1-51.4183 235.456   6
   4   2   1 194.154 222.967   6
   4  -2   1 17.4146 243.508   1
   4   2   1 377.396 236.527   1
  -4   2  -1 354.811 196.843   4
  -4  -2  -1-185.826 188.552   4
  -4  -2  -1 37.8385 266.247   2
   4  -2   2 2.57118 228.609   6
   4   2   2 278.118 250.335   6
   4  -2   2-17.1132 243.295   1
   4   2   2 133.265 233.698   1
  -4   2  -2 76.0077 201.053   4
  -4  -2  -2 211.356 196.977   4
  -4  -2  -2 387.566 275.940   2
   4   2   3 77.3864 242.609   1
   4  -2   3 577.555 280.535   1
   4  -2   3-115.841 227.474   6
   4   2   3-136.564 250.865   6
  -4   2  -3-160.868 204.887   4
  -4  -2  -3 309.654 199.245   4
  -4  -2  -3 92.1762 255.246   2
   4   2   4 417.579 268.398   1
   4  -2   4 405.113 272.106   1
   4  -2   4 269.388 257.507   6
   4   2   4-92.1874 250.117   6
  -4   2  -4 447.212 229.270   4
  -4  -2  -4 196.980 230.020   4
  -4  -2  -4 87.9214 268.638   2
   4   2   5 1261.12 315.324   6
  -4   2  -5 1435.21 316.087   4
  -4  -2  -5 1466.08 318.106   4
  -4  -2  -5 1154.87 320.190   2
   4  -2   5 1801.51 335.432   1
   4   2   5 1880.57 325.135   1
   4  -2   5 1538.58 331.132   6
   4  -2   6 809.839 293.022   1
   4   2   6 1576.94 327.838   6
  -4   2  -6 1144.83 303.578   4
  -4  -2  -6 1272.31 312.709   4
  -4  -2  -6 1710.77 338.549   2
   4   2   6 1707.78 320.866   1
   4  -2   6 1730.17 350.084   6
   4  -2   7 49.7074 276.053   1
   4  -2   7-124.557 290.311   6
   4   2   7-349.362 297.046   6
  -4   2  -7 615.225 296.329   4
  -4  -2  -7 11.9696 248.486   4
  -4  -2  -7 20.0577 271.571   2
   4   2   7 239.137 244.788   1
   4   2   8 1296.36 345.426   6
  -4  -2  -8 2775.03 381.072   2
  -4   2  -8 2198.73 384.899   4
  -4  -2  -8 2011.72 370.037   4
   4  -2   8 2670.92 390.832   1
   4   2   8 1881.97 324.892   1
   4  -2   8 1882.84 366.325   6
   4   2   9 356.777 278.837   1
   4  -2   9 598.522 306.324   1
   4  -2   9-211.194 317.161   6
   4   2   9 565.463 322.561   6
  -4   2  -9-246.662 321.224   4
  -4  -2  -9 564.604 325.045   4
  -4  -2  -9 251.947 292.314   2
   4  -2  10 1720.88 392.558   6
   4   2  10 782.589 335.561   6
   4  -2  10 276.648 288.495   1
   4   2  10 883.565 295.390   1
  -4   2 -10 578.525 353.952   4
  -4  -2 -10-219.577 333.117   4
  -4  -2 -10 1356.71 337.471   2
   4  -2  11-471.792 346.530   6
   4   2  11 62.3861 324.481   6
   4  -2  11 532.632 304.702   1
   4   2  11 649.372 275.454   1
  -4   2 -11-284.835 356.931   4
  -4  -2 -11 32.1250 332.361   4
  -4  -3  14 116.574 206.974   7
  -4  -3  14 295.533 471.822   3
  -4   3  14 301.223 471.289   3
  -4  -3  13 212.391 173.968   2
  -4  -3  13-86.3702 186.253   7
  -4  -3  13-172.627 410.838   3
  -4   3  13-536.664 475.333   3
  -4   3  12 320.330 221.406   2
  -4  -3  12 619.302 195.202   2
  -4  -3  12 39.2901 185.078   7
  -4  -3  12 627.245 395.769   3
  -4   3  12 423.313 409.754   3
  -4   3  11 212.533 210.527   2
  -4  -3  11 141.126 163.202   2
  -4  -3  11 381.422 311.185   3
  -4   3  11 290.871 398.730   3
  -4   3  10 418.216 239.594   2
  -4  -3  10 484.534 185.157   2
  -4  -3  10 296.943 290.174   3
  -4   3  10 760.579 384.672   3
  -4   3   9 76.6247 192.046   2
  -4  -3   9 204.396 205.174   2
  -4  -3   9 724.961 302.911   3
  -4   3   9 422.593 323.117   3
  -4   3   8 537.348 318.150   3
  -4   3   8 870.016 245.155   2
  -4  -3   8 753.035 233.639   2
   4  -3  -8 484.124 240.245   1
  -4  -3   8 817.599 305.627   3
  -4   3   7 1180.84 331.152   3
  -4  -3   7 1726.17 281.762   2
   4  -3  -7 1826.40 294.306   1
  -4  -3   7 1510.46 308.375   3
   4   3  -6 2669.21 295.821   6
   4  -3  -6 2652.96 256.823   6
  -4  -3   6 3240.46 332.722   2
   4  -3  -6 2925.46 335.341   1
  -4  -3   6 2766.28 322.189   3
  -4   3   6 2006.14 342.447   3
  -4   3   5 142.836 237.615   3
   4  -3  -5 8.43158 228.171   1
   4  -3  -5 241.675 175.215   6
   4   3  -5 353.484 212.154   6
  -4   3   5 57.3884 104.967   4
  -4  -3   5 129.108 227.322   2
  -4  -3   5 58.5508 214.141   3
  -4  -3   4-133.959 191.541   3
  -4   3   4-296.287 237.215   3
   4  -3  -4-313.933 194.890   6
   4   3  -4-414.737 214.490   6
  -4   3   4 162.818 125.970   4
  -4  -3   4-48.0904 229.281   2
  -4  -3   4 13.0341 86.4743   4
   4  -3  -4-143.869 229.562   1
  -4  -3   3 402.717 165.175   3
  -4   3   3 494.776 211.682   3
   4   3  -3 277.120 210.217   1
   4  -3  -3 192.580 191.808   6
   4   3  -3 140.187 204.894   6
  -4   3   3 107.543 138.658   4
   4  -3  -3 157.933 240.264   1
  -4  -3   3 170.646 123.227   4
  -4  -3   3 123.363 236.691   2
  -4   3   2 757.920 217.624   3
   4   3  -2 1096.10 252.704   6
  -4  -3   2 1662.93 311.256   2
   4   3  -2 1235.91 269.696   1
  -4   3   2 1276.40 210.422   4
   4  -3  -2 1157.50 282.655   1
  -4  -3   2 1251.93 175.493   4
  -4  -3   2 914.277 119.552   3
   4  -3  -2 1340.69 248.711   6
  -4  -3   1 2436.34 335.731   2
  -4   3   1 2799.70 280.312   4
  -4  -3   1 2753.63 245.174   4
   4  -3  -1 3530.45 382.222   1
   4   3  -1 2550.47 300.146   1
  -4   3   1 1805.02 216.256   3
   4  -3  -1 2941.97 311.861   6
   4   3  -1 2806.59 324.660   6
   4  -3   0 462.400 267.446   1
   4   3   0 968.006 273.316   1
   4  -3   0 693.787 243.926   6
   4   3   0 1001.06 264.756   6
  -4   3   0 1175.31 230.820   4
  -4  -3   0 676.633 182.069   4
  -4  -3   0 630.730 272.319   2
   4  -3   1-318.267 272.187   1
   4  -3   1-286.485 233.351   6
   4   3   1 189.306 236.771   6
  -4   3  -1-319.088 184.889   4
  -4  -3  -1-62.3217 173.751   4
  -4  -3  -1 85.2118 248.476   2
   4   3   1-23.7516 230.496   1
   4  -3   2 143.051 219.824   6
   4   3   2-16.4521 236.527   6
  -4   3  -2-23.8906 198.424   4
  -4  -3  -2 319.693 214.794   4
  -4  -3  -2 274.273 265.414   2
   4   3   2-148.895 230.285   1
   4  -3   2 277.115 256.752   1
   4  -3   3 140.942 242.923   6
   4   3   3 130.019 252.897   6
   4   3   3 179.517 231.270   1
  -4   3  -3 91.9356 216.280   4
  -4  -3  -3 232.190 210.665   4
  -4  -3  -3 411.887 256.380   2
   4  -3   3-48.1566 259.192   1
   4  -3   4 766.538 287.182   6
   4   3   4 855.360 281.427   6
   4   3   4 357.572 242.425   1
  -4   3  -4 858.713 264.756   4
  -4  -3  -4 1245.81 262.638   4
  -4  -3  -4 871.360 308.951   2
   4  -3   4 629.404 299.209   1
   4  -3   5 890.159 273.201   6
   4   3   5 94.5242 272.940   6
   4   3   5-108.576 238.378   1
  -4   3  -5 361.300 264.985   4
  -4  -3  -5 72.6575 221.188   4
  -4  -3  -5 374.597 278.265   2
   4  -3   5 484.881 292.411   1
   4   3   6-475.128 277.662   6
   4   3   6-29.5632 249.529   1
  -4   3  -6-198.580 268.738   4
  -4  -3  -6-78.7511 239.833   4
  -4  -3  -6 524.694 300.340   2
   4  -3   6-231.650 251.370   1
   4  -3   7 111.943 275.677   6
   4   3   7-188.616 282.522   6
   4   3   7 258.021 244.121   1
  -4   3  -7 108.992 262.517   4
  -4  -3  -7-248.281 260.811   4
  -4  -3  -7-107.964 278.154   2
   4  -3   7-224.582 274.937   1
  -4  -3  -8 1710.24 363.834   2
  -4   3  -8 1668.22 380.856   4
  -4  -3  -8 1266.83 311.412   4
   4   3   8 1891.47 328.295   1
   4  -3   8 1241.52 311.812   1
   4  -3   8 1590.66 369.818   6
   4   3   8 1716.81 391.401   6
   4   3   9 1370.92 366.940   6
  -4  -3  -9 1876.47 355.876   2
  -4   3  -9 2022.84 394.989   4
  -4  -3  -9 2406.12 403.832   4
   4  -3   9 2345.24 388.615   1
   4   3   9 2372.74 347.674   1
   4  -3   9 2139.54 398.573   6
   4  -3  10 493.854 335.892   6
   4   3  10 18.9387 308.644   6
  -4   3 -10 786.488 393.206   4
  -4  -3 -10 1111.83 372.396   4
   4   3  10 622.285 288.458   1
  -4  -3 -10 868.392 313.297   2
   4  -3  10 227.576 288.791   1
   4  -3  11 628.010 304.402   1
   4  -3  11 82.2265 311.192   6
   4   3  11 559.577 366.221   6
  -4   3 -11 319.176 346.846   4
  -4  -3 -11 265.164 337.829   4
   4   3  11 513.131 292.809   1
  -4  -4  14-79.9923 215.170   7
  -4  -4  14-673.980 475.421   3
  -4   4  14 424.827 494.082   3
  -4  -4  13 500.449 171.642   2
  -4  -4  13 291.607 203.475   7
  -4  -4  13 554.338 408.801   3
  -4   4  13 426.326 453.601   3
  -4   4  12 556.422 239.522   2
  -4  -4  12 579.166 179.599   2
  -4  -4  12 318.669 215.403   7
  -4  -4  12 377.739 340.386   3
  -4   4  12 411.451 445.659   3
  -4   4  11 406.846 213.658   2
  -4  -4  11 637.553 179.980   2
  -4  -4  11-17.3124 300.933   3
  -4   4  11-258.064 399.788   3
  -4  -4  10 1544.40 237.413   2
  -4   4  10 940.456 263.928   2
  -4  -4  10 1550.67 370.369   3
  -4   4  10 1012.47 409.124   3
  -4   4   9 3574.07 339.240   2
  -4  -4   9 3587.46 314.411   2
  -4  -4   9 3895.65 456.474   3
  -4   4   9 3060.11 483.137   3
   4  -4  -9 3034.36 343.368   1
  -4   4   8 542.714 330.872   3
  -4   4   8 1245.98 261.690   2
   4  -4  -8 1237.48 267.413   1
  -4  -4   8 931.971 225.148   2
  -4  -4   8 854.292 299.448   3
  -4   4   7-105.020 287.715   3
   4  -4  -7 108.984 219.876   1
  -4  -4   7 19.5611 207.049   2
  -4  -4   7 499.614 272.770   3
  -4   4   6 543.756 276.828   3
   4  -4  -6 109.021 224.010   1
   4   4  -6 290.807 195.658   6
   4  -4  -6 515.685 166.948   6
  -4  -4   6 659.689 249.737   2
  -4  -4   6 125.901 240.663   3
  -4   4   5 42.6288 257.478   3
   4  -4  -5-86.0291 168.818   6
   4   4  -5-131.361 210.110   6
  -4   4   5 42.7151 115.100   4
  -4  -4   5-51.1877 217.000   2
   4  -4  -5 277.535 235.303   1
  -4  -4   5-62.9180 206.429   3
   4  -4  -4 3378.11 286.966   6
   4   4  -4 3480.07 325.733   6
  -4  -4   4 3985.57 363.513   2
  -4   4   4 3081.16 237.743   4
  -4  -4   4 3267.58 179.041   4
   4  -4  -4 4136.28 402.558   1
  -4  -4   4 3247.76 289.978   3
  -4   4   4 2579.87 314.792   3
  -4  -4   3 271.616 142.443   3
  -4   4   3-89.8470 214.791   3
   4  -4  -3 110.908 182.629   6
   4   4  -3 67.0167 194.998   6
   4  -4  -3-11.3422 240.799   1
  -4   4   3 160.313 156.470   4
  -4  -4   3 159.767 119.162   4
  -4  -4   3 132.684 223.658   2
  -4   4   2 3.18035 197.228   3
   4  -4  -2 124.333 187.266   6
   4   4  -2 64.7918 212.402   6
   4  -4  -2 176.429 249.357   1
  -4   4   2 133.454 157.091   4
  -4  -4   2 171.277 141.006   4
  -4  -4   2 291.472 247.889   2
   4   4  -2-72.0443 219.705   1
   4  -4  -1 53.4561 244.532   1
   4  -4  -1 452.254 212.167   6
   4   4  -1-2.28810 221.011   6
  -4   4   1 65.3429 160.927   3
  -4   4   1 306.230 189.155   4
  -4  -4   1 586.868 167.950   4
  -4  -4   1 622.528 274.813   2
   4   4  -1 606.964 262.338   1
  -4  -4   0 2634.78 355.303   2
  -4   4   0 1971.19 264.193   4
  -4  -4   0 2019.11 237.756   4
   4  -4   0 2528.92 358.793   1
   4   4   0 2418.20 320.105   1
   4  -4   0 1619.57 269.072   6
   4   4   0 2278.37 316.504   6
   4  -4   1 104.435 215.963   6
   4   4   1 556.808 267.691   6
  -4   4  -1 439.415 222.416   4
   4   4   1 578.185 252.230   1
  -4  -4  -1 315.412 179.152   4
  -4  -4  -1 690.477 288.973   2
   4  -4   1 242.994 257.725   1
  -4  -4  -2 2962.61 378.725   2
  -4   4  -2 2985.28 343.197   4
  -4  -4  -2 3284.58 320.815   4
   4  -4   2 2975.28 359.546   1
   4   4   2 3208.96 335.135   1
   4  -4   2 3088.08 346.378   6
   4   4   2 2425.17 355.164   6
   4   4   3 331.716 244.570   1
   4  -4   3-45.0929 231.577   6
   4   4   3 15.8064 245.993   6
  -4   4  -3-74.8236 217.916   4
  -4  -4  -3 166.162 196.134   4
  -4  -4  -3 99.1174 298.310   2
   4  -4   3-477.623 282.643   1
   4  -4   4 562.742 259.764   6
   4   4   4 618.892 288.742   6
  -4   4  -4 394.138 237.352   4
  -4  -4  -4 429.378 238.542   4
  -4  -4  -4-241.792 274.159   2
   4  -4   4 155.719 266.128   1
   4   4   4 709.535 265.747   1
   4  -4   5 459.202 268.745   6
   4   4   5 361.564 263.980   6
  -4   4  -5 704.612 294.053   4
  -4  -4  -5-118.987 229.247   4
  -4  -4  -5 89.0462 267.253   2
   4  -4   5 226.191 281.077   1
   4   4   5 263.495 243.472   1
   4  -4   6 178.081 257.233   6
   4   4   6-133.973 275.377   6
  -4   4  -6-64.2962 262.730   4
  -4  -4  -6-229.263 247.297   4
  -4  -4  -6 290.843 294.911   2
   4  -4   6 56.7740 267.143   1
   4   4   6 492.150 271.733   1
   4  -4   7 750.657 290.370   6
  -4  -4  -7 2247.01 360.257   2
  -4  -4  -7 1912.54 347.608   4
  -4   4  -7 1285.65 346.376   4
   4   4   7 1959.52 313.949   1
   4  -4   7 1554.58 340.954   1
   4   4   7 1692.96 377.382   6
   4  -4   8 904.207 322.754   6
   4   4   8-146.993 306.299   6
  -4   4  -8 135.465 280.891   4
  -4  -4  -8 92.1144 257.955   4
  -4  -4  -8 80.6763 271.634   2
   4  -4   8-33.8935 289.729   1
   4   4   8 62.5525 239.900   1
   4   4   9 215.922 270.766   1
   4  -4   9-59.4104 289.175   6
   4   4   9 578.421 328.844   6
  -4   4  -9 736.557 340.832   4
  -4  -4  -9 82.7597 290.936   4
  -4  -4  -9 259.142 278.480   2
   4  -4   9-5.10613 283.257   1
   4  -4  10 51.6503 314.952   6
   4   4  10 68.9317 318.837   6
   4   4  10 505.991 279.888   1
  -4   4 -10-243.197 323.628   4
  -4  -4 -10-71.7089 298.153   4
  -4  -4 -10 100.190 275.102   2
   4  -4  10-197.673 294.457   1
   4  -4  11 542.866 336.797   6
   4   4  11 816.826 347.637   6
  -4   4 -11-209.045 317.657   4
  -4  -4 -11 601.241 355.218   4
   4   4  11 637.657 284.789   1
   4  -4  11 575.352 305.436   1
  -4  -5  14-99.7247 221.829   7
  -4  -5  14-541.456 473.259   3
  -4   5  14 33.4649 467.175   3
  -4  -5  13 1080.37 190.021   2
  -4  -5  13 364.254 211.941   7
  -4  -5  13 993.881 461.973   3
  -4   5  13 878.010 520.194   3
  -4   5  12 292.240 211.086   2
  -4  -5  12 69.3397 206.860   7
  -4  -5  12-131.288 156.127   2
  -4  -5  12-259.961 319.445   3
  -4   5  12-397.753 460.332   3
  -4   5  11 2743.12 331.348   2
  -4  -5  11 2635.73 258.511   2
  -4  -5  11 2531.88 430.270   3
  -4   5  11 2626.21 514.404   3
  -4   5  10 791.725 399.251   3
  -4   5  10 181.372 230.397   2
  -4  -5  10-17.7998 173.821   2
  -4  -5  10 6.34074 301.878   3
  -4   5   9-13.9022 344.270   3
   4  -5  -9 954.133 263.813   1
  -4   5   9 250.424 206.250   2
  -4  -5   9 890.949 225.952   2
  -4  -5   9 852.693 325.159   3
  -4   5   8 639.867 343.691   3
  -4  -5   8 583.877 214.799   2
   4  -5  -8 6.11852 222.196   1
  -4  -5   8 19.6770 268.542   3
  -4   5   7-309.308 300.906   3
   4  -5  -7-140.945 229.491   1
  -4  -5   7 356.617 224.804   2
  -4  -5   7-184.766 260.073   3
  -4   5   6-222.697 299.380   3
   4   5  -6-32.8099 195.466   6
   4  -5  -6 72.0411 147.463   6
  -4  -5   6 159.662 223.037   2
   4  -5  -6 281.305 255.130   1
  -4  -5   6 338.453 249.344   3
   4  -5  -5 1122.09 197.788   6
  -4   5   5 597.928 268.682   3
   4   5  -5 1069.58 239.881   6
  -4   5   5 1649.42 186.311   4
  -4  -5   5 1361.86 269.164   2
   4  -5  -5 1175.53 307.798   1
  -4  -5   5 714.244 228.665   3
  -4  -5   4 407.816 204.817   3
  -4   5   4 372.309 245.511   3
   4  -5  -4 243.175 169.039   6
   4   5  -4 418.280 215.320   6
  -4   5   4 293.003 155.490   4
   4  -5  -4 551.078 270.072   1
  -4  -5   4 638.880 115.734   4
  -4  -5   4 564.394 245.534   2
  -4  -5   3 264.089 129.230   3
  -4   5   3 512.740 247.075   3
   4  -5  -3 233.232 257.640   1
   4  -5  -3 511.433 198.000   6
   4   5  -3 85.8380 210.236   6
  -4   5   3 261.076 170.322   4
  -4  -5   3 271.659 120.269   4
  -4  -5   3 301.234 232.997   2
   4  -5  -2 67.1546 269.946   1
  -4   5   2 69.6075 202.298   3
   4  -5  -2 220.886 187.223   6
   4   5  -2 373.325 226.285   6
  -4   5   2 114.591 161.027   4
  -4  -5   2-104.359 132.927   4
  -4  -5   2 74.9106 237.615   2
   4   5  -1 2756.59 324.510   6
  -4  -5   1 2838.06 337.634   2
  -4   5   1 2830.99 288.966   4
  -4  -5   1 2837.19 258.474   4
   4  -5  -1 2625.15 360.690   1
  -4   5   1 1798.65 231.655   3
   4  -5  -1 2324.47 280.662   6
   4  -5   0 1140.58 253.987   6
   4   5   0 1410.87 276.668   6
  -4   5   0 1030.04 235.870   4
  -4  -5   0 940.119 184.935   4
  -4  -5   0 1262.15 278.835   2
   4   5   0 1270.08 280.826   1
   4  -5   0 665.111 285.296   1
  -4  -5  -1 6224.24 451.300   2
  -4   5  -1 5196.72 410.957   4
  -4  -5  -1 6449.56 396.277   4
   4  -5   1 5601.74 458.696   1
   4   5   1 6918.51 440.214   1
   4  -5   1 5061.63 389.140   6
   4   5   1 4997.76 422.442   6
   4  -5   2-77.3975 216.621   6
   4   5   2 561.098 271.267   6
   4   5   2 805.030 269.134   1
  -4   5  -2 231.282 219.955   4
  -4  -5  -2 92.3899 180.056   4
  -4  -5  -2-354.974 251.005   2
   4  -5   2 117.729 255.081   1
  -4  -5  -3 8812.04 535.930   2
  -4   5  -3 8516.75 552.354   4
  -4  -5  -3 10444.8 538.130   4
   4  -5   3 9176.56 566.142   1
   4   5   3 10331.6 539.081   1
   4  -5   3 8970.01 512.328   6
   4   5   3 8699.90 559.352   6
   4  -5   4 175.256 244.452   6
   4   5   4 279.153 262.177   6
  -4   5  -4 466.602 282.761   4
  -4  -5  -4-29.7975 217.649   4
  -4  -5  -4 210.814 269.195   2
   4  -5   4 377.630 282.506   1
   4   5   4 564.050 259.621   1
   4  -5   5 414.462 261.103   6
   4   5   5 784.958 291.497   6
  -4   5  -5 143.579 249.937   4
  -4  -5  -5 346.634 231.194   4
  -4  -5  -5 412.556 266.677   2
   4   5   5 679.846 279.428   1
   4  -5   5-6.43633 298.861   1
   4  -5   6 381.796 266.618   6
   4   5   6 1444.75 347.486   6
  -4   5  -6 843.028 308.919   4
   4   5   6 541.754 264.674   1
  -4  -5  -6 823.860 283.555   4
  -4  -5  -6 577.561 271.565   2
   4  -5   6 454.908 298.925   1
   4  -5   7-276.084 264.487   6
   4   5   7 112.302 294.484   6
  -4   5  -7 436.309 301.544   4
  -4  -5  -7-194.087 279.276   4
  -4  -5  -7-105.132 257.003   2
   4  -5   7 530.726 307.568   1
   4   5   7 280.757 251.799   1
   4  -5   8-151.842 284.699   6
   4   5   8-414.688 327.758   6
  -4   5  -8-283.435 300.919   4
  -4  -5  -8-68.7855 265.646   4
  -4  -5  -8 47.3546 254.768   2
   4  -5   8-83.2429 293.875   1
   4   5   8 168.134 245.647   1
  -4  -5  -9 3748.68 408.517   2
  -4   5  -9 3551.29 491.887   4
  -4  -5  -9 3083.02 445.259   4
   4  -5   9 3246.39 433.654   1
   4   5   9 4571.10 427.134   1
   4  -5   9 3029.69 436.540   6
   4   5   9 3534.55 475.214   6
   4   5  10 829.926 344.607   6
  -4   5 -10 1126.76 383.670   4
  -4  -5 -10 670.025 354.986   4
   4   5  10 861.357 280.757   1
  -4  -5 -10 629.296 291.496   2
   4  -5  10 846.640 325.641   1
   4  -5  10 1685.98 400.413   6
   4  -5  11 382.936 345.665   6
   4   5  11 258.524 356.111   6
  -4   5 -11 291.033 312.973   4
  -4  -5 -11-68.8756 310.161   4
   4  -5  11 608.559 331.331   1
  -4  -6  14 1354.23 295.791   7
  -4  -6  14 1442.28 517.116   3
  -4   6  14 788.203 512.944   3
  -4  -6  13 41.6786 139.537   2
  -4  -6  13-264.263 228.055   7
  -4  -6  13-399.904 371.878   3
  -4   6  13-368.202 457.092   3
  -4   6  12 2234.99 546.345   3
  -4   6  12 2017.76 305.877   2
  -4  -6  12 2526.35 247.919   2
  -4  -6  12 1976.93 294.130   7
  -4  -6  12 2168.86 432.255   3
  -4   6  11-543.402 446.809   3
  -4   6  11 236.479 238.855   2
  -4  -6  11 43.8046 163.527   2
  -4  -6  11 182.361 324.310   3
  -4   6  10 600.881 403.249   3
   4  -6 -10 629.102 228.543   1
  -4   6  10 940.124 269.736   2
  -4  -6  10 463.341 190.705   2
  -4  -6  10 1409.73 383.186   3
  -4   6   9 717.111 380.515   3
   4  -6  -9-88.1175 224.484   1
  -4  -6   9 392.191 193.735   2
  -4  -6   9 546.238 326.293   3
  -4   6   8 241.227 324.403   3
   4  -6  -8 750.134 248.744   1
  -4  -6   8 665.161 221.679   2
  -4  -6   8 643.887 307.251   3
  -4   6   7-209.630 323.332   3
  -4  -6   7 198.770 209.194   2
  -4  -6   7 664.260 277.121   3
   4  -6  -7 554.047 257.451   1
  -4   6   6 887.584 306.624   3
   4   6  -6 1025.44 238.179   6
   4  -6  -6 1224.37 300.213   1
  -4  -6   6 1110.34 242.487   2
  -4  -6   6 1216.35 289.243   3
  -4   6   5-2.05934 277.088   3
   4   6  -5 200.147 203.442   6
   4  -6  -5 240.685 160.853   6
   4  -6  -5 218.491 257.591   1
  -4  -6   5 680.486 232.187   2
  -4  -6   5 311.442 220.503   3
   4  -6  -4 13090.7 471.087   6
   4   6  -4 14040.1 604.275   6
  -4  -6   4 14417.2 601.772   2
  -4  -6   4 13083.7 343.847   4
   4  -6  -4 14077.2 648.995   1
  -4  -6   4 12434.3 452.166   3
   4  -6  -3 2055.32 247.547   6
   4   6  -3 1937.15 283.801   6
  -4  -6   3 2559.61 327.389   2
  -4  -6   3 1930.45 177.658   4
   4  -6  -3 1769.42 338.251   1
  -4   6   3 1586.71 307.788   3
  -4   6   2 597.124 225.968   3
   4   6  -2 1370.50 273.879   6
  -4  -6   2 1328.98 289.232   2
  -4  -6   2 1030.84 169.664   4
   4  -6  -2 377.756 252.704   1
   4  -6  -2 1165.00 232.758   6
   4  -6  -1 292.511 204.543   6
   4   6  -1 412.804 222.271   6
  -4   6   1 246.847 186.533   3
  -4  -6   1 205.289 156.674   4
  -4  -6   1 350.017 238.145   2
   4  -6  -1 372.898 268.769   1
  -4  -6   0 2221.82 332.706   2
  -4  -6   0 1636.82 241.042   4
   4  -6   0 2147.28 363.241   1
   4  -6   0 1509.11 270.060   6
   4   6   0 1565.02 306.451   6
   4  -6   1-104.975 215.403   6
   4   6   1 376.037 249.264   6
  -4  -6  -1-221.119 177.335   4
  -4  -6  -1 68.3322 258.339   2
   4  -6   1-58.2868 256.059   1
  -4  -6  -2 7538.93 487.148   2
  -4   6  -2 6770.07 472.531   4
  -4  -6  -2 8051.90 464.224   4
   4  -6   2 7499.04 509.942   1
   4   6   2 8420.08 482.507   1
   4  -6   2 7440.08 459.407   6
   4   6   2 7688.41 511.324   6
   4  -6   3-161.959 236.488   6
   4   6   3 297.653 267.960   6
  -4   6  -3 66.0817 218.976   4
   4  -6   3 836.448 320.140   1
  -4  -6  -3-131.448 213.664   4
  -4  -6  -3 537.231 264.469   2
   4   6   3 170.365 217.151   1
  -4  -6  -4 5439.91 445.801   2
  -4   6  -4 4839.15 466.568   4
  -4  -6  -4 5524.68 431.415   4
   4  -6   4 5130.07 469.022   1
   4   6   4 5751.95 419.076   1
   4  -6   4 5075.39 430.617   6
   4   6   4 5416.57 467.803   6
   4  -6   5-63.5042 252.394   6
   4   6   5-72.4365 264.213   6
   4   6   5 24.5055 250.362   1
  -4   6  -5-24.2269 258.394   4
   4  -6   5-80.4411 279.199   1
  -4  -6  -5 89.1246 221.884   4
  -4  -6  -5 320.943 263.664   2
   4  -6   6-652.789 301.981   6
   4   6   6 30.0498 273.767   6
   4   6   6 139.106 231.019   1
  -4   6  -6-109.782 293.103   4
   4  -6   6 97.4012 277.255   1
  -4  -6  -6-71.7608 234.264   4
  -4  -6  -6 8.54935 254.991   2
   4  -6   7-196.937 278.423   6
   4   6   7 786.046 308.435   6
   4   6   7 117.166 237.409   1
  -4   6  -7 401.199 314.574   4
   4  -6   7 66.9481 279.837   1
  -4  -6  -7 72.7564 248.458   4
  -4  -6  -7 719.770 287.131   2
   4  -6   8 615.037 317.141   6
   4   6   8 491.527 319.891   6
  -4   6  -8 346.068 302.960   4
   4  -6   8-4.87345 299.312   1
  -4  -6  -8 704.421 291.776   4
  -4  -6  -8 176.206 265.364   2
   4   6   8 297.052 256.147   1
   4  -6   9 86.4973 289.486   6
   4   6   9 274.003 314.113   6
  -4   6  -9-410.651 341.606   4
  -4  -6  -9 109.889 281.759   4
   4  -6   9-136.644 301.707   1
  -4  -6  -9 267.485 268.375   2
   4   6   9 157.353 251.866   1
   4  -6  10 289.679 330.912   6
   4   6  10 119.803 313.096   6
  -4   6 -10-290.317 347.920   4
  -4  -6 -10-300.046 317.470   4
   4  -6  10-413.435 328.362   1
  -4  -6 -10-126.144 259.463   2
   4  -6  11 113.176 316.488   6
   4   6  11 86.2622 330.739   6
  -4   6 -11 52.5735 353.725   4
  -4  -6 -11-148.808 321.719   4
   4  -6  11 143.124 298.717   1
  -4   7  14 124.319 484.594   3
  -4  -7  14-128.815 250.020   7
  -4   7  13 2076.19 565.362   3
  -4  -7  13 3050.21 261.166   2
  -4  -7  13 2817.58 513.988   3
  -4  -7  13 2301.68 329.705   7
  -4   7  12 398.228 449.007   3
  -4  -7  12 430.995 252.762   7
  -4  -7  12 717.694 186.238   2
  -4  -7  12 606.662 369.104   3
  -4   7  11 467.050 439.397   3
  -4   7  11 134.560 236.253   2
  -4  -7  11 422.277 177.591   2
  -4  -7  11 344.786 332.544   3
  -4   7  10 1073.92 412.576   3
  -4  -7  10 1374.32 232.252   2
  -4  -7  10 1138.68 363.551   3
   4  -7 -10 929.334 248.592   1
  -4   7   9 1215.34 400.251   3
   4  -7  -9 789.735 258.706   1
  -4  -7   9 725.886 215.214   2
  -4  -7   9 835.829 332.822   3
  -4   7   8 212.996 321.058   3
   4  -7  -8-375.492 259.638   1
  -4  -7   8 105.694 186.794   2
  -4  -7   8 325.458 288.892   3
  -4  -7   7 3201.35 316.573   2
   4  -7  -7 2839.36 358.211   1
  -4  -7   7 2525.44 357.111   3
  -4   7   7 2529.07 406.986   3
  -4   7   6 896.991 332.173   3
   4   7  -6 727.113 242.366   6
   4  -7  -6 641.791 268.810   1
  -4  -7   6 380.219 200.173   2
  -4  -7   6 638.734 242.339   3
   4   7  -5 3696.44 351.066   6
   4  -7  -5 4109.60 269.022   6
  -4  -7   5 3525.36 334.329   2
   4  -7  -5 3233.18 377.330   1
  -4  -7   5 3564.32 320.590   3
  -4   7   5 3064.70 403.085   3
   4  -7  -4 412.978 281.787   1
  -4   7   4 213.822 253.167   3
   4  -7  -4 109.656 161.003   6
   4   7  -4-21.8654 209.016   6
  -4  -7   4 109.551 211.132   2
  -4  -7   4 111.169 98.5008   4
  -4   7   3-354.333 271.777   3
   4  -7  -3 168.516 165.444   6
   4   7  -3 161.128 209.949   6
  -4  -7   3 101.430 127.388   4
  -4  -7   3-188.471 238.754   2
   4  -7  -3 52.9339 258.172   1
  -4   7   2 765.309 242.079   3
   4  -7  -2 839.972 211.227   6
   4   7  -2 806.547 259.893   6
  -4  -7   2 479.872 144.297   4
  -4  -7   2 911.895 265.810   2
   4  -7  -2 331.620 263.236   1
   4   7  -1 1248.52 285.623   6
  -4  -7   1 1608.19 220.115   4
  -4  -7   1 1343.21 275.838   2
   4  -7  -1 1231.18 325.395   1
  -4   7   1 1439.32 244.026   3
   4  -7  -1 1304.13 234.963   6
   4  -7   0-27.0096 205.919   6
   4   7   0 416.609 247.804   6
  -4  -7   0 304.986 172.354   4
   4  -7   0 154.184 284.502   1
  -4  -7   0 142.563 243.482   2
  -4  -7  -1 2292.26 322.277   2
  -4  -7  -1 2540.71 282.704   4
   4  -7   1 2100.17 368.350   1
   4  -7   1 2336.37 300.492   6
   4   7   1 2532.89 331.670   6
   4  -7   2-99.0449 213.402   6
   4   7   2 331.005 268.583   6
   4  -7   2 139.016 282.600   1
  -4  -7  -2 331.932 195.912   4
  -4  -7  -2 226.998 262.318   2
   4   7   3 690.824 278.642   6
   4  -7   3 1153.57 317.874   1
  -4  -7  -3 1027.91 234.183   4
  -4  -7  -3 455.754 259.001   2
   4  -7   3 1581.73 301.848   6
   4  -7   4 405.780 242.009   6
   4   7   4 541.570 298.219   6
  -4   7  -4 250.213 251.138   4
   4  -7   4 1049.24 327.935   1
  -4  -7  -4 723.717 250.720   4
  -4  -7  -4 714.108 256.833   2
   4   7   5 1235.97 331.412   6
  -4  -7  -5 1569.72 326.512   2
  -4  -7  -5 1892.06 331.736   4
  -4   7  -5 818.034 304.575   4
   4  -7   5 2118.38 376.973   1
   4  -7   5 1839.46 326.408   6
   4  -7   6 803.433 292.972   6
   4   7   6 443.252 299.555   6
   4  -7   6 340.935 283.842   1
  -4   7  -6 138.473 295.631   4
  -4  -7  -6 456.470 274.874   4
  -4  -7  -6 457.546 265.678   2
   4  -7   7-499.687 290.354   6
   4   7   7 130.249 289.729   6
   4  -7   7-409.130 302.948   1
  -4   7  -7 178.028 309.817   4
  -4  -7  -7-30.4882 250.945   4
  -4  -7  -7-351.444 263.928   2
  -4  -7  -8 2557.70 335.054   2
  -4   7  -8 1696.74 399.108   4
  -4  -7  -8 2325.45 414.729   4
   4  -7   8 2320.19 388.812   1
   4  -7   8 1367.96 367.431   6
   4   7   8 2063.95 414.096   6
   4  -7   9 1587.95 367.905   6
  -4  -7  -9 2849.27 362.041   2
  -4  -7  -9 2026.81 398.697   4
  -4   7  -9 1326.47 384.891   4
   4  -7   9 2597.05 422.274   1
   4   7   9 2283.49 407.682   6
   4  -7  10 920.599 341.691   6
   4   7  10 1735.42 404.402   6
  -4   7 -10 682.555 368.964   4
   4  -7  10 1406.86 361.127   1
  -4  -7 -10 1406.43 405.357   4
  -4  -7 -10 1018.97 282.706   2
   4  -7  11 786.268 355.414   6
   4   7  11 1630.70 423.846   6
  -4   7 -11 872.124 404.876   4
   4  -7  11 1128.05 359.161   1
  -4  -7 -11 993.778 381.123   4
  -4   8  13 1378.59 520.682   3
  -4  -8  13 1387.79 221.384   2
  -4  -8  13 571.221 260.222   7
  -4  -8  13 683.999 379.044   3
  -4   8  12 63.7967 420.539   3
  -4  -8  12-144.954 242.000   7
  -4  -8  12-6.51447 153.569   2
  -4  -8  12 281.028 358.994   3
  -4   8  11 108.036 403.173   3
   4  -8 -11 353.424 222.762   1
  -4   8  11 311.509 249.114   2
  -4  -8  11 334.403 180.798   2
  -4  -8  11-255.337 327.546   3
  -4   8  10-98.0874 382.477   3
   4  -8 -10 164.152 217.655   1
  -4  -8  10 310.492 193.774   2
  -4  -8  10-8.94418 319.437   3
  -4   8   9-471.840 393.037   3
   4  -8  -9-131.425 225.771   1
  -4  -8   9 27.1870 178.432   2
  -4  -8   9-237.886 310.770   3
  -4   8   8 1191.22 387.562   3
  -4  -8   8 478.695 205.909   2
   4  -8  -8 1104.03 284.920   1
  -4  -8   8 1680.74 350.433   3
  -4   8   7 672.075 335.007   3
   4  -8  -7 255.364 263.887   1
  -4  -8   7 367.499 207.384   2
  -4  -8   7 457.090 269.131   3
  -4   8   6 453.860 337.025   3
   4  -8  -6 84.0479 276.195   1
   4   8  -6 254.708 208.018   6
  -4  -8   6-145.246 204.964   2
  -4  -8   6-193.699 244.515   3
   4   8  -5 3003.90 339.861   6
   4  -8  -5 3344.12 240.176   6
  -4  -8   5 3587.19 340.169   2
   4  -8  -5 3577.27 390.223   1
  -4   8   5 2881.27 399.743   3
  -4   8   4-260.284 263.816   3
   4  -8  -4 254.706 159.514   6
   4   8  -4 352.567 220.952   6
  -4  -8   4 3.14767 213.472   2
  -4  -8   4-136.985 106.584   4
   4  -8  -4 361.679 269.047   1
   4  -8  -3 1823.08 215.969   6
   4   8  -3 2058.45 306.844   6
  -4  -8   3 1783.80 281.485   2
  -4  -8   3 1661.63 181.107   4
   4  -8  -3 1819.87 333.325   1
  -4   8   3 1411.26 328.369   3
   4  -8  -2 44.4621 171.730   6
  -4   8   2 473.523 230.103   3
   4   8  -2 326.933 231.696   6
  -4  -8   2 113.628 133.652   4
   4  -8  -2 257.652 259.592   1
  -4  -8   2 300.522 233.442   2
   4  -8  -1 157.279 189.527   6
   4   8  -1 37.0985 221.288   6
  -4   8   1 41.0339 189.485   3
   4  -8  -1 120.973 266.550   1
  -4  -8   1-19.2330 142.436   4
  -4  -8   1 189.880 248.628   2
   4   8   0 3307.53 371.320   6
  -4  -8   0 2994.43 337.302   2
  -4  -8   0 3327.37 295.910   4
   4  -8   0 3015.41 394.953   1
   4  -8   0 2751.14 299.557   6
   4  -8   1 420.727 227.495   6
   4   8   1 654.031 257.104   6
   4  -8   1 307.465 275.569   1
  -4  -8  -1 166.705 171.090   4
  -4  -8  -1 615.688 264.222   2
   4  -8   2 684.648 248.127   6
   4   8   2 528.011 266.207   6
   4  -8   2 238.486 262.214   1
  -4  -8  -2 978.105 241.477   4
  -4  -8  -2 377.527 257.685   2
  -4  -8  -3 2151.40 320.133   2
  -4  -8  -3 2537.16 314.315   4
   4  -8   3 1603.66 302.629   1
   4  -8   3 2019.40 312.729   6
   4   8   3 2143.21 360.599   6
   4  -8   4 130.962 244.220   6
   4   8   4 48.9912 271.843   6
   4  -8   4 206.831 265.997   1
  -4  -8  -4 128.822 206.861   4
  -4  -8  -4 216.748 249.655   2
   4  -8   5 459.396 245.121   6
   4   8   5 592.816 308.454   6
  -4   8  -5 363.312 267.802   4
   4  -8   5 295.705 267.499   1
  -4  -8  -5 667.871 274.461   4
  -4  -8  -5 744.726 286.435   2
   4  -8   6 241.814 261.817   6
  -4  -8  -6 1484.19 315.980   2
   4  -8   6 891.669 315.428   1
  -4   8  -6 644.582 292.989   4
  -4  -8  -6 802.817 266.409   4
   4   8   6 1799.06 378.090   6
   4  -8   7-55.9011 255.541   6
   4   8   7-49.5777 283.061   6
   4  -8   7 791.720 302.329   1
  -4   8  -7 142.706 294.950   4
  -4  -8  -7 763.341 290.415   4
  -4  -8  -7 264.433 248.892   2
   4  -8   8 483.257 306.445   6
   4  -8   8 821.926 316.397   1
  -4   8  -8 758.041 335.423   4
  -4  -8  -8 1344.30 346.381   4
  -4  -8  -8 1337.91 299.916   2
   4   8   8 1580.48 398.281   6
   4  -8   9-51.6193 283.116   6
   4   8   9 153.259 323.855   6
   4  -8   9-244.777 290.836   1
  -4   8  -9 339.106 324.812   4
  -4  -8  -9 199.469 315.063   4
  -4  -8  -9 177.164 239.691   2
   4  -8  10-167.674 312.372   6
   4   8  10-650.432 358.472   6
   4  -8  10-150.298 314.984   1
  -4   8 -10 304.866 336.680   4
  -4  -8 -10 114.002 300.239   4
  -4  -8 -10-404.113 250.826   2
  -4   9  13-466.535 513.554   3
  -4  -9  13 315.793 269.443   7
  -4  -9  13 299.883 169.922   2
  -4  -9  13 136.143 349.731   3
  -4   9  12-288.315 458.708   3
  -4  -9  12-237.561 271.128   7
  -4  -9  12 367.860 180.233   2
  -4  -9  12-303.310 356.192   3
  -4   9  11-322.280 417.443   3
  -4  -9  11 223.178 178.034   2
  -4  -9  11-108.016 351.681   3
   4  -9 -10 142.983 224.613   1
  -4  -9  10 326.658 192.053   2
  -4  -9  10 399.935 319.738   3
   4  -9  -9 896.995 277.008   1
  -4   9   9 987.004 404.705   3
  -4  -9   9 269.089 181.598   2
  -4  -9   9 1029.80 343.369   3
  -4   9   8 1184.86 412.660   3
   4  -9  -8 914.881 290.477   1
  -4  -9   8 1074.79 235.800   2
  -4  -9   8 1255.78 331.720   3
  -4   9   7 395.569 325.528   3
   4  -9  -7 807.086 290.539   1
  -4  -9   7 647.938 207.662   2
  -4  -9   7 996.714 304.916   3
  -4   9   6 579.804 339.740   3
   4  -9  -6-276.117 253.759   1
   4   9  -6 389.960 216.060   6
  -4  -9   6 31.2963 202.154   2
  -4   9   5 288.754 288.000   3
   4   9  -5 113.733 210.162   6
  -4  -9   5 10.6008 205.700   2
   4  -9  -5 120.745 259.279   1
  -4   9   4-344.001 291.415   3
   4  -9  -4-87.5676 138.157   6
   4   9  -4 73.5598 209.168   6
  -4  -9   4-115.911 213.523   2
   4  -9  -4-306.771 272.612   1
  -4   9   3 714.570 297.184   3
   4  -9  -3 661.417 178.950   6
   4   9  -3 758.970 257.554   6
   4  -9  -3 695.938 273.166   1
  -4  -9   3 519.581 134.090   4
  -4  -9   3 892.928 252.238   2
   4   9  -2 3139.13 357.638   6
  -4  -9   2 3076.18 327.261   2
  -4  -9   2 3559.78 262.407   4
   4  -9  -2 3006.26 379.241   1
  -4   9   2 2668.66 352.234   3
   4  -9  -2 3094.42 272.099   6
   4  -9  -1 290.070 188.759   6
   4   9  -1-47.2072 246.138   6
  -4   9   1 551.488 227.535   3
   4  -9  -1 622.865 281.880   1
  -4  -9   1 453.480 166.069   4
  -4  -9   1 643.811 241.979   2
   4  -9   0 579.509 215.368   6
   4   9   0 861.537 282.703   6
   4  -9   0 758.320 294.568   1
  -4  -9   0 571.250 180.155   4
  -4  -9   0 709.753 260.643   2
   4  -9   1 199.957 206.097   6
   4   9   1 347.333 259.913   6
   4  -9   1 44.9932 252.230   1
  -4  -9  -1-202.064 174.482   4
  -4  -9  -1 131.335 233.102   2
   4  -9   2 336.023 227.696   6
   4   9   2 392.391 284.339   6
   4  -9   2 43.1837 254.301   1
  -4  -9  -2 677.393 216.490   4
  -4  -9  -2 161.660 232.076   2
   4  -9   3-15.3024 218.184   6
   4   9   3-293.548 278.308   6
   4  -9   3-31.4276 245.998   1
  -4  -9  -3 283.292 209.156   4
  -4  -9  -3 323.800 247.414   2
   4  -9   4 191.255 236.935   6
   4   9   4 325.657 285.960   6
   4  -9   4-104.582 263.490   1
  -4  -9  -4 170.791 238.516   4
  -4  -9  -4-14.5345 229.193   2
   4  -9   5 31.7799 244.207   6
   4   9   5-184.408 298.921   6
   4  -9   5 236.625 277.967   1
  -4  -9  -5 118.139 236.300   4
  -4  -9  -5 59.1986 238.361   2
   4  -9   6 289.325 273.282   6
   4   9   6-280.520 285.777   6
   4  -9   6 140.459 286.722   1
  -4   9  -6 370.919 300.775   4
  -4  -9  -6 20.8031 251.322   4
  -4  -9  -6 213.751 235.090   2
   4  -9   7 252.419 287.971   6
   4   9   7-204.260 305.777   6
   4  -9   7 251.300 292.326   1
  -4   9  -7 220.469 311.012   4
  -4  -9  -7-264.988 285.153   4
  -4  -9  -7-39.0208 238.696   2
   4  -9   8 902.098 317.683   6
   4   9   8 717.876 339.514   6
   4  -9   8-185.299 296.207   1
  -4   9  -8 207.562 322.906   4
  -4  -9  -8 859.923 309.480   4
  -4  -9  -8 672.679 270.283   2
   4  -9   9 471.915 307.296   6
   4   9   9-127.306 322.848   6
   4  -9   9 494.195 285.019   1
  -4   9  -9-130.681 350.550   4
  -4  -9  -9-242.452 324.748   4
  -4  -9  -9-447.150 248.443   2
   4  -9  10 13.4441 297.690   6
   4   9  10-395.455 344.188   6
   4  -9  10 316.180 296.078   1
  -4   9 -10 191.310 332.704   4
  -4  -9 -10 323.007 320.254   4
  -4 -10  13 263.768 257.987   7
  -4 -10  13 225.380 168.385   2
  -4 -10  13 691.234 394.134   3
  -4  10  12 609.132 473.458   3
  -4 -10  12 872.050 303.572   7
  -4 -10  12 916.595 206.827   2
  -4 -10  12 726.151 381.722   3
  -4 -10  11 312.569 179.176   2
  -4 -10  11 382.957 335.770   3
  -4  10  10 1528.89 475.233   3
   4 -10 -10 1106.36 269.823   1
  -4 -10  10 1694.79 241.909   2
  -4 -10  10 1248.16 375.725   3
  -4  10   9 781.104 424.110   3
  -4 -10   9 463.398 198.263   2
   4 -10  -9-103.541 245.169   1
  -4 -10   9-77.1030 304.745   3
  -4  10   8 1879.74 425.042   3
  -4 -10   8 2618.11 279.327   2
   4 -10  -8 2696.55 358.729   1
  -4 -10   8 2590.14 406.913   3
   4 -10  -7 260.083 265.226   1
  -4 -10   7 50.3589 189.651   2
  -4  10   6-87.4289 330.249   3
   4  10  -6 185.827 219.673   6
  -4 -10   6 97.0175 192.447   2
   4 -10  -6 146.502 254.744   1
  -4  10   5 1528.68 358.002   3
   4  10  -5 1394.02 273.903   6
  -4 -10   5 1919.77 271.879   2
   4 -10  -5 1531.43 324.122   1
   4  10  -4 3095.31 357.108   6
  -4 -10   4 2648.85 298.038   2
   4 -10  -4 2763.04 376.492   1
  -4  10   4 1858.90 376.760   3
  -4  10   3 118.287 263.605   3
   4 -10  -3 260.472 155.327   6
   4  10  -3 165.960 228.058   6
   4 -10  -3 500.023 305.324   1
  -4 -10   3 297.286 136.137   4
  -4 -10   3-239.827 226.094   2
  -4  10   2 1351.30 288.027   3
   4  10  -2 1199.31 285.131   6
  -4 -10   2 1649.63 209.346   4
   4 -10  -2 1134.07 290.736   1
  -4 -10   2 1284.25 263.521   2
   4 -10  -2 1260.73 210.809   6
   4 -10  -1-365.715 189.173   6
   4  10  -1 345.990 251.442   6
  -4  10   1 214.639 214.876   3
   4 -10  -1-31.9768 291.602   1
  -4 -10   1 191.284 156.475   4
  -4 -10   1 25.1653 214.394   2
   4 -10   0 148.520 197.277   6
   4  10   0 330.167 246.838   6
   4 -10   0-84.5422 254.765   1
  -4 -10   0 218.783 160.599   4
  -4 -10   0 479.675 239.482   2
   4 -10   1 711.826 232.660   6
   4  10   1 1028.81 296.238   6
   4 -10   1 754.008 290.993   1
  -4 -10  -1 1128.50 216.824   4
  -4 -10  -1 1079.71 266.520   2
   4 -10   2-209.792 209.365   6
   4  10   2 128.911 272.822   6
   4 -10   2 157.157 275.038   1
  -4 -10  -2-49.8150 194.990   4
  -4 -10  -2 245.495 231.722   2
   4 -10   3 324.933 235.345   6
   4  10   3 133.413 265.917   6
   4 -10   3 237.738 259.933   1
  -4 -10  -3 372.236 220.870   4
  -4 -10  -3 178.570 253.438   2
   4 -10   4 840.563 274.030   6
   4  10   4 830.542 302.307   6
   4 -10   4 599.828 302.540   1
  -4 -10  -4 750.729 260.584   4
  -4 -10  -4 206.660 230.035   2
   4 -10   5 907.512 286.722   6
   4  10   5 220.162 295.348   6
   4 -10   5 588.368 306.138   1
  -4 -10  -5 540.367 254.727   4
  -4 -10  -5 240.198 245.039   2
   4 -10   6-5.09103 251.725   6
   4  10   6 220.892 307.324   6
   4 -10   6-406.558 301.848   1
  -4 -10  -6 364.007 284.916   4
  -4 -10  -6 124.587 233.219   2
   4 -10   7 609.175 289.547   6
   4  10   7 499.512 335.790   6
   4 -10   7 533.542 304.546   1
  -4  10  -7 662.936 308.889   4
  -4 -10  -7 836.477 317.613   4
  -4 -10  -7 173.988 245.456   2
   4 -10   8 326.856 302.065   6
   4  10   8-171.844 320.926   6
   4 -10   8 460.767 322.790   1
  -4  10  -8 197.736 314.280   4
  -4 -10  -8-254.334 313.547   4
  -4 -10  -8-26.4399 242.866   2
   4 -10   9 141.000 289.039   6
   4  10   9 439.859 337.976   6
   4 -10   9-340.383 313.858   1
  -4  10  -9 505.612 365.216   4
  -4 -10  -9-158.932 287.702   4
  -4 -10  -9 575.496 258.217   2
   4 -10  10-48.8212 307.404   6
   4  10  10-99.6274 326.800   6
   4 -10  10-248.310 296.684   1
  -4  10 -10-45.4834 321.481   4
  -4 -10 -10-543.581 349.335   4
  -4  11  12 2413.22 586.708   3
  -4 -11  12 1636.20 238.806   2
  -4 -11  12 2391.85 481.145   3
  -4 -11  12 1592.50 295.950   7
  -4  11  11-639.521 434.481   3
  -4 -11  11-115.737 175.080   2
  -4 -11  11 250.550 343.098   3
  -4  11  10-377.399 423.368   3
   4 -11 -10 178.606 230.767   1
  -4 -11  10 443.575 182.847   2
  -4 -11  10 145.771 318.703   3
  -4  11   9 376.772 412.902   3
   4 -11  -9 1006.87 282.602   1
  -4 -11   9 1145.74 225.259   2
  -4 -11   9 772.831 329.166   3
  -4  11   8-339.089 386.638   3
   4 -11  -8 113.695 256.037   1
  -4 -11   8-53.7765 185.210   2
   4 -11  -7 784.234 308.929   1
  -4  11   7 362.515 338.440   3
  -4 -11   7 643.257 212.863   2
  -4  11   6 255.268 314.585   3
   4  11  -6 78.3357 229.291   6
  -4 -11   6-115.750 194.070   2
   4 -11  -6 657.446 287.402   1
  -4  11   5-257.336 310.175   3
   4  11  -5 347.913 230.693   6
   4 -11  -5 707.307 289.625   1
  -4 -11   5 479.859 205.855   2
  -4  11   4 589.078 338.729   3
   4  11  -4-55.0802 230.132   6
   4 -11  -4 183.400 255.222   1
  -4 -11   4 20.0790 208.012   2
   4  11  -3 2908.44 350.413   6
  -4 -11   3 3609.95 336.820   2
  -4 -11   3 2833.66 230.983   4
   4 -11  -3 2727.61 378.159   1
  -4  11   3 2308.34 371.453   3
   4 -11  -2 502.483 173.293   6
  -4  11   2 522.497 250.719   3
   4  11  -2 737.327 257.598   6
   4 -11  -2-99.3426 287.948   1
  -4 -11   2 812.377 177.135   4
  -4 -11   2 665.871 239.535   2
   4 -11  -1 714.644 203.403   6
   4  11  -1 547.246 277.949   6
  -4  11   1 514.744 246.725   3
   4 -11  -1 640.768 294.006   1
  -4 -11   1 788.480 193.673   4
  -4 -11   1 690.018 244.716   2
   4 -11   0 552.666 209.002   6
   4  11   0 222.080 239.339   6
   4 -11   0 9.75449 255.742   1
  -4 -11   0 519.268 189.133   4
  -4 -11   0 24.2043 221.150   2
   4  11   1 1579.13 335.327   6
   4 -11   1 845.145 228.667   6
   4 -11   1 1039.04 313.514   1
  -4 -11  -1 1246.10 232.649   4
  -4 -11  -1 1150.67 255.027   2
   4 -11   2 131.091 215.560   6
   4  11   2-211.879 256.752   6
   4 -11   2 301.423 291.441   1
  -4 -11  -2 204.159 191.227   4
  -4 -11  -2 154.854 235.212   2
   4 -11   3 302.244 239.399   6
   4  11   3 198.479 263.742   6
   4 -11   3-131.346 293.664   1
  -4 -11  -3 143.298 203.203   4
  -4 -11  -3-225.267 230.913   2
   4 -11   4 1376.28 290.571   6
   4  11   4 963.637 324.517   6
   4 -11   4 1132.31 339.955   1
  -4 -11  -4 908.261 267.071   4
  -4 -11  -4 972.172 263.982   2
   4 -11   5 233.778 244.475   6
   4  11   5 526.150 286.434   6
   4 -11   5 1047.35 348.026   1
  -4 -11  -5 408.382 269.012   4
  -4 -11  -5 109.789 240.476   2
   4 -11   6-233.743 264.112   6
   4  11   6 314.807 297.270   6
   4 -11   6-576.112 300.592   1
  -4 -11  -6-252.470 265.558   4
  -4 -11  -6 77.8206 234.100   2
   4 -11   7-384.421 256.398   6
   4  11   7 314.332 316.372   6
   4 -11   7 143.734 305.319   1
  -4 -11  -7 455.381 282.296   4
  -4 -11  -7 88.8738 228.077   2
   4 -11   8 217.407 294.021   6
   4  11   8 605.536 345.938   6
   4 -11   8-147.264 295.742   1
  -4  11  -8 319.891 335.095   4
  -4 -11  -8 1.72748 268.829   4
  -4 -11  -8 370.402 251.468   2
   4 -11   9 1217.88 340.023   6
   4  11   9 1208.32 391.213   6
   4 -11   9 358.081 316.608   1
  -4  11  -9 385.234 375.394   4
  -4 -11  -9 1217.53 383.596   4
  -4 -11  -9 1127.99 269.035   2
  -4  12  12 1354.96 530.700   3
  -4 -12  12 2382.42 262.100   2
  -4 -12  12 2677.74 489.092   3
  -4 -12  12 1892.73 336.015   7
  -4  12  11 526.573 428.826   3
  -4 -12  11 97.0548 170.789   2
  -4 -12  11 211.820 350.923   3
  -4  12  10-144.446 414.178   3
  -4 -12  10 212.367 187.819   2
   4 -12 -10 81.7191 247.335   1
  -4  12   9 353.610 387.332   3
   4 -12  -9 546.697 291.255   1
  -4 -12   9 189.067 183.271   2
  -4  12   8 509.495 431.618   3
   4 -12  -8 430.271 293.184   1
  -4 -12   8-42.2519 183.417   2
  -4  12   7 147.541 378.915   3
  -4 -12   7 385.239 198.889   2
   4 -12  -7 35.8668 257.202   1
   4  12  -6 2769.64 336.154   6
  -4 -12   6 3153.29 313.187   2
   4 -12  -6 3706.04 421.587   1
  -4  12   6 2241.14 438.834   3
  -4  12   5 37.9675 325.491   3
   4  12  -5-221.539 227.374   6
   4 -12  -5 386.275 281.723   1
  -4 -12   5-32.1060 205.685   2
   4  12  -4 1585.51 306.511   6
  -4  12   4 995.394 348.124   3
  -4 -12   4 2385.83 295.801   2
   4 -12  -4 1669.52 354.502   1
  -4  12   3-117.322 281.147   3
   4  12  -3 55.1976 231.091   6
   4 -12  -3-62.9083 269.729   1
  -4 -12   3-88.1303 134.237   4
  -4 -12   3-50.0644 209.249   2
   4  12  -2 4630.60 417.011   6
  -4 -12   2 4568.66 375.468   2
  -4 -12   2 4328.47 289.051   4
   4 -12  -2 3875.42 410.131   1
  -4  12   2 3450.71 389.691   3
   4 -12  -1 899.309 204.259   6
   4  12  -1 325.258 243.980   6
   4 -12  -1 532.234 283.718   1
  -4 -12   1 349.705 176.861   4
  -4 -12   1 164.673 217.777   2
   4  12   0 1275.17 303.173   6
   4 -12   0 1746.78 343.151   1
  -4 -12   0 1712.90 279.610   2
  -4 -12   0 1994.49 260.633   4
   4 -12   0 1425.42 230.911   6
   4 -12   1 782.988 222.101   6
   4  12   1 1233.50 321.777   6
   4 -12   1 987.777 323.377   1
  -4 -12  -1 716.333 204.864   4
  -4 -12  -1 1368.57 266.948   2
   4 -12   2-101.046 208.884   6
   4 -12   2 51.4477 273.402   1
   4  12   2 69.4431 259.255   6
  -4 -12  -2 15.1625 187.952   4
  -4 -12  -2 146.085 230.966   2
  -4 -12  -3 3307.00 351.799   2
  -4 -12  -3 2695.40 324.320   4
   4 -12   3 2544.77 404.200   1
   4 -12   3 2054.37 302.109   6
   4  12   3 2647.24 392.107   6
  -4 -12  -4 6540.52 440.984   2
  -4 -12  -4 6084.27 459.090   4
   4 -12   4 5393.56 495.433   1
   4 -12   4 5084.88 416.342   6
   4  12   4 5949.00 505.570   6
   4 -12   5 615.739 264.490   6
   4 -12   5-88.1463 306.675   1
   4  12   5-88.0383 286.899   6
  -4 -12  -5-79.2417 230.825   4
  -4 -12  -5 41.2331 227.107   2
   4 -12   6 200.285 254.603   6
   4 -12   6 535.985 327.091   1
   4  12   6 342.222 302.486   6
  -4 -12  -6 582.091 295.545   4
  -4 -12  -6 148.550 225.480   2
   4 -12   7-101.508 262.824   6
   4 -12   7-40.8679 301.733   1
   4  12   7-191.848 324.978   6
  -4 -12  -7 739.752 294.894   4
  -4 -12  -7 463.758 246.837   2
   4 -12   8 264.282 298.349   6
   4  12   8 779.754 374.961   6
   4 -12   8 796.784 339.384   1
  -4 -12  -8 1156.58 336.056   4
  -4 -12  -8 1137.24 275.442   2
   4 -12   9-41.3922 287.575   6
   4  12   9 820.497 369.752   6
   4 -12   9-152.456 307.506   1
  -4  12  -9 114.943 325.509   4
  -4 -12  -9 785.066 362.588   4
  -4 -12  -9 181.881 224.236   2
  -4 -13  12 316.233 286.599   7
  -4 -13  12-15.2263 180.197   2
  -4  13  11 1077.51 487.398   3
  -4 -13  11 368.707 198.637   2
  -4  13  10 449.335 423.626   3
  -4 -13  10-62.7335 193.865   2
  -4 -13   9 6195.54 398.700   2
   4 -13  -9 5267.42 448.514   1
  -4 -13   8 1842.54 255.486   2
   4 -13  -8 2315.33 360.304   1
  -4  13   7-232.688 363.774   3
  -4 -13   7 109.973 190.625   2
   4 -13  -7-350.036 289.680   1
   4  13  -6 200.832 248.911   6
   4 -13  -6 372.745 298.961   1
  -4 -13   6-150.742 193.766   2
   4  13  -5 1432.92 298.518   6
  -4  13   5 1415.51 386.465   3
  -4 -13   5 1677.38 259.527   2
   4 -13  -5 1827.90 367.845   1
  -4  13   4 663.651 362.596   3
   4  13  -4 76.5642 230.823   6
   4 -13  -4-70.3220 274.301   1
  -4 -13   4 293.091 197.831   2
   4  13  -3 2643.46 345.268   6
  -4 -13   3 2583.96 298.199   2
   4 -13  -3 2256.89 357.907   1
  -4  13   3 1777.16 365.667   3
  -4  13   2-177.325 251.876   3
   4 -13  -2-299.547 281.672   1
  -4 -13   2 67.7574 145.975   4
  -4 -13   2-91.3606 210.017   2
   4  13  -1 3758.97 404.789   6
  -4 -13   1 4135.39 362.893   2
  -4 -13   1 3759.53 292.382   4
   4 -13  -1 2939.48 396.121   1
   4 -13   0 93.8296 275.418   1
   4  13   0-48.4835 272.579   6
  -4 -13   0 171.754 180.108   4
  -4 -13   0 251.521 218.717   2
   4  13   1 3501.53 400.744   6
  -4 -13  -1 3588.69 351.643   2
  -4 -13  -1 3650.84 331.972   4
   4 -13   1 3047.26 401.984   1
   4 -13   1 3168.78 304.093   6
   4 -13   2-239.055 230.802   6
   4 -13   2 523.001 298.410   1
   4  13   2 118.261 259.907   6
  -4 -13  -2 135.559 192.878   4
  -4 -13  -2-311.437 226.986   2
   4 -13   3 1058.09 345.148   1
   4 -13   3 490.234 228.680   6
   4  13   3 671.821 315.631   6
  -4 -13  -3 441.223 211.485   4
  -4 -13  -3 355.458 226.577   2
   4 -13   4 1057.27 340.102   1
   4 -13   4 1156.90 272.085   6
   4  13   4 1364.55 346.227   6
  -4 -13  -4 1459.15 282.004   2
  -4 -13  -4 1146.92 268.601   4
   4 -13   5 106.716 297.965   1
   4 -13   5-71.7296 241.248   6
   4  13   5 668.529 308.453   6
  -4 -13  -5 531.865 265.887   4
  -4 -13  -5 30.0676 220.128   2
   4 -13   6 136.241 318.737   1
   4 -13   6-210.208 255.500   6
   4  13   6-16.7833 301.260   6
  -4 -13  -6 213.288 260.703   4
  -4 -13  -6 104.989 219.524   2
   4 -13   7 562.250 298.166   6
   4 -13   7 1333.71 374.297   1
   4  13   7 1429.78 390.441   6
  -4 -13  -7 2011.45 293.262   2
  -4 -13  -7 1917.35 374.490   4
   4 -13   8 1043.16 337.521   6
   4 -13   8 306.799 303.498   1
   4  13   8 302.112 333.682   6
  -4 -13  -8-48.4870 281.638   4
  -4 -13  -8 75.5673 221.764   2
   4 -13   9-149.610 305.539   6
   4 -13   9 660.096 368.026   1
   4  13   9-365.025 337.189   6
  -4 -13  -9-227.474 337.327   4
  -4 -13  -9 254.737 229.467   2
  -4  14  11 1072.92 498.429   3
  -4 -14  11 1714.14 250.640   2
  -4  14  10-305.163 421.373   3
  -4 -14  10-5.95128 191.589   2
   4 -14  -9 1378.11 318.439   1
  -4 -14   9 1092.96 237.832   2
  -4  14   8 945.489 420.000   3
  -4 -14   8 1108.79 246.481   2
   4 -14  -8 1437.35 337.468   1
  -4  14   7 628.861 395.528   3
   4 -14  -7 263.655 275.174   1
  -4 -14   7 508.842 213.892   2
  -4  14   6 353.206 355.288   3
   4  14  -6 869.467 274.532   6
   4 -14  -6 793.817 309.038   1
  -4 -14   6 486.935 210.488   2
  -4  14   5 233.787 353.973   3
   4  14  -5-43.7910 238.967   6
   4 -14  -5 812.459 329.026   1
  -4 -14   5 236.346 196.112   2
  -4  14   4 256.815 342.213   3
   4  14  -4 154.822 235.873   6
   4 -14  -4 61.6886 266.359   1
  -4 -14   4-109.725 204.502   2
  -4  14   3-77.4666 280.575   3
   4  14  -3 340.695 260.480   6
   4 -14  -3 470.545 289.560   1
  -4 -14   3 104.059 205.109   2
   4  14  -2 2781.55 388.694   6
   4 -14  -2 1968.44 344.740   1
  -4 -14   2 2629.76 312.238   2
  -4 -14   2 2538.37 251.293   4
   4 -14  -1 618.018 299.888   1
   4  14  -1-127.794 255.088   6
  -4 -14   1 40.6004 169.116   4
  -4 -14   1 356.331 232.494   2
   4  14   0 4816.27 449.262   6
  -4 -14   0 5538.74 392.573   2
  -4 -14   0 5272.59 361.682   4
   4 -14   0 3970.20 456.059   1
   4 -14   1 133.619 294.753   1
   4  14   1 292.266 265.706   6
  -4 -14  -1 27.3260 183.668   4
  -4 -14  -1-193.127 218.190   2
   4 -14   2-132.261 219.076   6
   4  14   2-147.425 276.184   6
  -4 -14  -2-500.784 230.447   4
  -4 -14  -2 59.3792 215.256   2
   4 -14   3 40.0017 296.477   1
   4 -14   3 358.959 233.015   6
   4  14   3 715.822 317.958   6
  -4 -14  -3 542.664 234.176   4
  -4 -14  -3-56.7615 228.637   2
   4 -14   4 898.154 341.300   1
   4 -14   4 980.441 280.106   6
   4  14   4 655.210 310.466   6
  -4 -14  -4 1029.65 288.209   4
  -4 -14  -4 1018.13 251.716   2
   4 -14   5 619.009 264.519   6
   4  14   5 27.7516 301.013   6
  -4 -14  -5 394.930 262.261   4
  -4 -14  -5 392.605 228.232   2
   4 -14   6-367.240 337.038   1
   4 -14   6 683.990 282.169   6
   4  14   6 760.907 368.214   6
  -4 -14  -6 359.031 278.243   4
  -4 -14  -6 821.507 264.814   2
   4 -14   7 532.788 348.413   1
   4 -14   7 552.316 301.886   6
   4  14   7-150.526 346.541   6
  -4 -14  -7 77.4647 264.259   4
  -4 -14  -7 137.321 234.184   2
   4 -14   8 865.592 377.119   1
   4 -14   8 915.018 333.911   6
   4  14   8 846.589 366.311   6
  -4 -14  -8 580.856 269.243   4
  -4 -14  -8 982.680 251.535   2
  -4  15  11 277.078 473.417   3
  -4 -15  11 631.424 212.450   2
  -4  15  10-291.402 437.467   3
  -4 -15  10-5.98257 194.354   2
   4 -15  -9 477.759 273.208   1
  -4 -15   9 286.493 204.806   2
  -4  15   8-306.854 421.825   3
   4 -15  -8-91.0454 287.640   1
  -4 -15   8-176.051 218.207   2
  -4  15   7-203.816 358.093   3
   4 -15  -7-179.123 285.137   1
  -4 -15   7-71.4977 194.310   2
  -4  15   6-244.179 363.669   3
   4 -15  -6-14.3348 297.058   1
  -4 -15   6 322.599 218.141   2
  -4  15   5 478.815 350.025   3
   4  15  -5 573.150 255.056   6
   4 -15  -5 272.328 304.040   1
  -4 -15   5 160.493 197.003   2
  -4  15   4-215.935 310.277   3
   4  15  -4 18.9442 235.806   6
   4 -15  -4 133.227 273.328   1
  -4 -15   4-274.152 214.198   2
  -4  15   3 91.3055 292.853   3
   4  15  -3 252.180 260.931   6
   4 -15  -3 809.774 317.787   1
  -4 -15   3-63.2221 215.413   2
   4 -15  -2-397.328 299.972   1
  -4  15   2 370.374 275.049   3
   4  15  -2 229.750 267.612   6
  -4 -15   2-72.2401 169.704   4
  -4 -15   2 162.243 204.047   2
   4 -15  -1 252.058 293.567   1
   4  15  -1 169.889 263.174   6
  -4 -15   1 622.697 209.330   4
  -4 -15   1 387.134 221.189   2
   4  15   0 348.147 254.849   6
  -4 -15   0 341.116 192.260   4
  -4 -15   0-39.2857 214.888   2
   4 -15   1-649.795 341.138   1
   4  15   1-200.370 267.896   6
  -4 -15  -1 26.9935 188.692   4
  -4 -15  -1 486.002 248.808   2
   4 -15   2 199.720 326.831   1
   4  15   2 686.063 297.297   6
  -4 -15  -2 619.019 233.956   4
  -4 -15  -2 825.800 245.965   2
   4 -15   3 1027.07 347.580   1
   4  15   3 1034.39 328.509   6
  -4 -15  -3 956.287 263.441   4
  -4 -15  -3 1425.42 272.481   2
   4 -15   4 498.928 335.669   1
   4 -15   4 476.462 267.944   6
   4  15   4 1243.15 349.533   6
  -4 -15  -4 1613.52 279.750   2
  -4 -15  -4 1598.89 307.749   4
   4 -15   5 752.885 344.048   1
   4 -15   5 693.955 287.039   6
  -4 -15  -5 527.521 249.735   4
  -4 -15  -5 555.577 234.236   2
   4 -15   6 453.600 346.321   1
   4 -15   6 838.846 310.749   6
   4  15   6 871.238 349.645   6
  -4 -15  -6 478.962 267.577   4
  -4 -15  -6 361.650 227.042   2
   4 -15   7 961.178 381.800   1
   4 -15   7 464.567 312.199   6
   4  15   7 1018.52 338.795   6
  -4 -15  -7 1269.91 313.538   4
  -4 -15  -7 1207.01 269.317   2
   4 -15   8 171.626 339.257   1
   4 -15   8 180.636 296.149   6
   4  15   8 149.733 332.376   6
  -4 -15  -8 495.520 304.211   4
  -4 -15  -8 317.335 231.448   2
  -4  16  10 1894.73 538.287   3
  -4 -16  10 629.699 216.223   2
  -4  16   9 225.368 411.936   3
  -4 -16   9 127.595 187.055   2
  -4  16   8 715.101 415.169   3
   4 -16  -8 492.376 296.878   1
  -4 -16   8 133.685 195.816   2
  -4  16   7-558.304 412.226   3
  -4 -16   7 78.7831 198.212   2
  -4  16   6-80.3909 383.028   3
   4 -16  -6 407.419 311.291   1
  -4 -16   6 400.793 221.002   2
  -4  16   5 339.380 381.347   3
   4  16  -5 793.861 279.743   6
   4 -16  -5 694.828 285.818   1
  -4 -16   5 102.895 203.754   2
  -4  16   4 124.818 327.441   3
   4  16  -4-221.448 245.636   6
   4 -16  -4 654.267 312.778   1
  -4 -16   4 114.069 213.230   2
   4 -16  -3 115.979 288.159   1
  -4  16   3 411.464 308.375   3
   4  16  -3 473.937 281.379   6
  -4 -16   3 202.116 205.857   2
   4 -16  -2-5.86471 301.783   1
  -4  16   2 233.788 273.005   3
   4  16  -2-11.5153 249.711   6
  -4 -16   2 292.313 213.914   2
   4  16  -1 346.015 272.789   6
  -4 -16   1-144.896 172.598   4
  -4 -16   1 225.893 216.581   2
   4 -16   0 1905.22 382.693   1
   4  16   0 1554.53 336.121   6
  -4 -16   0 2034.76 280.331   2
  -4 -16   0 2001.52 272.389   4
   4 -16   1 259.616 307.862   1
   4  16   1 73.9750 264.635   6
  -4 -16  -1 63.1538 182.281   4
  -4 -16  -1 102.533 214.294   2
   4  16   2 674.119 312.683   6
  -4 -16  -2 1321.90 264.912   4
  -4 -16  -2 1107.18 250.474   2
   4 -16   2 1188.55 373.804   1
   4  16   3 612.725 309.012   6
  -4 -16  -3 469.840 247.424   4
  -4 -16  -3 880.534 248.559   2
   4 -16   3 813.093 358.237   1
   4  16   4-34.4544 287.214   6
  -4 -16  -4 125.894 229.059   4
  -4 -16  -4-16.7516 212.113   2
   4 -16   4 91.4190 334.826   1
   4  16   5 174.822 325.116   6
  -4 -16  -5 413.126 261.355   4
  -4 -16  -5 597.540 260.798   2
   4 -16   5 469.702 355.115   1
   4 -16   6 622.957 292.995   6
   4  16   6 505.787 322.390   6
  -4 -16  -6 1246.59 307.202   4
  -4 -16  -6 1012.69 251.818   2
   4 -16   6 1168.75 407.472   1
   4 -16   7-82.9653 270.513   6
   4  16   7 364.515 321.565   6
  -4 -16  -7 89.5031 254.594   4
  -4 -16  -7-328.174 243.845   2
   4 -16   7-150.404 339.680   1
  -4  17   9 287.082 431.064   3
  -4 -17   9 759.795 216.396   2
   4 -17  -8 38.2416 303.276   1
  -4 -17   8 56.6995 190.983   2
  -4  17   7 673.562 454.989   3
  -4 -17   7 1657.85 271.805   2
   4 -17  -7 1364.47 357.732   1
  -4  17   6 242.408 386.908   3
   4 -17  -6-92.4017 313.668   1
  -4 -17   6 268.899 210.534   2
   4  17  -5 1276.76 319.939   6
  -4  17   5 1395.28 436.868   3
   4 -17  -5 976.042 334.251   1
  -4 -17   5 1140.13 256.397   2
  -4  17   4 374.597 338.564   3
   4 -17  -4-99.4144 313.015   1
   4  17  -4 299.715 255.007   6
  -4 -17   4-170.343 214.567   2
   4 -17  -3 1484.65 364.204   1
   4  17  -3 1420.24 318.798   6
  -4 -17   3 2101.41 292.004   2
   4 -17  -2 953.616 330.852   1
  -4  17   2 586.007 299.432   3
   4  17  -2 388.205 273.656   6
  -4 -17   2 1248.05 265.204   2
   4  17  -1 2807.33 399.363   6
  -4 -17   1 3102.20 323.205   2
  -4 -17   1 3694.10 341.178   4
   4 -17  -1 2499.96 416.315   1
   4 -17   0 18.7639 308.575   1
   4  17   0 63.5444 272.836   6
  -4 -17   0-2.51180 186.547   4
  -4 -17   0 432.971 234.030   2
   4  17   1 913.693 327.582   6
  -4 -17  -1 587.696 229.353   4
  -4 -17  -1 548.474 225.472   2
   4 -17   1 204.553 340.482   1
   4  17   2-242.916 283.911   6
  -4 -17  -2 369.461 221.295   4
  -4 -17  -2 325.465 222.769   2
   4 -17   2 412.498 356.170   1
   4  17   3 1143.49 342.281   6
  -4 -17  -3 1386.37 280.958   4
  -4 -17  -3 1123.23 261.650   2
   4 -17   3 844.573 346.315   1
   4  17   4 379.925 296.108   6
  -4 -17  -4 1165.27 311.233   4
  -4 -17  -4 985.477 247.656   2
   4 -17   4 258.180 332.376   1
   4  17   5 360.457 341.915   6
  -4 -17  -5 509.172 274.945   4
  -4 -17  -5 115.613 234.167   2
   4 -17   5 275.813 324.383   1
   4  17   6-36.9100 331.521   6
  -4 -17  -6-98.2592 254.459   4
  -4 -17  -6 574.669 257.671   2
   4 -17   6-96.9864 334.908   1
   4 -18  -8 52.4126 297.923   1
  -4 -18   8-339.888 222.059   2
  -4  18   7-104.987 438.665   3
   4 -18  -7 617.308 326.231   1
  -4 -18   7 344.895 217.350   2
  -4  18   6 747.789 441.905   3
   4 -18  -6 1252.49 352.817   1
  -4 -18   6 726.997 238.965   2
  -4  18   5-264.546 378.667   3
   4  18  -5 61.3399 252.629   6
   4 -18  -5 455.859 314.814   1
  -4 -18   5-84.8682 211.883   2
   4 -18  -4 363.016 312.902   1
  -4  18   4 228.536 332.455   3
   4  18  -4 889.838 296.936   6
  -4 -18   4 584.362 234.126   2
  -4  18   3-36.7388 303.077   3
   4  18  -3 404.244 264.247   6
  -4 -18   3 239.836 229.223   2
   4  18  -2 2061.77 354.799   6
   4 -18  -2 2207.95 408.556   1
  -4 -18   2 2100.18 301.029   2
   4 -18  -1 450.465 335.143   1
   4  18  -1 313.416 282.810   6
  -4 -18   1 281.057 232.608   2
   4  18   0 312.897 301.444   6
  -4 -18   0 466.320 223.976   4
  -4 -18   0 163.740 217.958   2
   4 -18   0 92.5062 338.816   1
   4  18   1 394.300 277.922   6
  -4 -18  -1 229.747 216.233   4
  -4 -18  -1-52.7573 233.617   2
   4 -18   1-2.26778 329.011   1
   4  18   2 1161.75 353.192   6
  -4 -18  -2 1636.10 291.989   2
  -4 -18  -2 1133.64 256.032   4
   4 -18   2 1417.38 405.529   1
   4  18   3 1232.27 356.000   6
  -4 -18  -3 1018.73 266.111   4
  -4 -18  -3 361.628 225.711   2
   4 -18   3 1069.56 385.942   1
   4  18   4 2527.86 414.137   6
  -4 -18  -4 3009.36 330.680   2
  -4 -18  -4 3158.26 392.198   4
   4 -18   4 2071.38 413.269   1
   4  18   5-22.8714 304.096   6
  -4 -18  -5 395.343 273.040   4
  -4 -18  -5 198.624 227.763   2
   4 -18   5 110.862 330.086   1
  -4  19   7-374.357 429.707   3
   4 -19  -7 110.598 296.361   1
  -4 -19   7 194.294 214.858   2
  -4  19   6 690.396 430.735   3
   4 -19  -6 83.4200 290.811   1
  -4 -19   6 66.3561 210.143   2
  -4  19   5 813.475 433.386   3
   4 -19  -5 1148.37 357.562   1
  -4 -19   5 1806.55 270.887   2
   4 -19  -4-290.277 337.439   1
  -4  19   4 54.5275 326.969   3
   4  19  -4 62.7659 266.784   6
  -4 -19   4-62.2415 217.534   2
   4 -19  -3 1042.10 374.392   1
  -4  19   3 756.770 339.156   3
   4  19  -3 476.032 264.052   6
  -4 -19   3 345.068 210.100   2
   4 -19  -2 344.938 348.789   1
   4  19  -2-129.946 288.480   6
  -4 -19   2 117.649 209.909   2
   4  19  -1 799.712 306.419   6
  -4 -19   1 1279.19 261.881   2
   4 -19  -1 789.526 378.165   1
   4  19   0 235.930 275.305   6
  -4 -19   0-153.554 208.925   4
  -4 -19   0 362.132 230.600   2
   4  19   1 981.407 345.219   6
  -4 -19  -1 1919.38 285.507   2
  -4 -19  -1 1684.95 293.824   4
   4 -19   1 897.571 368.976   1
   4  19   2-70.5032 305.447   6
  -4 -19  -2 0.36464 212.447   4
  -4 -19  -2-67.2749 218.229   2
   4 -19   2-26.2165 332.632   1
   4  19   3 1835.61 392.520   6
  -4 -19  -3 1844.63 297.367   2
  -4 -19  -3 1735.56 306.518   4
   4 -19   3 1499.89 404.432   1
   4  19   4 117.408 318.802   6
  -4 -19  -4 81.7210 240.677   4
  -4 -19  -4 1.00032 224.809   2
   4 -19   4 342.949 338.097   1
  -4  20   6 1099.26 474.352   3
   4 -20  -6 784.158 342.089   1
  -4 -20   6-31.8909 206.964   2
  -4  20   5-555.383 392.579   3
  -4 -20   5 114.241 211.718   2
   4 -20  -4 971.597 348.757   1
  -4  20   4 505.061 350.039   3
   4  20  -4 563.239 294.362   6
  -4 -20   4 679.650 234.236   2
   4 -20  -3 1148.83 381.303   1
  -4  20   3 239.563 337.684   3
   4  20  -3 697.262 300.513   6
  -4 -20   3 545.613 241.912   2
   4 -20  -2 396.239 340.577   1
   4  20  -2 475.432 306.979   6
  -4 -20   2 417.268 225.945   2
   4  20  -1-571.165 275.589   6
  -4 -20   1-165.860 224.412   2
   4 -20  -1 299.009 359.561   1
   4  20   0 500.665 287.111   6
  -4 -20   0 238.326 231.074   2
   4 -20   0 390.314 384.393   1
   4  20   1 431.990 299.031   6
  -4 -20  -1 485.235 241.587   4
  -4 -20  -1 850.266 247.643   2
   4 -20   1 853.274 369.429   1
   4  20   2 293.945 295.426   6
  -4 -20  -2 308.749 236.720   4
  -4 -20  -2 545.367 237.237   2
   4 -20   2 146.558 357.988   1
   4  20   3 43.3382 303.903   6
  -4 -20  -3 347.293 249.779   4
  -4 -20  -3-71.8744 222.380   2
   4 -20   3 211.690 359.053   1
   4 -21  -4-84.9909 328.549   1
  -4  21   4-63.1319 325.732   3
   4  21  -4-210.063 262.146   6
  -4 -21   4-205.672 223.281   2
   4 -21  -3 37.1317 340.515   1
   4  21  -3-137.923 274.445   6
  -4 -21   3 232.476 219.347   2
   4  21  -2 125.508 280.276   6
  -4 -21   2 262.178 229.329   2
   4 -21  -2-166.775 364.017   1
   4  21  -1 1073.29 341.238   6
  -4 -21   1 1461.14 292.279   2
   4  21   0 71.8340 281.043   6
  -4 -21   0 743.713 261.132   2
   4 -21   0-136.720 358.709   1
   4  21   1 639.276 333.126   6
  -4 -21  -1 381.900 228.713   2
  -5   0  11 2359.35 323.756   2
  -5   0  10-278.559 255.823   2
  -5   0   9-141.119 256.715   2
  -5   0   8-209.465 268.448   2
   5   0  -7-81.4823 205.992   6
  -5   0   7 232.544 274.737   2
   5   0  -6-93.1541 219.984   6
  -5   0   6 42.1299 298.553   2
   5   0  -5 3761.90 380.877   6
  -5   0   5 4008.23 465.958   2
   5   0  -5 3461.47 413.579   1
   5   0  -4 186.838 287.244   1
   5   0  -4-35.4847 246.094   6
  -5   0   4 494.701 319.464   2
   5   0  -3 4982.32 430.532   6
  -5   0   3 5994.38 523.495   2
   5   0  -3 5716.32 484.378   1
   5   0  -2 392.588 285.662   1
   5   0  -2-424.067 266.152   6
  -5   0   2 108.564 300.496   2
   5   0  -1 364.838 273.774   6
  -5   0   1 47.8651 299.652   2
   5   0  -1-113.777 279.220   1
   5   0   0 48.1559 259.585   6
   5   0   0 97.1336 284.121   1
  -5   0   0-128.398 190.824   4
  -5   0   0-310.049 342.136   2
   5   0   1-224.205 292.892   6
   5   0   1 192.757 289.391   1
  -5   0  -1 163.779 214.044   4
  -5   0  -1 709.575 350.560   2
   5   0   2-718.879 309.695   6
   5   0   2-10.4023 285.403   1
  -5   0  -2 158.357 253.342   4
  -5   0  -2-307.489 348.883   2
  -5   0  -3 1812.17 398.321   2
  -5   0  -3 1215.46 310.214   4
   5   0   3 2679.40 424.024   1
   5   0   3 1762.81 401.685   6
   5   0   4 482.957 298.328   1
   5   0   4 623.081 347.231   6
  -5   0  -4 321.644 274.982   4
  -5   0  -4 174.042 354.891   2
   5   0   5 1862.53 383.571   1
   5   0   5 1371.01 380.634   6
  -5   0  -5 1788.09 421.964   2
  -5   0  -5 1464.66 368.832   4
   5   0   6 333.187 296.126   1
   5   0   6-17.8654 322.551   6
  -5   0  -6-467.986 313.691   4
  -5   0  -6 598.909 363.625   2
   5   0   7 1283.02 368.470   1
   5   0   7 1479.97 391.955   6
  -5   0  -7 1295.50 355.331   4
  -5   0  -7 1024.29 386.071   2
  -5   1  11-57.1001 224.044   2
  -5  -1  11 625.712 256.867   2
  -5   1  10 259.984 259.155   2
  -5  -1  10 141.716 241.999   2
  -5   1   9-184.288 259.416   2
  -5  -1   9 499.000 278.680   2
  -5  -1   8 1953.49 360.741   2
  -5   1   8 880.097 305.443   2
   5   1  -7 305.040 226.065   6
  -5   1   7-133.676 295.975   2
  -5  -1   7-148.908 296.970   2
   5   1  -6-35.4826 216.185   6
   5  -1  -6 88.8010 217.406   6
  -5   1   6 172.836 295.779   2
  -5  -1   6 509.182 277.742   2
   5  -1  -6-200.310 277.487   1
   5  -1  -5 1442.32 276.243   6
   5   1  -5 1553.58 284.899   6
  -5   1   5 2151.56 403.202   2
  -5  -1   5 1114.21 338.888   2
   5  -1  -5 1599.76 355.154   1
   5  -1  -4 2923.85 341.528   6
   5   1  -4 2998.17 369.047   6
  -5   1   4 2455.72 399.776   2
  -5  -1   4 2512.15 387.898   2
   5  -1  -4 3579.33 429.649   1
   5   1  -4 3280.41 403.656   1
   5  -1  -3 357.479 259.921   6
   5   1  -3-131.493 243.683   6
   5   1  -3 364.767 293.907   1
  -5   1   3 928.765 363.868   2
  -5  -1   3-328.638 301.365   2
   5  -1  -3 1063.19 340.230   1
   5  -1  -2 563.115 263.292   6
   5   1  -2 277.168 260.588   6
   5  -1  -2 599.946 311.696   1
  -5   1   2 190.804 295.802   2
  -5  -1   2 1493.36 377.829   2
   5   1  -2 1123.83 336.133   1
   5   1  -1 119.343 284.794   1
   5  -1  -1 441.888 264.476   6
   5   1  -1-243.319 258.488   6
  -5   1   1-401.626 327.891   2
   5  -1  -1 240.163 313.327   1
  -5  -1   1-430.028 327.768   2
   5  -1   0-63.1175 280.205   1
   5  -1   0-89.3729 263.692   6
   5   1   0-172.487 276.488   6
  -5   1   0 263.056 198.158   4
  -5  -1   0-67.5510 194.919   4
  -5  -1   0 177.164 299.650   2
   5   1   0 223.424 274.538   1
   5  -1   1-233.731 291.868   1
   5  -1   1 138.218 268.701   6
   5   1   1-93.6714 285.175   6
  -5   1  -1-385.844 242.304   4
  -5  -1  -1-0.80566 207.336   4
  -5  -1  -1-122.907 306.145   2
   5   1   1 211.998 292.486   1
   5  -1   2 590.861 293.478   6
   5   1   2 925.819 333.569   6
  -5   1  -2 1152.45 305.169   4
   5   1   2 1425.84 348.504   1
  -5  -1  -2 910.059 263.038   4
  -5  -1  -2 1612.20 375.966   2
   5  -1   2 1763.31 362.297   1
   5  -1   3 157.316 288.956   6
   5   1   3-704.927 348.397   6
   5   1   3 269.514 288.672   1
  -5   1  -3 290.543 260.340   4
  -5  -1  -3 170.154 243.155   4
  -5  -1  -3 102.640 337.442   2
   5  -1   3 556.699 316.574   1
   5  -1   4 204.555 302.808   6
   5   1   4 810.006 360.892   6
   5   1   4 587.199 317.590   1
  -5   1  -4 666.789 296.553   4
  -5  -1  -4 1354.92 313.725   4
  -5  -1  -4 747.354 344.962   2
   5  -1   4 212.148 303.740   1
   5  -1   5 23.2844 299.888   6
   5   1   5 616.644 353.812   6
   5   1   5 179.089 305.921   1
  -5   1  -5 258.717 298.044   4
  -5  -1  -5 631.227 286.785   4
  -5  -1  -5 998.020 383.915   2
   5  -1   5 354.181 339.198   1
   5  -1   6 1300.38 385.453   6
   5   1   6 632.639 333.307   6
   5   1   6 1308.51 361.955   1
  -5   1  -6 581.746 329.467   4
  -5  -1  -6 308.532 279.155   4
  -5  -1  -6 892.229 396.603   2
   5  -1   6 488.925 331.668   1
   5  -1   7 928.634 373.101   6
   5   1   7 161.089 327.006   6
  -5   1  -7-30.3171 341.549   2
   5   1   7-257.277 333.271   1
  -5   1  -7 27.0138 299.047   4
  -5  -1  -7 268.637 326.873   4
  -5  -1  -7 48.1352 325.840   2
   5  -1   7-119.467 309.474   1
  -5   2  11 162.620 233.664   2
  -5  -2  11 120.071 222.247   2
  -5   2  10 311.040 268.898   2
  -5  -2  10 181.735 246.859   2
  -5   2   9 264.842 247.307   2
  -5  -2   9 66.5737 255.068   2
  -5   2   8 2755.40 385.090   2
  -5  -2   8 3089.76 385.692   2
   5  -2  -7-167.003 268.580   1
   5   2  -7-117.197 217.316   6
  -5   2   7-268.864 299.553   2
   5  -2  -6 919.942 315.669   1
   5   2  -6 1129.82 279.440   6
   5  -2  -6 725.581 230.666   6
  -5   2   6 658.067 327.173   2
  -5  -2   6 491.025 273.713   2
   5  -2  -5 481.507 230.182   6
   5   2  -5 141.538 228.571   6
   5  -2  -5-419.934 311.676   1
  -5   2   5 632.481 332.065   2
  -5  -2   5 513.333 280.473   2
   5  -2  -4-159.861 231.535   6
   5   2  -4-161.814 235.012   6
  -5   2   4 607.905 336.285   2
  -5  -2   4 60.2113 297.794   2
   5  -2  -4 168.516 290.218   1
   5  -2  -3 102.652 239.635   6
   5   2  -3 243.021 260.605   6
   5  -2  -3 110.470 288.917   1
  -5  -2   3 594.297 315.519   2
   5   2  -3 356.651 300.652   1
   5   2  -2 2389.24 347.493   6
   5  -2  -2 1453.46 301.864   6
  -5  -2   2 2774.56 429.795   2
   5  -2  -2 2078.65 380.785   1
   5   2  -2 2206.25 365.227   1
   5  -2  -1-371.342 301.248   1
   5  -2  -1 287.299 268.741   6
   5   2  -1-0.19121 269.719   6
  -5  -2   1 158.242 299.990   2
   5   2  -1 25.6906 271.527   1
   5  -2   0 193.909 261.822   6
   5   2   0 9.97094 284.061   6
   5   2   0 434.039 293.359   1
  -5   2   0 671.832 253.354   4
  -5  -2   0-73.4379 187.618   4
  -5  -2   0 432.657 317.228   2
   5  -2   0 673.221 338.521   1
   5  -2   1 612.249 291.851   6
   5   2   1 1076.10 342.885   6
   5   2   1 1117.45 329.960   1
  -5  -2  -1 1530.53 401.581   2
  -5   2  -1 1058.41 276.944   4
  -5  -2  -1 946.123 246.707   4
   5  -2   1 1662.19 371.932   1
   5  -2   2 959.245 317.136   6
  -5   2  -2 1589.26 326.355   4
  -5  -2  -2 2017.12 318.569   4
  -5  -2  -2 1963.75 393.250   2
   5  -2   2 1602.02 370.950   1
   5   2   2 1670.82 368.381   1
   5   2   2 1780.91 374.326   6
   5  -2   3 1159.25 355.540   6
   5   2   3 1169.71 349.475   6
  -5   2  -3 652.595 297.225   4
  -5  -2  -3 727.980 268.448   4
  -5  -2  -3 1021.14 367.856   2
   5  -2   3 349.470 307.635   1
   5   2   3 601.666 316.513   1
   5  -2   4 991.878 372.153   6
   5   2   4 299.826 327.517   6
  -5   2  -4 895.070 311.544   4
  -5  -2  -4 486.960 266.433   4
  -5  -2  -4 44.1548 327.550   2
   5  -2   4 919.898 375.201   1
   5   2   4 769.887 314.894   1
   5  -2   5 1030.73 362.536   6
  -5  -2  -5 1713.05 361.759   4
  -5   2  -5 1085.59 340.793   4
  -5  -2  -5 1706.04 395.977   2
   5  -2   5 2152.72 415.736   1
   5   2   5 1489.10 342.863   1
   5   2   5 2111.49 423.415   6
   5  -2   6 554.951 346.258   6
   5   2   6-479.630 365.817   6
  -5   2  -6 278.680 293.631   4
  -5  -2  -6 583.177 307.514   4
  -5  -2  -6 846.508 364.349   2
   5  -2   6 850.155 376.262   1
   5   2   6 792.933 312.083   1
   5  -2   7 278.725 321.345   6
   5   2   7 886.701 382.349   6
  -5   2  -7 132.134 321.513   4
  -5  -2  -7-199.841 290.557   4
  -5  -2  -7 418.341 345.398   2
   5  -2   7 39.3584 319.406   1
   5   2   7 651.605 341.579   1
  -5   3  10-37.7865 234.773   2
  -5  -3  10-98.6696 228.014   2
  -5  -3   9 1644.95 330.205   2
  -5   3   9 1176.85 323.814   2
   5  -3  -8-61.1942 260.655   1
  -5   3   8 363.963 307.744   2
  -5  -3   8 452.775 285.772   2
   5   3  -7 2054.28 314.142   6
  -5   3   7 2215.47 377.521   2
  -5  -3   7 2275.28 364.192   2
   5  -3  -7 1926.98 365.345   1
   5   3  -6 166.829 236.350   6
   5  -3  -6-133.491 216.351   6
   5  -3  -6 697.251 308.507   1
  -5   3   6 441.928 329.158   2
  -5  -3   6 521.284 314.506   2
   5  -3  -5 2390.00 312.314   6
  -5   3   5 1742.88 377.612   2
   5   3  -5 1213.88 292.793   6
  -5  -3   5 1476.96 335.319   2
   5  -3  -5 1887.60 374.677   1
   5  -3  -4 1098.47 265.841   6
   5   3  -4 1251.61 303.582   6
  -5  -3   4 1154.38 315.618   2
   5  -3  -4 1708.03 365.360   1
   5  -3  -3 2062.56 306.613   6
   5   3  -3 1813.67 320.934   6
  -5  -3   3 2386.61 377.186   2
   5  -3  -3 2044.96 381.366   1
   5  -3  -2 928.252 270.343   6
   5   3  -2 1290.91 313.327   6
  -5  -3   2 1208.88 351.351   2
   5   3  -2 2092.34 372.213   1
   5  -3  -2 783.695 323.071   1
   5  -3  -1 507.987 268.945   6
   5   3  -1 187.213 258.809   6
   5   3  -1 79.0276 280.701   1
  -5  -3   1 535.228 343.577   2
   5  -3  -1-26.5794 301.579   1
   5  -3   0 923.394 290.835   6
   5   3   0 576.734 282.293   6
  -5  -3   0 1594.15 385.728   2
  -5   3   0 659.825 259.780   4
   5   3   0 954.005 301.852   1
  -5  -3   0 524.327 225.470   4
   5  -3   0 1241.27 363.672   1
   5  -3   1 301.767 265.955   6
   5   3   1 144.675 277.506   6
  -5   3  -1 200.665 228.612   4
  -5  -3  -1 181.182 222.497   4
  -5  -3  -1 315.600 315.607   2
   5  -3   1 40.9431 315.492   1
   5   3   1 254.355 284.217   1
   5  -3   2 514.896 301.323   6
   5   3   2 305.548 285.955   6
  -5   3  -2 835.550 285.178   4
  -5  -3  -2 415.038 246.646   4
   5  -3   2 593.180 330.132   1
  -5  -3  -2 651.465 327.619   2
   5   3   2 296.311 281.082   1
   5  -3   3 97.0240 284.239   6
   5   3   3 363.064 324.085   6
   5   3   3 637.335 303.778   1
  -5   3  -3 61.7837 242.126   4
   5  -3   3 659.814 348.326   1
  -5  -3  -3 455.058 273.944   4
  -5  -3  -3 813.116 355.213   2
   5  -3   4 680.739 320.842   6
   5   3   4-142.541 312.785   6
   5   3   4 58.6389 303.228   1
   5  -3   4 720.629 349.179   1
  -5   3  -4 147.807 276.877   4
  -5  -3  -4 43.4889 243.574   4
  -5  -3  -4-500.171 363.205   2
   5  -3   5 1203.94 341.618   6
   5   3   5 690.826 356.689   6
   5   3   5 1583.77 359.533   1
   5  -3   5 1319.57 385.726   1
  -5   3  -5 1236.95 343.979   4
  -5  -3  -5 1042.49 319.650   4
  -5  -3  -5 1499.88 404.144   2
   5  -3   6 241.768 303.187   6
   5   3   6 78.6534 329.745   6
   5   3   6-304.414 310.514   1
   5  -3   6 280.645 320.815   1
  -5   3  -6 112.102 288.081   4
  -5  -3  -6 35.3943 269.677   4
  -5  -3  -6-126.332 326.863   2
   5  -3   7 588.321 345.134   6
   5   3   7 462.193 354.129   6
   5   3   7 1437.07 345.285   1
   5  -3   7 1082.66 386.576   1
  -5   3  -7 331.870 326.154   4
  -5  -3  -7 574.687 302.834   4
  -5  -3  -7 321.401 330.768   2
  -5   4  10 169.939 242.834   2
  -5  -4  10 761.451 268.076   2
  -5   4   9 2278.73 372.166   2
  -5  -4   9 2296.75 339.995   2
   5  -4  -8 1417.37 332.414   1
  -5   4   8 1338.52 339.062   2
  -5  -4   8 1628.51 313.397   2
   5   4  -7 4.19796 219.801   6
  -5   4   7 266.086 295.405   2
   5  -4  -7 193.734 275.621   1
  -5  -4   7 30.4035 266.288   2
   5   4  -6 1681.74 303.761   6
  -5   4   6 2440.07 418.033   2
  -5  -4   6 2634.29 387.345   2
   5  -4  -6 2075.48 360.391   1
   5  -4  -5-168.625 222.323   6
   5   4  -5 758.272 285.535   6
   5  -4  -5 459.335 320.920   1
  -5  -4   5 178.664 294.205   2
   5   4  -4 604.323 324.758   6
   5  -4  -4 486.633 314.294   1
   5  -4  -4-138.497 221.880   6
  -5  -4   4 172.956 279.083   2
   5  -4  -3 281.313 237.528   6
   5   4  -3 702.675 288.901   6
  -5  -4   3 1082.25 323.373   2
   5  -4  -3 1110.04 329.884   1
   5   4  -2 2096.30 370.463   6
   5  -4  -2 1334.45 294.481   6
  -5  -4   2 1831.98 357.323   2
   5  -4  -2 2463.49 418.741   1
   5  -4  -1-528.168 264.892   6
   5   4  -1-155.333 279.914   6
  -5  -4   1-373.576 318.536   2
   5  -4  -1-52.7549 319.891   1
   5   4   0 1959.48 357.647   6
  -5  -4   0 2514.75 394.898   2
  -5   4   0 1838.47 322.126   4
   5  -4   0 3116.03 445.887   1
   5   4   0 2020.06 373.842   1
   5  -4   0 1853.67 331.228   6
   5  -4   1 1463.97 332.740   6
   5   4   1 781.306 302.464   6
   5  -4   1 752.764 355.762   1
  -5   4  -1 670.140 253.957   4
  -5  -4  -1 1229.11 270.268   4
  -5  -4  -1 1388.15 356.643   2
   5   4   1 1295.54 348.833   1
   5  -4   2 597.828 316.779   6
   5   4   2 264.607 292.447   6
   5  -4   2 579.727 345.513   1
  -5   4  -2-79.0491 238.039   4
  -5  -4  -2 372.002 243.337   4
  -5  -4  -2 827.478 349.953   2
   5   4   2 696.119 320.810   1
   5  -4   3 497.037 314.094   6
   5   4   3 113.136 295.703   6
   5  -4   3 546.788 340.005   1
   5   4   3-95.5272 279.426   1
  -5   4  -3-203.415 262.584   4
  -5  -4  -3 393.647 278.923   4
  -5  -4  -3 328.037 347.790   2
   5  -4   4 331.803 307.523   6
   5   4   4 56.8149 309.199   6
   5   4   4 312.203 302.549   1
   5  -4   4-107.077 324.550   1
  -5   4  -4 283.211 264.218   4
  -5  -4  -4 153.976 244.460   4
  -5  -4  -4 808.251 359.360   2
   5   4   5 47.7114 301.550   1
   5  -4   5 623.734 330.920   6
   5   4   5 454.335 350.853   6
   5  -4   5 607.297 368.095   1
  -5   4  -5 213.196 279.707   4
  -5  -4  -5 64.3330 264.529   4
  -5  -4  -5 527.456 310.304   2
   5   4   6 422.643 305.113   1
   5  -4   6 603.130 327.467   6
   5   4   6 140.971 333.473   6
   5  -4   6-113.224 344.986   1
  -5   4  -6-66.5505 290.999   4
  -5  -4  -6 268.109 267.461   4
  -5  -4  -6 398.082 334.654   2
   5  -4   7 988.254 354.543   6
   5   4   7 743.368 381.275   6
   5   4   7 1200.61 346.104   1
   5  -4   7 1236.13 383.120   1
  -5   4  -7 18.5285 306.075   4
  -5  -4  -7 1394.66 352.755   4
  -5  -4  -7 87.6681 308.079   2
  -5   5  10 449.265 403.400   3
  -5   5  10 978.181 302.384   2
  -5  -5  10 1058.65 262.464   2
  -5   5   9-341.953 386.992   3
   5  -5  -9-301.380 266.502   1
  -5   5   9 585.708 313.666   2
  -5  -5   9 213.064 244.246   2
  -5   5   8 311.242 309.174   2
  -5  -5   8-23.0245 244.964   2
   5  -5  -8 76.5615 282.828   1
   5   5  -7 1863.13 318.325   6
  -5   5   7 1508.34 372.164   2
  -5  -5   7 2063.80 337.568   2
   5  -5  -7 2401.96 404.419   1
   5   5  -6 210.674 259.045   6
   5  -5  -6-83.5093 286.333   1
  -5  -5   6 869.427 307.673   2
   5  -5  -5 1539.27 365.733   1
   5   5  -5 748.029 277.440   6
  -5  -5   5 842.430 303.858   2
   5  -5  -4 688.275 238.544   6
   5   5  -4 896.955 299.180   6
  -5  -5   4 1018.61 343.619   2
   5  -5  -4 737.628 316.879   1
   5  -5  -3 150.650 228.548   6
   5   5  -3 478.528 270.614   6
  -5  -5   3 738.921 321.590   2
   5  -5  -3 324.476 298.583   1
   5  -5  -2-117.114 226.019   6
   5   5  -2 639.048 290.165   6
   5  -5  -2 104.841 316.991   1
  -5  -5   2 374.695 291.511   2
   5  -5  -1-104.650 233.549   6
   5   5  -1 250.277 273.046   6
   5  -5  -1 149.690 314.312   1
  -5  -5   1 137.616 288.303   2
   5  -5   0 1009.78 291.232   6
   5   5   0 446.663 296.917   6
   5  -5   0 964.793 368.406   1
  -5   5   0 610.742 262.842   4
  -5  -5   0 1408.14 348.844   2
  -5  -5  -1 3573.58 443.511   2
  -5   5  -1 2128.15 328.987   4
  -5  -5  -1 3509.82 372.518   4
   5  -5   1 3735.98 472.015   1
   5  -5   1 3360.13 405.816   6
   5   5   1 3552.55 430.759   6
   5  -5   2 1118.48 335.729   6
   5   5   2 1250.05 358.928   6
  -5  -5  -2 2198.73 396.689   2
  -5  -5  -2 1780.99 310.857   4
  -5   5  -2 1038.42 281.264   4
   5  -5   2 1984.45 409.637   1
   5   5   2 1899.82 359.174   1
   5  -5   3 95.7926 297.049   6
   5   5   3 418.617 326.234   6
   5  -5   3 84.4646 332.144   1
   5   5   3 505.624 301.269   1
  -5   5  -3 120.779 247.638   4
  -5  -5  -3 132.128 244.557   4
  -5  -5  -3 932.968 342.070   2
  -5   5  -4 1876.18 379.735   4
  -5  -5  -4 2732.74 382.622   4
  -5  -5  -4 2108.53 386.211   2
   5  -5   4 2868.06 452.461   1
   5   5   4 3084.71 415.609   1
   5  -5   4 1786.48 384.037   6
   5   5   4 2606.10 453.540   6
   5  -5   5 351.588 355.139   1
   5  -5   5 362.359 315.686   6
   5   5   5-648.544 364.797   6
   5   5   5 539.288 307.683   1
  -5   5  -5 459.220 303.140   4
  -5  -5  -5-32.0499 270.897   4
  -5  -5  -5 316.793 331.090   2
   5  -5   6 298.354 346.006   1
   5  -5   6 439.443 323.095   6
   5   5   6 1089.04 391.485   6
   5   5   6 977.482 323.134   1
  -5   5  -6 686.806 323.334   4
  -5  -5  -6 151.904 288.994   4
  -5  -5  -6 478.845 338.005   2
  -5   6  10 319.938 406.262   3
  -5   6  10 131.477 252.694   2
  -5  -6  10 2.22767 227.283   2
  -5   6   9 523.004 362.211   3
  -5   6   9 377.758 277.630   2
   5  -6  -9 1209.10 329.702   1
  -5  -6   9 942.577 275.617   2
  -5   6   8 172.181 341.951   3
  -5   6   8-279.293 288.858   2
   5  -6  -8 18.4637 272.403   1
  -5  -6   8-161.614 243.910   2
   5   6  -7 855.727 285.698   6
   5  -6  -7 652.478 321.740   1
  -5  -6   7 447.755 259.005   2
   5   6  -6 1294.81 297.433   6
  -5  -6   6 971.474 294.610   2
   5  -6  -6 1872.77 384.243   1
   5   6  -5-40.3253 245.572   6
  -5  -6   5-37.3446 259.492   2
   5  -6  -5 538.768 330.232   1
   5   6  -4 1715.59 337.674   6
  -5  -6   4 2470.71 370.388   2
   5  -6  -4 2440.15 400.109   1
   5  -6  -3 695.526 230.691   6
   5   6  -3 651.602 296.724   6
   5  -6  -3 1465.19 365.977   1
  -5  -6   3 808.749 302.241   2
   5  -6  -2 1927.44 311.331   6
   5   6  -2 1456.44 328.225   6
   5  -6  -2 1683.02 384.667   1
  -5  -6   2 1283.69 321.126   2
   5  -6  -1-116.372 229.791   6
   5   6  -1 440.175 257.438   6
   5  -6  -1 313.797 313.619   1
  -5  -6   1 63.7281 302.961   2
   5   6   0-228.131 300.437   6
   5  -6   0-348.178 316.887   1
  -5   6   0 205.854 235.925   4
  -5  -6   0 219.863 312.793   2
   5  -6   1 1106.60 352.543   1
   5  -6   1 694.486 288.436   6
   5   6   1 1021.03 352.141   6
  -5   6  -1 930.114 294.328   4
  -5  -6  -1 962.711 250.201   4
  -5  -6  -1 447.947 305.591   2
   5  -6   2 1547.44 397.086   1
   5  -6   2 362.931 290.725   6
   5   6   2-16.1451 291.770   6
  -5   6  -2 267.801 246.287   4
  -5  -6  -2 494.316 246.580   4
  -5  -6  -2 1063.03 362.334   2
   5  -6   3 653.185 337.945   1
   5  -6   3 806.836 293.770   6
  -5  -6  -3 1442.99 315.065   4
  -5   6  -3 771.855 304.950   4
  -5  -6  -3 810.048 333.240   2
   5  -6   4 1075.91 391.478   1
   5  -6   4 323.617 306.188   6
   5   6   4 606.588 342.006   6
  -5   6  -4 145.873 284.342   4
  -5  -6  -4 846.827 295.476   4
  -5  -6  -4 378.954 317.731   2
   5  -6   5 1841.96 411.400   1
   5  -6   5 1333.35 380.647   6
  -5  -6  -5 2009.36 370.402   4
  -5   6  -5 1350.01 362.021   4
  -5  -6  -5 1791.11 383.015   2
   5   6   5 2502.60 442.834   6
   5  -6   6 142.049 335.370   1
   5  -6   6-62.2122 294.774   6
   5   6   6 12.2365 341.816   6
  -5   6  -6-244.363 316.796   4
  -5  -6  -6-78.3975 304.429   4
  -5  -6  -6-14.8560 328.578   2
   5  -7 -10 141.945 265.930   1
  -5   7  10-167.942 238.259   2
  -5  -7  10 333.370 255.270   2
  -5   7   9 996.829 406.794   3
  -5   7   9 860.987 321.465   2
  -5  -7   9 1410.91 293.678   2
   5  -7  -9 976.962 318.729   1
  -5   7   8-35.9970 351.566   3
  -5  -7   8 457.216 257.315   2
   5  -7  -8 718.213 312.408   1
  -5   7   7 146.018 332.084   3
   5   7  -7 435.736 257.080   6
   5  -7  -7 363.151 303.249   1
  -5  -7   7 379.543 270.775   2
   5  -7  -6 477.422 319.315   1
   5   7  -6-220.504 272.382   6
  -5  -7   6 141.349 266.903   2
   5   7  -5-37.5699 269.333   6
  -5  -7   5 15.9411 263.520   2
   5  -7  -5 77.8392 302.543   1
   5   7  -4 230.526 264.505   6
   5  -7  -4 37.0541 308.145   1
  -5  -7   4 39.7150 265.252   2
   5   7  -3-324.640 282.527   6
   5  -7  -3-216.388 334.382   1
  -5  -7   3 12.8029 271.302   2
   5   7  -2 681.543 293.826   6
   5  -7  -2 923.989 373.843   1
  -5  -7   2 884.914 321.622   2
   5  -7  -1 401.094 242.605   6
   5  -7  -1 169.949 314.364   1
   5   7  -1 270.227 283.980   6
  -5  -7   1 665.176 307.970   2
   5  -7   0-400.743 319.367   1
   5  -7   0-349.409 263.722   6
   5   7   0 250.837 288.227   6
  -5   7   0 270.006 243.721   4
  -5  -7   0 88.9004 290.409   2
   5  -7   1 283.231 328.858   1
   5  -7   1 326.749 269.033   6
   5   7   1 348.193 305.467   6
  -5   7  -1 156.306 239.594   4
  -5  -7  -1-142.738 223.324   4
  -5  -7  -1 364.634 287.167   2
  -5   7  -2 2289.84 372.097   4
  -5  -7  -2 2941.36 367.484   4
   5  -7   2 2672.39 454.705   1
  -5  -7  -2 1954.77 369.509   2
   5  -7   2 2218.42 379.050   6
   5   7   2 2307.13 415.068   6
   5  -7   3 117.428 260.861   6
   5   7   3 492.343 333.868   6
  -5   7  -3 165.780 253.782   4
  -5  -7  -3 160.314 249.855   4
  -5  -7  -3 683.767 347.279   2
   5  -7   3 233.389 347.146   1
   5   7   4 1723.87 403.358   6
  -5  -7  -4 1752.37 384.853   2
  -5   7  -4 1036.81 337.900   4
  -5  -7  -4 1355.07 307.061   4
   5  -7   4 2028.38 439.434   1
   5  -7   4 1418.89 370.084   6
   5  -7   5-497.134 301.994   6
   5   7   5 596.514 357.290   6
  -5   7  -5 108.100 309.413   4
  -5  -7  -5 818.641 305.054   4
  -5  -7  -5-312.670 314.230   2
   5  -7   5 265.242 342.028   1
   5  -7   6 442.435 331.145   6
   5   7   6 713.431 389.297   6
  -5   7  -6 206.350 309.607   4
  -5  -7  -6 694.239 329.294   4
  -5  -7  -6 187.279 301.803   2
   5  -7   6-476.367 361.940   1
  -5   8   9-135.887 386.381   3
   5  -8  -9-182.671 290.225   1
  -5  -8   9 150.003 244.248   2
  -5   8   8 716.536 385.929   3
   5  -8  -8 1246.89 354.257   1
  -5  -8   8 1236.98 294.771   2
  -5   8   7-530.929 367.458   3
   5  -8  -7 89.8637 318.611   1
   5   8  -7 193.567 252.563   6
  -5  -8   7 130.131 261.376   2
  -5   8   6 400.191 332.094   3
   5   8  -6 374.158 264.163   6
  -5  -8   6 1195.01 299.514   2
   5  -8  -6 1098.41 350.677   1
   5   8  -5-75.7409 255.520   6
   5  -8  -5-593.494 346.990   1
  -5  -8   5 355.589 281.221   2
   5   8  -4 544.108 280.822   6
   5  -8  -4 1276.76 378.607   1
  -5  -8   4 349.999 262.081   2
   5   8  -3 267.547 282.149   6
   5  -8  -3-15.5422 326.247   1
  -5  -8   3 132.925 263.366   2
   5   8  -2 1899.46 358.167   6
  -5  -8   2 2449.93 374.068   2
   5  -8  -2 2006.71 417.892   1
   5  -8  -1 825.678 373.141   1
   5   8  -1 224.724 294.219   6
  -5  -8   1 661.889 290.976   2
   5  -8   0 359.884 258.858   6
   5   8   0 514.997 302.635   6
  -5   8   0 211.868 254.265   4
  -5  -8   0 870.997 317.609   2
   5  -8   0 517.397 341.669   1
   5  -8   1 197.230 259.805   6
   5   8   1 88.4432 290.935   6
  -5   8  -1 37.7124 254.304   4
  -5  -8  -1 466.982 231.456   4
  -5  -8  -1 1239.06 352.416   2
   5  -8   1 696.120 362.762   1
   5  -8   2 109.846 282.227   6
   5   8   2-119.849 307.416   6
  -5   8  -2 55.8918 270.919   4
  -5  -8  -2 229.985 254.532   4
  -5  -8  -2 136.068 310.486   2
   5  -8   2 340.886 340.581   1
   5  -8   3 196.884 274.946   6
   5   8   3-123.546 315.351   6
  -5   8  -3-135.793 271.199   4
  -5  -8  -3 98.7933 234.739   4
  -5  -8  -3-190.717 283.063   2
   5  -8   3 110.103 334.009   1
   5  -8   4 183.756 273.840   6
   5   8   4 464.866 325.544   6
  -5   8  -4 293.959 300.861   4
  -5  -8  -4 726.535 297.132   4
  -5  -8  -4 883.375 320.143   2
   5  -8   4 844.447 374.580   1
   5  -8   5 706.646 340.944   6
   5   8   5 846.728 347.809   6
  -5   8  -5 781.197 342.851   4
  -5  -8  -5 602.021 299.944   4
  -5  -8  -5 1052.12 338.806   2
   5  -8   5 400.032 354.331   1
  -5   9   9 1215.67 462.363   3
  -5  -9   9 1589.79 304.958   2
   5  -9  -9 1349.99 359.072   1
  -5   9   8 570.518 388.414   3
   5  -9  -8 1352.50 368.155   1
  -5  -9   8 765.395 265.470   2
  -5   9   7 1437.12 422.463   3
  -5  -9   7 2325.13 341.427   2
   5  -9  -7 1195.96 359.255   1
  -5   9   6 642.052 357.004   3
   5   9  -6 358.916 266.845   6
   5  -9  -6-534.276 330.400   1
  -5  -9   6-164.036 250.715   2
   5   9  -5 732.593 291.402   6
   5  -9  -5 1012.22 362.571   1
  -5  -9   5 958.049 307.048   2
   5   9  -4-405.915 299.972   6
   5  -9  -4 380.338 325.372   1
  -5  -9   4 372.164 276.435   2
   5  -9  -3 1207.79 389.784   1
   5   9  -3 729.690 313.252   6
  -5  -9   3 686.679 286.068   2
   5  -9  -2 402.849 316.159   1
   5   9  -2 1089.29 334.930   6
  -5  -9   2 1342.28 321.562   2
   5   9  -1-330.263 312.970   6
  -5  -9   1 148.475 286.461   2
   5   9   0-557.180 320.094   6
  -5   9   0-291.695 279.820   4
  -5  -9   0-162.191 272.890   2
   5  -9   0-50.6929 326.187   1
   5  -9   1 599.973 272.489   6
   5   9   1 223.315 316.304   6
  -5   9  -1 179.883 262.397   4
  -5  -9  -1 604.827 317.399   2
   5  -9   1-206.549 353.258   1
   5  -9   2-87.7711 267.888   6
   5   9   2 580.452 336.160   6
  -5   9  -2-120.204 266.374   4
  -5  -9  -2 324.664 243.403   4
  -5  -9  -2 405.542 281.917   2
   5  -9   2 213.506 334.307   1
   5  -9   3 1109.28 324.149   6
   5   9   3 823.585 355.427   6
  -5   9  -3 753.652 297.774   4
  -5  -9  -3 1185.46 305.265   4
  -5  -9  -3 1237.69 333.705   2
   5  -9   3 1240.88 386.665   1
   5  -9   4-106.969 289.305   6
   5   9   4-473.692 355.599   6
  -5   9  -4-8.95304 287.013   4
  -5  -9  -4 157.537 267.382   4
  -5  -9  -4 21.4214 297.432   2
   5  -9   4 187.908 358.079   1
   5  -9   5 84.2175 299.491   6
   5   9   5 368.454 356.111   6
  -5   9  -5 155.998 322.771   4
  -5  -9  -5 614.704 305.533   4
  -5  -9  -5 465.010 313.790   2
   5  -9   5 1029.75 415.746   1
   5 -10  -8-61.8924 293.686   1
  -5  10   8-249.905 387.826   3
  -5 -10   8 262.176 236.261   2
  -5  10   7 921.683 405.128   3
  -5 -10   7-19.2895 238.545   2
   5 -10  -7 226.594 314.084   1
   5  10  -6 2061.12 352.027   6
  -5 -10   6 2257.08 338.772   2
   5 -10  -6 2566.05 429.191   1
  -5  10   5 123.161 312.830   3
   5  10  -5 181.159 266.407   6
   5 -10  -5 498.223 349.234   1
  -5 -10   5 17.2078 242.699   2
   5 -10  -4 1651.22 405.959   1
   5  10  -4 923.568 325.789   6
  -5 -10   4 1528.10 315.433   2
   5 -10  -3 91.0964 319.866   1
   5  10  -3 196.678 277.520   6
  -5 -10   3 247.970 252.391   2
   5  10  -2 982.835 333.967   6
  -5 -10   2 1017.43 310.047   2
   5 -10  -2 946.223 362.233   1
   5  10  -1-610.675 341.434   6
  -5 -10   1 160.333 276.072   2
   5 -10  -1 26.3941 332.328   1
   5  10   0 244.696 304.356   6
  -5 -10   0-46.1510 270.764   2
   5 -10   0-45.6939 330.522   1
   5  10   1-20.1022 303.879   6
  -5  10  -1 71.7022 247.322   4
  -5 -10  -1 97.5494 270.088   2
   5 -10   1 405.362 348.784   1
   5  10   2-489.897 340.259   6
  -5  10  -2 249.611 278.866   4
  -5 -10  -2 181.401 208.964   4
  -5 -10  -2-359.391 281.065   2
   5 -10   2 664.033 350.697   1
   5 -10   3 626.074 300.969   6
   5  10   3 907.072 369.596   6
  -5  10  -3 81.9028 278.651   4
  -5 -10  -3 145.799 253.603   4
   5 -10   3 1283.81 407.257   1
  -5 -10  -3 353.528 297.455   2
   5 -10   4-74.1167 276.742   6
   5  10   4 148.354 342.007   6
  -5  10  -4-189.638 295.816   4
  -5 -10  -4-25.9020 254.299   4
   5 -10   4-888.590 423.226   1
  -5 -10  -4 423.244 292.666   2
  -5  11   8 284.067 360.579   3
  -5 -11   8 1169.66 296.470   2
   5 -11  -8 936.998 355.253   1
  -5  11   7 237.304 371.041   3
   5 -11  -7 780.045 378.939   1
  -5 -11   7 633.621 268.625   2
  -5  11   6 227.860 370.889   3
   5  11  -6 981.571 318.069   6
   5 -11  -6 676.871 352.106   1
  -5 -11   6 404.199 274.104   2
  -5  11   5-213.576 310.085   3
   5 -11  -5 1013.09 382.155   1
   5  11  -5 502.054 285.980   6
  -5 -11   5 260.039 244.435   2
   5 -11  -4 793.133 360.970   1
  -5  11   4-281.096 300.097   3
   5  11  -4 645.892 295.144   6
  -5 -11   4-159.020 256.176   2
   5  11  -3 838.143 336.071   6
  -5 -11   3 603.469 294.205   2
   5 -11  -3-235.338 328.607   1
   5  11  -2 1032.01 337.783   6
   5 -11  -2 578.724 363.767   1
   5  11  -1 1478.06 346.159   6
  -5 -11   1 1978.60 348.794   2
   5 -11  -1 1458.04 398.361   1
   5  11   0 182.020 294.893   6
   5 -11   0 240.048 344.208   1
  -5 -11   0 479.414 287.286   2
   5  11   1 213.008 309.542   6
   5 -11   1 362.293 372.381   1
  -5 -11  -1 34.3190 273.128   2
   5  11   2 305.658 355.556   6
   5 -11   2-283.273 340.650   1
  -5 -11  -2 17.2997 219.201   4
  -5 -11  -2 232.291 289.694   2
   5  11   3 10.1129 337.318   6
  -5  11  -3 463.126 310.249   4
   5 -11   3 438.368 361.034   1
  -5 -11  -3 39.3974 227.427   4
  -5 -11  -3 288.680 274.391   2
   5  11   4 1414.39 405.525   6
  -5  11  -4 204.988 309.172   4
   5 -11   4 845.370 374.417   1
  -5 -11  -4 745.386 290.786   4
  -5 -11  -4 884.825 307.740   2
  -5  12   7-61.8172 383.085   3
   5 -12  -7 963.101 375.236   1
  -5 -12   7 16.3880 246.850   2
  -5  12   6-747.630 395.724   3
   5 -12  -6-36.8358 327.856   1
   5  12  -6-172.575 280.812   6
  -5 -12   6 394.188 245.300   2
   5 -12  -5-145.336 327.762   1
  -5  12   5-189.655 304.844   3
   5  12  -5 153.621 266.247   6
  -5 -12   5 494.197 256.902   2
  -5  12   4 437.999 278.956   3
   5  12  -4 1457.83 350.158   6
  -5 -12   4 1420.30 304.321   2
   5 -12  -4 873.059 367.152   1
   5  12  -3 675.155 296.286   6
  -5 -12   3 737.576 267.955   2
   5 -12  -3 407.707 345.811   1
   5  12  -2 257.850 286.787   6
  -5 -12   2 1115.43 300.902   2
   5 -12  -2 528.779 367.694   1
   5  12  -1 133.258 305.656   6
   5 -12  -1 285.172 369.853   1
  -5 -12   1 334.140 286.041   2
   5  12   0-410.249 326.316   6
  -5 -12   0-149.129 287.019   2
   5  12   1 578.252 319.037   6
  -5 -12  -1 286.909 270.713   2
   5  12   2-50.6634 319.926   6
   5 -12   2 470.666 393.815   1
  -5 -12  -2-65.3790 216.103   4
  -5 -12  -2 316.469 263.628   2
   5  12   3 277.114 338.020   6
   5 -12   3 1050.02 421.389   1
  -5 -12  -3 480.324 242.056   4
  -5 -12  -3 1060.51 300.869   2
   5 -13  -6 300.439 339.454   1
  -5  13   6 334.334 382.102   3
   5  13  -6-0.42926 281.337   6
  -5 -13   6-273.649 273.675   2
  -5  13   5 308.189 362.168   3
   5  13  -5-13.4074 273.027   6
  -5 -13   5 117.636 243.011   2
   5 -13  -5 404.970 358.781   1
  -5  13   4-328.027 298.299   3
   5  13  -4 100.399 278.885   6
  -5 -13   4 41.6722 260.202   2
   5 -13  -4 185.880 329.608   1
  -5  13   3 239.383 270.738   3
   5  13  -3-235.088 298.243   6
  -5 -13   3-3.62110 248.222   2
   5 -13  -3 206.871 335.179   1
   5  13  -2 959.252 344.227   6
   5 -13  -2 575.516 361.239   1
  -5 -13   2 1364.13 313.377   2
   5  13  -1 497.742 306.883   6
   5 -13  -1-35.4251 359.886   1
  -5 -13   1 492.580 308.282   2
   5  13   0 1272.93 378.325   6
   5 -13   0 566.947 348.808   1
  -5 -13   0 888.698 304.420   2
   5  13   1 832.657 358.869   6
   5 -13   1 653.297 392.779   1
  -5 -13  -1 1090.01 304.269   2
   5  13   2-661.629 385.869   6
   5 -13   2 105.630 355.780   1
  -5 -13  -2-264.393 285.045   2
   5  14  -5-69.1325 291.632   6
  -5 -14   5-237.860 275.016   2
   5 -14  -5 280.215 332.733   1
  -5  14   4-98.1682 281.696   3
   5  14  -4 414.778 306.685   6
  -5 -14   4 138.526 248.942   2
   5 -14  -4 380.284 336.128   1
   5  14  -3-127.170 294.228   6
   5 -14  -3-133.301 363.811   1
  -5 -14   3 384.079 278.498   2
   5  14  -2 431.323 321.403   6
   5 -14  -2 297.860 371.907   1
  -5 -14   2 494.262 290.650   2
   5  14  -1 123.822 324.275   6
   5 -14  -1-308.603 368.587   1
  -5 -14   1-12.1529 263.132   2
   5  14   0-437.473 352.094   6
   5 -14   0 38.1216 361.974   1
  -5 -14   0 683.836 286.771   2
   5  14   1 527.519 357.943   6
   5 -14   1-323.134 341.862   1
  -5 -14  -1 680.875 293.280   2
   0   0   0    0.00    0.00   0
TITL 2014lhb124 in P2(1)/n
REM P2(1)/n (#14 in standard setting)
CELL 0.71073   4.439751  23.038038  14.387786  90.0000  96.6610  90.0000
ZERR    3.00   0.000251   0.001789   0.000875   0.0000   0.0057   0.0000
LATT  1
SYMM -x+1/2, y+1/2,-z+1/2
SFAC C H N O F Ca
UNIT 39.00 18.00 6.00 21.00 12.00 3.00
TREF
HKLF 4
END
;
_shelx_hkl_checksum              34517
_olex2_submission_original_sample_id '2014lhb124, lhb'
_olex2_submission_special_instructions 'No special instructions were received'
loop_
_space_group_symop_operation_xyz
'x, y, z'
'-x+1/2, y+1/2, -z+1/2'
'-x, -y, -z'
'x-1/2, -y-1/2, z-1/2'
loop_
_atom_site_label
_atom_site_type_symbol
_atom_site_fract_x
_atom_site_fract_y
_atom_site_fract_z
_atom_site_U_iso_or_equiv
_atom_site_adp_type
_atom_site_occupancy
_atom_site_site_symmetry_order
_atom_site_calc_flag
_atom_site_refinement_flags_posn
_atom_site_refinement_flags_adp
_atom_site_refinement_flags_occupancy
_atom_site_disorder_assembly
_atom_site_disorder_group
Ca1 Ca 0.87377(17) 0.41899(3) 0.50393(5) 0.0114(2) Uani 1 1 d . . . . .
F1 F 0.1732(5) 0.45754(10) 0.80156(15) 0.0216(6) Uani 1 1 d . . . . .
F2 F 0.2192(5) 0.52372(11) 0.95744(15) 0.0247(6) Uani 1 1 d . . . . .
F3 F 0.5582(6) 0.62147(11) 0.96716(15) 0.0250(6) Uani 1 1 d . . . . .
F4 F 0.8447(5) 0.65442(10) 0.82277(15) 0.0212(6) Uani 1 1 d . . . . .
O1 O 0.6192(6) 0.44628(12) 0.63340(17) 0.0139(6) Uani 1 1 d . . . . .
O2 O 0.1902(6) 0.49343(11) 0.58486(17) 0.0141(6) Uani 1 1 d . . . . .
O3 O 1.0389(6) 0.61950(12) 0.65537(17) 0.0147(6) Uani 1 1 d . . . . .
O4 O 0.6381(6) 0.58442(11) 0.56698(17) 0.0133(6) Uani 1 1 d . . . . .
O11 O 0.7541(7) 0.31456(13) 0.5302(2) 0.0253(7) Uani 1 1 d . . . . .
O12 O 1.1353(6) 0.34892(12) 0.62007(19) 0.0202(7) Uani 1 1 d . . . . .
O13 O 1.0165(8) 0.25790(13) 0.6299(2) 0.0299(8) Uani 1 1 d . . . . .
N11 N 0.9671(8) 0.30554(15) 0.5946(2) 0.0190(8) Uani 1 1 d . . . . .
C1 C 0.4288(8) 0.48448(17) 0.6401(3) 0.0127(8) Uani 1 1 d . . . . .
C2 C 0.4758(8) 0.52321(17) 0.7266(3) 0.0126(8) Uani 1 1 d . . . . .
C3 C 0.3387(9) 0.50678(18) 0.8038(3) 0.0154(8) Uani 1 1 d . . . . .
C4 C 0.3648(9) 0.53976(19) 0.8843(3) 0.0168(9) Uani 1 1 d . . . . .
C5 C 0.5354(9) 0.58902(18) 0.8886(3) 0.0178(9) Uani 1 1 d . . . . .
C6 C 0.6797(8) 0.60561(18) 0.8135(3) 0.0156(8) Uani 1 1 d . . . . .
C7 C 0.6495(8) 0.57376(17) 0.7312(3) 0.0130(8) Uani 1 1 d . . . . .
C8 C 0.7874(9) 0.59509(16) 0.6466(3) 0.0135(8) Uani 1 1 d . . . . .
N101 N 0.5430(9) 0.30840(17) 0.7679(3) 0.0222(9) Uani 1 1 d . . . . .
H101 H 0.426(11) 0.3160(19) 0.729(3) 0.019(13) Uiso 1 1 d . . . . .
C101 C 0.5478(10) 0.2574(2) 0.8104(3) 0.0222(10) Uani 1 1 d . . . . .
H10A H 0.4221 0.2267 0.7845 0.027 Uiso 1 1 calc R . . . .
C102 C 0.7361(10) 0.24910(19) 0.8924(3) 0.0211(9) Uani 1 1 d . . . . .
H102 H 0.7443 0.2125 0.9231 0.025 Uiso 1 1 calc R . . . .
C103 C 0.9119(10) 0.29460(19) 0.9291(3) 0.0207(9) Uani 1 1 d . . . . .
H103 H 1.0423 0.2897 0.9857 0.025 Uiso 1 1 calc R . . . .
C104 C 0.8983(10) 0.34735(19) 0.8833(3) 0.0214(9) Uani 1 1 d . . . . .
H104 H 1.0174 0.3791 0.9086 0.026 Uiso 1 1 calc R . . . .
C105 C 0.7117(9) 0.35346(19) 0.8013(3) 0.0209(9) Uani 1 1 d . . . . .
H105 H 0.7022 0.3893 0.7685 0.025 Uiso 1 1 calc R . . . .
loop_
_atom_site_aniso_label
_atom_site_aniso_U_11
_atom_site_aniso_U_22
_atom_site_aniso_U_33
_atom_site_aniso_U_23
_atom_site_aniso_U_13
_atom_site_aniso_U_12
Ca1 0.0090(4) 0.0169(4) 0.0081(4) 0.0001(3) 0.0009(3) -0.0002(3)
F1 0.0207(13) 0.0299(15) 0.0142(12) 0.0032(10) 0.0027(10) -0.0083(11)
F2 0.0237(13) 0.0434(16) 0.0086(12) 0.0025(10) 0.0089(10) -0.0048(12)
F3 0.0295(14) 0.0363(16) 0.0096(11) -0.0103(10) 0.0036(10) -0.0035(12)
F4 0.0245(13) 0.0233(14) 0.0165(12) -0.0083(10) 0.0051(10) -0.0070(11)
O1 0.0130(14) 0.0189(16) 0.0104(13) 0.0030(11) 0.0033(11) 0.0028(12)
O2 0.0123(13) 0.0191(15) 0.0106(12) -0.0006(11) -0.0007(10) 0.0006(12)
O3 0.0107(13) 0.0207(16) 0.0129(13) -0.0013(11) 0.0021(11) -0.0028(12)
O4 0.0098(13) 0.0219(15) 0.0080(13) -0.0007(11) 0.0006(10) 0.0005(12)
O11 0.0231(16) 0.0267(18) 0.0234(16) 0.0004(13) -0.0089(13) -0.0049(14)
O12 0.0201(15) 0.0203(16) 0.0185(15) 0.0033(12) -0.0048(12) -0.0048(13)
O13 0.040(2) 0.0214(18) 0.0273(18) 0.0073(14) -0.0013(15) 0.0008(15)
N11 0.0196(18) 0.024(2) 0.0143(17) -0.0011(15) 0.0049(14) 0.0006(16)
C1 0.0098(19) 0.018(2) 0.0103(18) 0.0033(15) 0.0021(14) -0.0043(16)
C2 0.0068(17) 0.020(2) 0.0101(19) 0.0029(15) -0.0010(14) 0.0011(16)
C3 0.0120(19) 0.021(2) 0.0122(19) 0.0016(16) -0.0022(15) -0.0019(17)
C4 0.0108(19) 0.033(3) 0.0066(18) 0.0051(16) 0.0025(15) 0.0033(18)
C5 0.017(2) 0.027(3) 0.0083(19) -0.0050(16) -0.0024(15) 0.0036(18)
C6 0.0091(18) 0.024(2) 0.0136(19) -0.0018(16) -0.0003(15) 0.0008(17)
C7 0.0079(18) 0.018(2) 0.0124(18) 0.0024(15) -0.0009(14) 0.0037(16)
C8 0.0150(19) 0.014(2) 0.0114(19) -0.0004(15) 0.0021(15) 0.0035(17)
N101 0.0168(19) 0.035(2) 0.0132(19) 0.0020(16) -0.0022(15) 0.0057(17)
C101 0.020(2) 0.024(3) 0.024(2) -0.0072(18) 0.0071(18) -0.0025(18)
C102 0.022(2) 0.020(2) 0.021(2) 0.0040(17) 0.0053(18) 0.0003(19)
C103 0.020(2) 0.031(3) 0.012(2) 0.0028(17) 0.0019(16) 0.0046(19)
C104 0.021(2) 0.024(2) 0.018(2) 0.0028(18) 0.0000(17) -0.0030(19)
C105 0.022(2) 0.025(2) 0.017(2) 0.0075(18) 0.0040(17) 0.0040(19)
loop_
_atom_type_symbol
_atom_type_description
_atom_type_scat_dispersion_real
_atom_type_scat_dispersion_imag
_atom_type_scat_source
C C 0.0033 0.0016 'International Tables Vol C Tables 4.2.6.8 and 6.1.1.4'
H H 0.0000 0.0000 'International Tables Vol C Tables 4.2.6.8 and 6.1.1.4'
Ca Ca 0.2262 0.3064 'International Tables Vol C Tables 4.2.6.8 and 6.1.1.4'
F F 0.0171 0.0103 'International Tables Vol C Tables 4.2.6.8 and 6.1.1.4'
N N 0.0061 0.0033 'International Tables Vol C Tables 4.2.6.8 and 6.1.1.4'
O O 0.0106 0.0060 'International Tables Vol C Tables 4.2.6.8 and 6.1.1.4'
loop_
_geom_angle_atom_site_label_1
_geom_angle_atom_site_label_2
_geom_angle_atom_site_label_3
_geom_angle
_geom_angle_site_symmetry_1
_geom_angle_site_symmetry_3
Ca1 Ca1 Ca1 180.0 1_455 1_655
O1 Ca1 Ca1 55.43(7) . 1_455
O1 Ca1 Ca1 124.57(7) . 1_655
O1 Ca1 O2 74.82(9) . 1_655
O1 Ca1 O2 99.10(9) . 3_666
O1 Ca1 O3 160.28(9) . 3_766
O1 Ca1 O4 80.06(9) . 3_666
O1 Ca1 O4 147.41(9) . 3_766
O1 Ca1 O11 90.44(10) . .
O1 Ca1 O12 82.73(9) . .
O2 Ca1 Ca1 93.26(6) 3_666 1_655
O2 Ca1 Ca1 58.45(6) 1_655 1_655
O2 Ca1 Ca1 121.55(6) 1_655 1_455
O2 Ca1 Ca1 86.74(6) 3_666 1_455
O2 Ca1 O2 71.69(10) 3_666 1_655
O2 Ca1 O3 80.36(9) 3_666 3_766
O2 Ca1 O3 122.78(9) 1_655 3_766
O2 Ca1 O4 82.14(9) 3_666 3_766
O2 Ca1 O4 74.76(9) 1_655 3_766
O2 Ca1 O11 151.55(9) 3_666 .
O2 Ca1 O11 136.75(9) 1_655 .
O2 Ca1 O12 86.43(9) 1_655 .
O2 Ca1 O12 156.52(9) 3_666 .
O3 Ca1 Ca1 104.98(6) 3_766 1_455
O3 Ca1 Ca1 75.02(6) 3_766 1_655
O4 Ca1 Ca1 25.26(6) 3_666 1_455
O4 Ca1 Ca1 154.74(6) 3_666 1_655
O4 Ca1 Ca1 156.02(6) 3_766 1_455
O4 Ca1 Ca1 23.97(6) 3_766 1_655
O4 Ca1 O2 134.36(9) 3_666 1_655
O4 Ca1 O2 75.53(9) 3_666 3_666
O4 Ca1 O3 52.28(8) 3_766 3_766
O4 Ca1 O3 80.75(9) 3_666 3_766
O4 Ca1 O4 130.77(11) 3_666 3_766
O4 Ca1 O11 103.92(10) 3_766 .
O4 Ca1 O11 79.88(9) 3_666 .
O4 Ca1 O12 127.51(9) 3_666 .
O4 Ca1 O12 84.00(9) 3_766 .
O11 Ca1 Ca1 103.29(7) . 1_655
O11 Ca1 Ca1 76.72(7) . 1_455
O11 Ca1 O3 81.79(10) . 3_766
O11 Ca1 O12 51.02(9) . .
O12 Ca1 Ca1 67.32(7) . 1_655
O12 Ca1 Ca1 112.68(7) . 1_455
O12 Ca1 O3 105.68(9) . 3_766
C1 O1 Ca1 130.1(2) . .
Ca1 O2 Ca1 108.31(10) 3_666 1_455
C1 O2 Ca1 120.9(2) . 3_666
C1 O2 Ca1 125.6(2) . 1_455
C8 O3 Ca1 88.9(2) . 3_766
Ca1 O4 Ca1 130.77(11) 3_666 3_766
C8 O4 Ca1 89.3(2) . 3_766
C8 O4 Ca1 139.4(2) . 3_666
N11 O11 Ca1 96.6(2) . .
N11 O12 Ca1 95.9(2) . .
O11 N11 O12 116.5(3) . .
O13 N11 O11 122.5(4) . .
O13 N11 O12 121.0(3) . .
O1 C1 Ca1 132.9(2) . 3_666
O1 C1 O2 126.8(4) . .
O1 C1 C2 116.9(3) . .
O2 C1 Ca1 39.46(18) . 3_666
O2 C1 C2 116.3(3) . .
C2 C1 Ca1 97.4(2) . 3_666
C3 C2 C1 117.7(3) . .
C3 C2 C7 118.9(4) . .
C7 C2 C1 123.4(3) . .
F1 C3 C2 120.1(3) . .
F1 C3 C4 118.4(3) . .
C4 C3 C2 121.5(4) . .
F2 C4 C3 120.2(4) . .
F2 C4 C5 120.5(4) . .
C5 C4 C3 119.3(4) . .
F3 C5 C4 119.1(3) . .
F3 C5 C6 120.6(4) . .
C4 C5 C6 120.3(4) . .
F4 C6 C5 117.0(3) . .
F4 C6 C7 121.8(3) . .
C5 C6 C7 121.1(4) . .
C2 C7 C8 120.5(3) . .
C6 C7 C2 118.8(3) . .
C6 C7 C8 120.6(3) . .
O3 C8 Ca1 64.73(19) . 3_766
O3 C8 O4 122.9(3) . .
O3 C8 C7 120.7(3) . .
O4 C8 Ca1 63.45(18) . 3_766
O4 C8 C7 116.4(3) . .
C7 C8 Ca1 153.3(3) . 3_766
C101 N101 H101 122(4) . .
C101 N101 C105 123.0(4) . .
C105 N101 H101 114(4) . .
N101 C101 H10A 120.2 . .
N101 C101 C102 119.7(4) . .
C102 C101 H10A 120.2 . .
C101 C102 H102 120.5 . .
C103 C102 C101 118.9(4) . .
C103 C102 H102 120.5 . .
C102 C103 H103 120.1 . .
C102 C103 C104 119.8(4) . .
C104 C103 H103 120.1 . .
C103 C104 H104 120.3 . .
C105 C104 C103 119.4(4) . .
C105 C104 H104 120.3 . .
N101 C105 C104 119.2(4) . .
N101 C105 H105 120.4 . .
C104 C105 H105 120.4 . .
loop_
_geom_bond_atom_site_label_1
_geom_bond_atom_site_label_2
_geom_bond_distance
_geom_bond_site_symmetry_2
Ca1 Ca1 4.4398(3) 1_655
Ca1 Ca1 4.4397(3) 1_455
Ca1 O1 2.373(3) .
Ca1 O2 2.387(3) 3_666
Ca1 O2 2.427(3) 1_655
Ca1 O3 2.529(3) 3_766
Ca1 O4 2.501(3) 3_766
Ca1 O4 2.382(3) 3_666
Ca1 O11 2.502(3) .
Ca1 O12 2.509(3) .
F1 C3 1.350(4) .
F2 C4 1.349(4) .
F3 C5 1.349(4) .
F4 C6 1.340(5) .
O1 C1 1.232(5) .
O2 Ca1 2.387(3) 3_666
O2 Ca1 2.427(3) 1_455
O2 C1 1.265(4) .
O3 Ca1 2.529(3) 3_766
O3 C8 1.244(5) .
O4 Ca1 2.382(3) 3_666
O4 Ca1 2.501(3) 3_766
O4 C8 1.280(4) .
O11 N11 1.262(4) .
O12 N11 1.276(4) .
O13 N11 1.219(4) .
C1 Ca1 3.225(4) 3_666
C1 C2 1.525(5) .
C2 C3 1.380(5) .
C2 C7 1.394(5) .
C3 C4 1.379(5) .
C4 C5 1.362(6) .
C5 C6 1.373(5) .
C6 C7 1.386(5) .
C7 C8 1.507(5) .
C8 Ca1 2.796(4) 3_766
N101 H101 0.74(5) .
N101 C101 1.323(6) .
N101 C105 1.337(6) .
C101 H10A 0.9500 .
C101 C102 1.378(6) .
C102 H102 0.9500 .
C102 C103 1.375(6) .
C103 H103 0.9500 .
C103 C104 1.380(6) .
C104 H104 0.9500 .
C104 C105 1.369(6) .
C105 H105 0.9500 .
loop_
_geom_hbond_atom_site_label_D
_geom_hbond_atom_site_label_H
_geom_hbond_atom_site_label_A
_geom_hbond_distance_DH
_geom_hbond_distance_HA
_geom_hbond_distance_DA
_geom_hbond_angle_DHA
_geom_hbond_site_symmetry_A
N101 H101 O12 0.74(5) 2.05(5) 2.789(5) 171(5) 1_455
loop_
_geom_torsion_atom_site_label_1
_geom_torsion_atom_site_label_2
_geom_torsion_atom_site_label_3
_geom_torsion_atom_site_label_4
_geom_torsion
_geom_torsion_site_symmetry_1
_geom_torsion_site_symmetry_2
_geom_torsion_site_symmetry_3
_geom_torsion_site_symmetry_4
Ca1 O1 C1 Ca1 -1.9(5) . . . 3_666
Ca1 O1 C1 O2 49.7(5) . . . .
Ca1 O1 C1 C2 -133.7(3) . . . .
Ca1 O2 C1 Ca1 151.4(4) 1_455 . . 3_666
Ca1 O2 C1 O1 36.0(5) 1_455 . . .
Ca1 O2 C1 O1 -115.4(4) 3_666 . . .
Ca1 O2 C1 C2 -140.6(3) 1_455 . . .
Ca1 O2 C1 C2 68.0(4) 3_666 . . .
Ca1 O3 C8 O4 -26.6(4) 3_766 . . .
Ca1 O3 C8 C7 150.3(3) 3_766 . . .
Ca1 O4 C8 Ca1 -171.8(4) 3_666 . . 3_766
Ca1 O4 C8 O3 -144.8(3) 3_666 . . .
Ca1 O4 C8 O3 26.9(4) 3_766 . . .
Ca1 O4 C8 C7 38.1(5) 3_666 . . .
Ca1 O4 C8 C7 -150.1(3) 3_766 . . .
Ca1 O11 N11 O12 1.9(3) . . . .
Ca1 O11 N11 O13 -176.6(3) . . . .
Ca1 O12 N11 O11 -1.8(3) . . . .
Ca1 O12 N11 O13 176.6(3) . . . .
Ca1 C1 C2 C3 121.4(3) 3_666 . . .
Ca1 C1 C2 C7 -58.8(4) 3_666 . . .
F1 C3 C4 F2 -2.1(5) . . . .
F1 C3 C4 C5 178.8(3) . . . .
F2 C4 C5 F3 0.3(6) . . . .
F2 C4 C5 C6 -179.1(3) . . . .
F3 C5 C6 F4 0.9(5) . . . .
F3 C5 C6 C7 -177.7(4) . . . .
F4 C6 C7 C2 179.6(3) . . . .
F4 C6 C7 C8 -3.7(6) . . . .
O1 C1 C2 C3 -92.0(4) . . . .
O1 C1 C2 C7 87.8(5) . . . .
O2 C1 C2 C3 84.9(4) . . . .
O2 C1 C2 C7 -95.3(4) . . . .
C1 C2 C3 F1 0.8(5) . . . .
C1 C2 C3 C4 -178.8(4) . . . .
C1 C2 C7 C6 -179.5(4) . . . .
C1 C2 C7 C8 3.8(6) . . . .
C2 C3 C4 F2 177.6(3) . . . .
C2 C3 C4 C5 -1.5(6) . . . .
C2 C7 C8 Ca1 -50.9(7) . . . 3_766
C2 C7 C8 O3 -145.2(4) . . . .
C2 C7 C8 O4 31.9(5) . . . .
C3 C2 C7 C6 0.3(5) . . . .
C3 C2 C7 C8 -176.3(3) . . . .
C3 C4 C5 F3 179.4(3) . . . .
C3 C4 C5 C6 0.0(6) . . . .
C4 C5 C6 F4 -179.7(4) . . . .
C4 C5 C6 C7 1.6(6) . . . .
C5 C6 C7 C2 -1.8(6) . . . .
C5 C6 C7 C8 174.9(4) . . . .
C6 C7 C8 Ca1 132.5(5) . . . 3_766
C6 C7 C8 O3 38.1(5) . . . .
C6 C7 C8 O4 -144.7(4) . . . .
C7 C2 C3 F1 -179.0(3) . . . .
C7 C2 C3 C4 1.3(6) . . . .
N101 C101 C102 C103 1.1(6) . . . .
C101 N101 C105 C104 -0.3(6) . . . .
C101 C102 C103 C104 -0.3(6) . . . .
C102 C103 C104 C105 -0.7(6) . . . .
C103 C104 C105 N101 1.0(6) . . . .
C105 N101 C101 C102 -0.8(6) . . . .
