#------------------------------------------------------------------------------
#$Date: 2018-10-05 15:19:55 +0300 (Fri, 05 Oct 2018) $
#$Revision: 211332 $
#$URL: file:///home/coder/svn-repositories/cod/cif/7/11/81/7118129.cif $
#------------------------------------------------------------------------------
#
# This file is available in the Crystallography Open Database (COD),
# http://www.crystallography.net/
#
# All data on this site have been placed in the public domain by the
# contributors.
#
data_7118129
loop_
_publ_author_name
'Siman, Peter'
'Trickett, Christopher A.'
'Furukawa, Hiroyasu'
'Yaghi, Omar M.'
_publ_section_title
;
 l-Aspartate links for stable sodium metal-organic frameworks.
;
_journal_issue                   98
_journal_name_full
'Chemical communications (Cambridge, England)'
_journal_page_first              17463
_journal_page_last               17466
_journal_paper_doi               10.1039/c5cc07578e
_journal_volume                  51
_journal_year                    2015
_chemical_absolute_configuration rm
_chemical_formula_moiety         'C22.25 H19.25 N2 Na4 O11.5'
_chemical_formula_sum            'C22.25 H19.25 N2 Na4 O11.5'
_chemical_formula_weight         590.61
_chemical_name_common            'MOF-706 after supercritical CO2'
_space_group_crystal_system      monoclinic
_space_group_IT_number           4
_space_group_name_Hall           'P 2yb'
_space_group_name_H-M_alt        'P 1 21 1'
_symmetry_space_group_name_Hall  'P 2yb'
_symmetry_space_group_name_H-M   'P 1 21 1'
_atom_sites_solution_hydrogens   geom
_atom_sites_solution_primary     'intrinsic phasing'
_atom_sites_solution_secondary   difmap
_audit_creation_date             2015-08-18
_audit_creation_method
;
Olex2 1.2
(compiled 2015.01.26 svn.r3150 for OlexSys, GUI svn.r4998)
;
_audit_update_record
;
2015-08-24 deposited with the CCDC.
2015-09-30 downloaded from the CCDC.
;
_cell_angle_alpha                90
_cell_angle_beta                 99.274(10)
_cell_angle_gamma                90
_cell_formula_units_Z            2
_cell_length_a                   11.9807(16)
_cell_length_b                   5.2345(6)
_cell_length_c                   21.796(3)
_cell_measurement_temperature    100(2)
_cell_volume                     1349.0(3)
_computing_cell_refinement       'SAINT V8.34A Bruker-AXS, Madison WI'
_computing_data_collection       'Bruker APEX2 Bruker-AXS, Madison WI'
_computing_data_reduction        'SAINT V8.34A Bruker-AXS, Madison WI'
_computing_molecular_graphics
;
Bruker SHELXTL Bruker-AXS, Madison WI
Diamond - Crystal and Molecular Structure Visualization
Crystal Impact - Dr. H. Putz & Dr. K. Brandenburg GbR, Kreuzherrenstr. 
102, 53227 Bonn, Germany
http://www.crystalimpact.com/diamond
and local programs
;
_computing_publication_material  'Bruker SHELXTL Bruker-AXS, Madison WI'
_computing_structure_refinement  'SHELXL-2014/7 (Sheldrick, 2013)'
_computing_structure_solution    'SHELXT 2014/4 Bruker-AXS, Madison WI'
_diffrn_ambient_temperature      100(2)
_diffrn_detector_area_resol_mean 10.42
_diffrn_measured_fraction_theta_full 0.987
_diffrn_measured_fraction_theta_max 0.958
_diffrn_measurement_device_type  'Bruker D8 with PHOTON 100 detector'
_diffrn_measurement_method       '\f and \w shutterless scans'
_diffrn_radiation_monochromator  'silicon 111'
_diffrn_radiation_type           synchrotron
_diffrn_radiation_wavelength     1.03330
_diffrn_reflns_av_R_equivalents  0.1002
_diffrn_reflns_av_unetI/netI     0.1047
_diffrn_reflns_Laue_measured_fraction_full 0.987
_diffrn_reflns_Laue_measured_fraction_max 0.958
_diffrn_reflns_limit_h_max       10
_diffrn_reflns_limit_h_min       -10
_diffrn_reflns_limit_k_max       4
_diffrn_reflns_limit_k_min       -4
_diffrn_reflns_limit_l_max       19
_diffrn_reflns_limit_l_min       -19
_diffrn_reflns_number            6359
_diffrn_reflns_point_group_measured_fraction_full 0.969
_diffrn_reflns_point_group_measured_fraction_max 0.916
_diffrn_reflns_theta_full        28.177
_diffrn_reflns_theta_max         28.238
_diffrn_reflns_theta_min         2.504
_diffrn_source
;
Advanced Light Source, station 11.3.1
;
_exptl_absorpt_coefficient_mu    0.462
_exptl_absorpt_correction_T_max  0.995
_exptl_absorpt_correction_T_min  0.570
_exptl_absorpt_correction_type   multi-scan
_exptl_absorpt_process_details
;
SADABS-2014/4 (Bruker,2014/4) was used for absorption correction.
wR2(int) was 0.1184 before and 0.0852 after correction.
The Ratio of minimum to maximum transmission is 0.8113.
The \l/2 correction factor is Not present.
;
_exptl_crystal_colour            Colorless
_exptl_crystal_density_diffrn    1.454
_exptl_crystal_description       Needle
_exptl_crystal_F_000             606
_exptl_crystal_size_max          0.04
_exptl_crystal_size_mid          0.01
_exptl_crystal_size_min          0.01
_refine_diff_density_max         0.732
_refine_diff_density_min         -0.673
_refine_diff_density_rms         0.157
_refine_ls_abs_structure_details
;
 Flack x determined using 491 quotients [(I+)-(I-)]/[(I+)+(I-)]
 (Parsons, Flack and Wagner, Acta Cryst. B69 (2013) 249-259).
;
_refine_ls_abs_structure_Flack   -0.4(4)
_refine_ls_extinction_method     none
_refine_ls_goodness_of_fit_ref   1.273
_refine_ls_hydrogen_treatment    constr
_refine_ls_matrix_type           full
_refine_ls_number_parameters     345
_refine_ls_number_reflns         1980
_refine_ls_number_restraints     130
_refine_ls_restrained_S_all      1.231
_refine_ls_R_factor_all          0.1392
_refine_ls_R_factor_gt           0.1176
_refine_ls_shift/su_max          0.000
_refine_ls_shift/su_mean         0.000
_refine_ls_structure_factor_coef Fsqd
_refine_ls_weighting_details
'w=1/[\s^2^(Fo^2^)+(0.2000P)^2^] where P=(Fo^2^+2Fc^2^)/3'
_refine_ls_weighting_scheme      calc
_refine_ls_wR_factor_gt          0.2970
_refine_ls_wR_factor_ref         0.3174
_reflns_Friedel_coverage         0.654
_reflns_Friedel_fraction_full    0.933
_reflns_Friedel_fraction_max     0.859
_reflns_number_gt                1507
_reflns_number_total             1980
_reflns_threshold_expression     'I > 2\s(I)'
_cod_data_source_file            c5cc07578e2.cif
_cod_data_source_block           MOF-706_sc
_cod_original_cell_volume        1349.1(3)
_cod_original_formula_sum        'C22.25 H19.25 N2 Na4 O11.50'
_cod_database_code               7118129
_shelxl_version_number           2014/6
_shelx_space_group_comment
;
The symmetry employed for this shelxl refinement is uniquely defined
by the following loop, which should always be used as a source of
symmetry information in preference to the above space-group names.
They are only intended as comments.
;
_shelx_estimated_absorpt_t_max   0.995
_shelx_estimated_absorpt_t_min   0.982
_olex2_refinement_description
;
1. Fixed Uiso
 At 1.2 times of:
  All C(H) groups, All C(H,H) groups, All N(H) groups, All O(H,H) groups
 At 1.5 times of:
  All C(H,H,H) groups, All O(H) groups
2. Restrained distances
 C12-C13A \\sim C13A-C14A \\sim C14A-C15 \\sim C15-C16A \\sim C16A-C17A \\sim
C17A-C12 \\sim C12-C13B
 \\sim C13B-C14B \\sim C14B-C15 \\sim C15-C16B \\sim C16B-C17B \\sim C17B-C12
 with sigma of 0.02
3. Uiso/Uaniso restraints and constraints
Uanis(C13B) = Uanis(C13A)
Uanis(C14A) = Uanis(C14B)
Uanis(C16B) = Uanis(C16A)
Uanis(C17B) = Uanis(C17A)
Uanis(C4) = Uanis(C21) = Uanis(C22)
Uanis(O6) = Uanis(O5)
Uanis(N1) = Uanis(N2)
Uanis(O9) = Uanis(O20)
Uanis(C2) = Uanis(C20)
Uanis(C3) = Uanis(C19)
4. Rigid body (RIGU) restrains
 C12, C13B, C17B, C16B, C14B
 with sigma for 1-2 distances of 0.004 and sigma for 1-3 distances of 0.004
 C18, O9, O20
 with sigma for 1-2 distances of 0.004 and sigma for 1-3 distances of 0.004
 C6, C11, C10, C9, C8, C7
 with sigma for 1-2 distances of 0.004 and sigma for 1-3 distances of 0.004
5. Others
 Fixed Sof: O9(0.5) C17A(0.5) H17A(0.5) C13A(0.5) H13A(0.5) O7(0.5) H7A(0.5)
 C14A(0.5) H14A(0.5) C16A(0.5) H16A(0.5) C23(0.25) H23A(0.25) H23B(0.25)
 H23C(0.25) C13B(0.5) H13B(0.5) C16B(0.5) H16B(0.5) C14B(0.5) H14B(0.5)
 C17B(0.5) H17B(0.5) O20(0.5)
6.a Ternary CH refined with riding coordinates:
 C3(H3), C19(H19)
6.b Secondary CH2 refined with riding coordinates:
 O12(H12A,H12B), C2(H2A,H2B), C20(H20A,H20B)
6.c Aromatic/amide H refined with riding coordinates:
 N1(H1), N2(H2), C7(H7), C8(H8), C11(H11), C10(H10), C17A(H17A), C13A(H13A),
 C14A(H14A), C16A(H16A), C13B(H13B), C16B(H16B), C14B(H14B), C17B(H17B)
6.d Tetrahedral OH refined with riding coordinates:
 O7(H7A)
6.e Idealised Me refined as rotating group:
 C23(H23A,H23B,H23C)
;
_shelx_res_file
;
TITL NaBPDC_SCCO2_a.res in P2(1)
REM Old TITL NaBPDC_SCCO2 in P2(1)
REM SHELXT solution in P2(1)
REM R1 0.191, Rweak 0.049, Alpha 0.045, Orientation as input
REM Flack x = -1.131 ( 0.770 ) from Parsons' quotients
REM Formula found by SHELXT: C23 N3 O9 Na4
CELL 1.0333 11.9807 5.2345 21.7964 90 99.274 90
ZERR 2 0.0016 0.0006 0.0029 0 0.01 0
LATT -1
SYMM -X,0.5+Y,-Z
SFAC C H N O Na
DISP C 0.008 0.004 27.55
DISP N 0.015 0.008 51.6
DISP Na 0.073 0.055 338.97
DISP O 0.024 0.014 89.73
UNIT 44.5 38.5 4 23 8
SADI C12 C13A C13A C14A C14A C15 C15 C16A C16A C17A C17A C12 C12 C13B C13B =
 C14B C14B C15 C15 C16B C16B C17B C17B C12
RIGU C12 C13B C17B C16B C14B
RIGU C18 O9 O20
RIGU C6 C11 C10 C9 C8 C7
EADP C13B C13A
EADP C14A C14B
EADP C16B C16A
EADP C17B C17A
EADP C4 C21 C22
EADP O6 O5
EADP N1 N2
EADP O9 O20
EADP C2 C20
EADP C3 C19

L.S. 10
PLAN  20
SIZE 0.01 0.01 0.04
TEMP -173.15
BOND $H
LIST 4
MORE -1
CONF
fmap 2
acta 25.5
REM <olex2.extras>
REM <HklSrc "%.\\NaBPDC_SCCO2_a.hkl">
REM </olex2.extras>

WGHT    0.200000
FVAR       0.48273
NA1   5    0.589332   -0.305682    0.029123    11.00000    0.03760    0.04116 =
         0.04393    0.00127    0.01389    0.00021
NA2   5    0.322857    0.723267    0.068486    11.00000    0.04517    0.04869 =
         0.05182    0.00706    0.01463   -0.00258
NA4   5    0.110387    1.170005    0.968038    11.00000    0.07101    0.04682 =
         0.08022   -0.00872    0.02977    0.00530
NA3   5    0.157584    0.776458    0.189651    11.00000    0.07094    0.08170 =
         0.08722    0.00342    0.02529    0.01347
O1    4    0.487502   -0.010269    0.072185    11.00000    0.04540    0.02562 =
         0.04788    0.00348    0.01868    0.00320
O11   4    0.260532    0.897011    0.968146    11.00000    0.04141    0.02685 =
         0.05946   -0.00823    0.01098    0.00242
O10   4    0.254628    0.475072    0.966026    11.00000    0.04381    0.02916 =
         0.05738   -0.01433    0.00515   -0.00881
O2    4    0.467841    0.420255    0.076975    11.00000    0.05621    0.02423 =
         0.05038    0.00475    0.00046    0.00958
O4    4    0.210544    0.478848    0.125385    11.00000    0.05819    0.04283 =
         0.09124    0.01585    0.02948    0.00900
N1    3    0.374048    0.315548    0.253079    11.00000    0.07561    0.03276 =
         0.05160   -0.00552    0.02294    0.01196
AFIX  43
H1    2    0.385523    0.166089    0.271501    11.00000   -1.20000
AFIX   0
O8    4    0.334036    0.730304    0.265351    11.00000    0.10377    0.03579 =
         0.06402   -0.00322    0.01808    0.03370
O3    4    0.253277    0.043293    0.131471    11.00000    0.08105    0.02639 =
         0.07555    0.00550    0.02419   -0.00057
N2    3    0.234802    0.492862    0.770895    11.00000    0.07561    0.03276 =
         0.05160   -0.00552    0.02294    0.01196
AFIX  43
H2    2    0.231883    0.646005    0.754056    11.00000   -1.20000
AFIX   0
O12   4    0.020303    1.307855    1.051844    11.00000    0.07262    0.07568 =
         0.08396   -0.01951    0.00066   -0.00510
AFIX  23
H12A  2    0.079876    1.353699    1.087078    11.00000   -1.20000
H12B  2   -0.021938    1.161161    1.065330    11.00000   -1.20000
AFIX   0
C12   1    0.317965    0.401606    0.547741    11.00000    0.04752    0.09100 =
         0.03372    0.01251    0.00805    0.01568
C21   1    0.249069    0.700819    0.939295    11.00000    0.07404    0.05647 =
         0.06420   -0.00767    0.02143   -0.01067
C7    1    0.395720    0.281873    0.390495    11.00000    0.04595    0.04782 =
         0.04624    0.00278    0.01471    0.02069
AFIX  43
H7    2    0.439462    0.160103    0.372429    11.00000   -1.20000
AFIX   0
C9    1    0.326838    0.419537    0.481093    11.00000    0.03178    0.04452 =
         0.05374   -0.00238    0.01218   -0.00204
C1    1    0.478380    0.207820    0.100689    11.00000    0.01622    0.03368 =
         0.04255   -0.01220    0.00513    0.00133
C15   1    0.283467    0.344811    0.674081    11.00000    0.09081    0.04684 =
         0.02827   -0.00789    0.01454    0.00095
C5    1    0.347773    0.511171    0.285617    11.00000    0.03320    0.04111 =
         0.07662   -0.00587    0.00739   -0.01333
C2    1    0.479359    0.184024    0.170978    11.00000    0.05026    0.04779 =
         0.04191   -0.00871    0.01447    0.01318
AFIX  23
H2A   2    0.470928    0.002582    0.182206    11.00000   -1.20000
H2B   2    0.552199    0.247415    0.193858    11.00000   -1.20000
AFIX   0
C6    1    0.343775    0.467756    0.353731    11.00000    0.05882    0.05850 =
         0.04936    0.01121    0.01300    0.02474
C20   1    0.225461    0.719357    0.868537    11.00000    0.05026    0.04779 =
         0.04191   -0.00871    0.01447    0.01318
AFIX  23
H20A  2    0.290240    0.806575    0.854543    11.00000   -1.20000
H20B  2    0.158032    0.828645    0.856551    11.00000   -1.20000
AFIX   0
C3    1    0.384860    0.335999    0.188242    11.00000    0.09521    0.04295 =
         0.03912    0.00456    0.01811    0.00693
AFIX  13
H3    2    0.402763    0.519017    0.180954    11.00000   -1.20000
AFIX   0
C18   1    0.266362    0.291736    0.737358    11.00000    0.11013    0.06194 =
         0.04673    0.00640    0.02155    0.00913
PART 1
O9    4    0.307825    0.073615    0.766396    10.50000    0.13790    0.06608 =
         0.04333    0.00612    0.03781    0.01548
PART 0
C8    1    0.389226    0.258510    0.451631    11.00000    0.06779    0.06855 =
         0.04753    0.00831    0.01593    0.02841
AFIX  43
H8    2    0.429818    0.124544    0.474713    11.00000   -1.20000
AFIX   0
O5    4   -0.024739    0.866443    0.122375    11.00000    0.14113    0.11290 =
         0.09582   -0.00756    0.00490    0.02485
C11   1    0.277146    0.634830    0.383446    11.00000    0.06015    0.05159 =
         0.06093    0.00755    0.01906    0.01950
AFIX  43
H11   2    0.235320    0.764656    0.359424    11.00000   -1.20000
AFIX   0
C4    1    0.270348    0.274824    0.143304    11.00000    0.07404    0.05647 =
         0.06420   -0.00767    0.02143   -0.01067
C10   1    0.270106    0.618323    0.445026    11.00000    0.06932    0.06724 =
         0.06008    0.00483    0.01900    0.02012
AFIX  43
H10   2    0.227187    0.740101    0.463636    11.00000   -1.20000
AFIX   0
C19   1    0.205501    0.466451    0.833628    11.00000    0.09521    0.04295 =
         0.03912    0.00456    0.01811    0.00693
AFIX  13
H19   2    0.246754    0.321747    0.857193    11.00000   -1.20000
AFIX   0
O6    4   -0.005462    0.949092    0.224789    11.00000    0.14113    0.11290 =
         0.09582   -0.00756    0.00490    0.02485
PART -1
C17A  1    0.391827    0.252154    0.588941    10.50000    0.05848    0.09568 =
         0.04200    0.01458    0.01471    0.02302
AFIX  43
H17A  2    0.454856    0.171186    0.575750    10.50000   -1.20000
AFIX   0
C13A  1    0.227961    0.521830    0.569969    10.50000    0.23352    0.10948 =
         0.04492    0.03775    0.05563    0.08804
AFIX  43
H13A  2    0.180860    0.636808    0.543788    10.50000   -1.20000
AFIX   0
PART 0
O7    4    0.085100    0.447771    0.254064    10.50000    0.10242    0.10379 =
         0.04575    0.04363    0.00204   -0.01206
AFIX  83
H7A   2    0.107733    0.312117    0.239542    10.50000   -1.50000
AFIX   0
PART -1
C14A  1    0.206455    0.475118    0.630067    10.50000    0.12934    0.11831 =
         0.04059    0.01597    0.02821    0.04632
AFIX  43
H14A  2    0.137479    0.533639    0.641335    10.50000   -1.20000
AFIX   0
C16A  1    0.371537    0.223373    0.650135    10.50000    0.13766    0.11041 =
         0.04736    0.03196    0.02894    0.04441
AFIX  43
H16A  2    0.420552    0.114713    0.677098    10.50000   -1.20000
AFIX   0
PART 0
C23   1    0.000216    0.380191    0.301423    10.25000    0.07356
AFIX 137
H23A  2   -0.074495    0.452458    0.285990    10.25000   -1.50000
H23B  2    0.029184    0.452494    0.342370    10.25000   -1.50000
H23C  2   -0.005998    0.194252    0.304898    10.25000   -1.50000
AFIX   0
PART 1
C13B  1    0.276661    0.595812    0.581917    10.50000    0.23352    0.10948 =
         0.04492    0.03775    0.05563    0.08804
AFIX  43
H13B  2    0.258459    0.753894    0.561307    10.50000   -1.20000
AFIX   0
C16B  1    0.329088    0.149337    0.641631    10.50000    0.13766    0.11041 =
         0.04736    0.03196    0.02894    0.04441
AFIX  43
H16B  2    0.352156   -0.004333    0.663197    10.50000   -1.20000
AFIX   0
C14B  1    0.259789    0.578165    0.643591    10.50000    0.12934    0.11831 =
         0.04059    0.01597    0.02821    0.04632
AFIX  43
H14B  2    0.233080    0.720076    0.664208    10.50000   -1.20000
AFIX   0
C17B  1    0.342417    0.169002    0.578976    10.50000    0.05848    0.09568 =
         0.04200    0.01458    0.01471    0.02302
AFIX  43
H17B  2    0.367697    0.026452    0.557985    10.50000   -1.20000
AFIX   0
PART 0
C22   1   -0.071226    0.933286    0.173912    11.00000    0.07404    0.05647 =
         0.06420   -0.00767    0.02143   -0.01067
PART -1
O20   4    0.245653    0.081758    0.755088    10.50000    0.13790    0.06608 =
         0.04333    0.00612    0.03781    0.01548
HKLF 4

REM  NaBPDC_SCCO2_a.res in P2(1)
REM R1 =  0.1176 for    1507 Fo > 4sig(Fo)  and  0.1392 for all    1980 data
REM    345 parameters refined using    130 restraints

END

WGHT      0.2000      0.0000

REM Highest difference peak  0.732,  deepest hole -0.673,  1-sigma level  0.157
Q1    1   0.0503  0.1849  0.3940  11.00000  0.05    0.73
Q2    1   0.0037  0.4469  0.4189  11.00000  0.05    0.70
Q3    1  -0.0179  0.4707  0.5815  11.00000  0.05    0.53
Q4    1   0.0791  0.3754  0.2265  11.00000  0.05    0.52
Q5    1   0.0692  0.3303  0.2343  11.00000  0.05    0.51
Q6    1   0.0482  0.8662  0.2872  11.00000  0.05    0.50
Q7    1   0.0717  0.1604  0.2576  11.00000  0.05    0.50
Q8    1   0.0455  0.5980  0.2396  11.00000  0.05    0.49
Q9    1   0.0522  0.4208  0.2836  11.00000  0.05    0.46
Q10   1   0.0214  0.5880  0.3006  11.00000  0.05    0.46
Q11   1   0.2525  1.0651  0.9206  11.00000  0.05    0.44
Q12   1   0.2651  0.3875  0.8362  11.00000  0.05    0.43
Q13   1   0.0191  0.6768  0.3393  11.00000  0.05    0.41
Q14   1   0.1664  1.2587  1.0246  11.00000  0.05    0.39
Q15   1   0.1928  0.5054  0.0604  11.00000  0.05    0.39
Q16   1  -0.0145  0.0354  0.2821  11.00000  0.05    0.39
Q17   1   0.0307  0.8301  0.5019  11.00000  0.05    0.38
Q18   1   0.3111  0.5790  0.6574  11.00000  0.05    0.37
Q19   1   0.0321  0.2113  0.3226  11.00000  0.05    0.37
Q20   1   0.3181  0.5613  0.5825  11.00000  0.05    0.36
;
_shelx_res_checksum              25130
_shelx_hkl_file
;
   1   0   0  227.78   26.10
   1   0   0  243.78   26.40
  -1   0   0  246.28   26.10
   2   0   0 2798.82  294.67
  -2   0   0 2502.15  293.57
  -3   0   0 4090.59  479.55
   3   0   0 4562.74  478.25
  -4   0   0 1863.51  201.18
   5   0   0    2.70    6.60
  -5   0   0   -2.80    3.80
  -6   0   0   -0.50    7.10
   6   0   0   -0.10    6.40
   7   0   0   21.10    7.10
  -7   0   0    7.80    5.50
  -8   0   0  277.17   27.90
  -8   0   0  200.78   28.90
   8   0   0  249.48   28.90
   9   0   0   -5.40    7.90
  -9   0   0   15.10    5.60
  -9   0   0   -5.30    9.70
  10   0   0    2.60    8.70
 -10   0   0   -9.20    9.50
  -1  -1   0 2520.15  254.17
  -1   1   0 2248.88  254.27
   1   1   0 2259.87  253.67
  -2  -1   0  724.43   74.29
  -2   1   0  551.44   79.19
   2   1   0  759.92   78.89
   2   1   0  593.44   71.59
  -3   1   0 1707.63  196.98
  -3   1   0 1943.71  198.18
   4  -1   0  116.89   20.50
  -4  -1   0  156.08   31.50
  -4   1   0   95.39   23.40
   5  -1   0  173.08   22.20
  -5  -1   0  182.18   19.60
   5   1   0  166.98   21.90
  -5   1   0  148.19   19.10
  -5   1   0  159.98   21.40
   6  -1   0  174.58   23.30
  -6  -1   0  169.38   20.10
  -6   1   0  163.98   19.30
  -6   1   0  165.38   21.70
   6   1   0  168.98   22.90
  -7  -1   0   95.79   15.10
  -7  -1   0  128.59   14.50
   7  -1   0  108.89   20.50
   7   1   0  113.89   18.20
  -7   1   0   87.59   16.70
   8  -1   0   56.09   16.40
  -8  -1   0   44.40   10.40
  -8  -1   0   63.89   10.90
  -8   1   0   31.00   10.50
   8   1   0   54.89   10.70
  -9  -1   0    6.30    5.80
  -9  -1   0   -2.90    9.10
   9  -1   0    0.30    9.20
   9   1   0    6.50    8.60
  -9   1   0   -2.40    9.10
 -10  -1   0   52.99   13.20
   0   2   0  132.99   18.60
   0   2   0  161.98   17.20
  -1  -2   0  189.18   42.20
   1  -2   0  206.88   22.00
  -1  -2   0  172.38   21.80
   1   2   0  177.28   21.90
   1   2   0  158.88   20.60
  -1   2   0  205.28   21.80
  -1   2   0  148.29   42.90
  -2  -2   0   87.19   13.00
   2  -2   0   83.99   17.40
   2  -2   0   87.69   13.70
  -2  -2   0   95.69   32.90
  -2   2   0  101.49   11.70
  -2   2   0   80.09   14.30
  -2   2   0  121.59   34.90
   2   2   0  105.79   11.50
   2   2   0   94.39   13.20
   2   2   0   66.59   16.40
  -2   2   0   87.99   13.30
   3  -2   0  229.78   24.90
   3  -2   0  202.18   22.30
  -3  -2   0  165.98   21.30
  -3  -2   0  176.78   35.60
  -3   2   0  171.38   22.10
  -3   2   0  193.18   23.10
  -3   2   0  177.08   21.10
   3   2   0  184.58   24.70
  -3   2   0  237.88   57.59
   4  -2   0  657.23   83.19
  -4  -2   0  766.92   87.39
  -4  -2   0  811.92   83.19
   4   2   0  799.02   83.89
   4   2   0  884.21   93.49
  -4   2   0  832.52   83.49
  -4   2   0  661.33   83.09
  -4   2   0  725.13   82.69
  -4   2   0  785.02   82.69
  -5  -2   0  104.89   13.90
   5  -2   0   83.89   16.60
   5  -2   0   86.69   13.30
  -5   2   0   75.59   14.70
  -5   2   0   87.39   13.50
  -5   2   0  101.29   12.20
  -5   2   0   45.00   23.70
   5   2   0   73.99   14.40
   6  -2   0   57.59   10.60
   6  -2   0   55.19   14.60
  -6   2   0   45.60   20.60
  -6   2   0   72.89    9.50
   6   2   0   64.29   14.30
  -6   2   0   59.79   13.50
  -6   2   0   67.99   14.50
   7  -2   0   81.49   14.60
  -7  -2   0   81.99   29.70
   7  -2   0  100.09   17.00
  -7   2   0   82.59   15.70
   7   2   0   98.39   16.30
  -7   2   0  146.19   39.10
  -8   2   0  128.79   39.90
  -9  -2   0   79.09   14.40
   0  -3   0   14.60   20.80
   0  -3   0   10.40    6.80
   0   3   0    1.40    7.00
   0   3   0   -0.70    5.50
   0   3   0    6.90   13.30
   1  -3   0  147.69   20.50
  -1  -3   0  118.49   25.60
  -1   3   0  109.09   19.60
   1   3   0  129.39   30.60
  -1   3   0  157.18   18.80
  -1   3   0  138.89   33.80
   1   3   0  151.18   21.10
   1   3   0  168.48   19.00
   2  -3   0  147.19   16.50
  -2  -3   0  124.89   15.00
  -2  -3   0  145.59   16.10
   2  -3   0   83.79   19.80
   2   3   0   94.29   18.00
  -2   3   0   99.39   14.50
   2   3   0  106.29   15.30
  -2   3   0  127.09   16.30
  -3  -3   0   75.69   23.00
   3  -3   0   85.19   13.70
   3   3   0   66.99   13.10
  -3   3   0   88.99   13.50
  -3   3   0   90.29   11.60
   3   3   0  108.59   17.80
  -3   3   0   98.79   15.20
   3   3   0  139.69   33.60
   3   3   0   77.59   11.40
   4  -3   0   96.89   19.20
   4  -3   0  138.59   20.80
  -4  -3   0  115.49   25.20
  -4   3   0  124.49   17.40
   4   3   0  126.89   17.30
  -4   3   0  149.39   15.90
  -4   3   0  130.39   19.80
   4   3   0  147.99   20.40
   4   3   0  143.49   15.80
   7  -3   0  116.59   18.20
  -7   3   0   83.59   18.30
   7   3   0  136.49   19.50
   8  -3   0   76.99   17.40
   8   3   0   82.09   17.90
  -8   3   0  113.49   14.30
   0  -4   0  293.67   32.10
   0   4   0  245.08   43.10
   1  -4   0   50.99   32.20
   1   4   0   36.10   18.10
  -1   4   0   57.99   10.70
  -1   4   0   32.30   15.90
  -2   4   0   66.59   13.80
  -2   4   0   52.49   13.50
   3  -4   0  103.19   21.70
  -4   4   0   31.70   11.90
   4   4   0    5.80   12.60
   4   4   0   19.90   10.70
   5  -4   0   75.19   19.20
  -5   4   0   70.09   14.90
  10   0  -1   23.40    9.20
 -10   0   1   18.50    9.60
  -9   0   1  173.18   38.80
  -9   0   1  115.89   19.90
   8   0  -1   54.79    8.90
  -8   0   1   29.90   10.10
   7   0  -1  239.08   31.30
  -7   0   1  302.67   31.50
  -6   0   1   88.79   13.70
  -6   0   1   77.79   10.10
   6   0  -1   82.79   13.60
   5   0  -1  477.75   51.09
  -5   0   1  427.16   50.49
  -5   0   1  476.85   50.79
   4   0  -1  777.72   79.39
  -4   0   1  676.73   78.89
   3   0  -1   -6.50    6.00
  -3   0   1    9.50    6.40
  -2   0   1   70.29   10.70
  -2   0   1   74.59    8.40
  -1   0   1   92.49   11.50
   1   0  -1  102.49   13.00
  -1   0   1  106.59   11.50
  -1   0   1   99.39   16.40
   1   0   1   49.10    7.00
   1   0   1   50.09    6.50
  -2   0  -1  671.13   69.69
   2   0   1  695.73   69.39
   2   0   1  554.24   69.69
   3   0   1 9999.00 1014.20
  -3   0  -1 8640.24 1012.00
  -4   0  -1  850.41   93.09
   4   0   1  878.51   93.19
   4   0   1  842.72   93.09
  -5   0  -1  163.28   20.80
   5   0   1  181.68   21.20
  -6   0  -1   71.19   11.70
   6   0   1   47.30   12.50
  -7   0  -1   86.79   14.40
   7   0   1   98.49   14.70
  -7   0  -1   83.29   12.40
   8   0   1  245.68   26.50
  -8   0  -1  183.38   26.00
  -8   0  -1  223.68   24.70
  -9   0  -1   10.20    5.60
   9   0   1    5.60    8.20
 -10   0  -1    5.40   10.60
  10   0   1    6.50    8.90
 -10   0  -1   14.00    6.30
   9   1  -1    7.60    8.50
  -8  -1   1   19.00   12.00
  -8  -1   1   27.70    6.50
  -8  -1   1   10.10    8.80
   8  -1  -1   26.90   12.50
  -8   1   1   15.70    8.80
   8   1  -1   24.60    9.50
   7  -1  -1   47.90   12.10
  -7  -1   1   39.50    8.50
  -7  -1   1   44.80   10.20
  -7  -1   1   26.10   12.00
   7   1  -1   40.20   10.00
  -7   1   1   26.50    9.30
  -6  -1   1   71.19    9.40
   6  -1  -1   67.19   12.30
   6   1  -1   72.49   11.90
  -6   1   1   51.99   13.60
  -6   1   1   75.29   10.90
  -5  -1   1  110.59   14.50
   5  -1  -1  115.89   17.30
  -5   1   1   93.89   16.20
  -5   1   1  111.39   13.60
   5   1  -1  100.99   17.30
   4  -1  -1  361.16   41.40
  -4  -1   1  397.26   41.50
   4  -1  -1  370.76   46.80
  -4   1   1  374.76   40.80
  -4   1   1  410.36   41.00
  -4   1   1  334.97   41.40
  -3  -1   1  472.45   54.09
   3  -1  -1  490.25   53.79
  -3   1   1  494.55   57.09
  -3   1   1  515.55   53.29
  -3   1   1  480.85   53.79
   2  -1  -1  158.48   19.70
  -2  -1   1  126.49   16.30
   2  -1  -1  158.28   17.40
  -2  -1   1  136.49   28.70
  -2   1   1  133.89   16.50
   2   1  -1  131.79   18.70
  -2   1   1  152.18   18.30
  -2   1   1  160.88   17.80
  -2   1   1  103.29   37.80
   1   1  -1   80.89   14.30
  -1   1   1   64.79   11.90
   0  -1   1   60.09    9.50
   0   1   1   53.49    7.20
   0   1  -1   46.80    9.70
   0   1   1   71.79   23.10
   1  -1   1  940.41  119.19
   1  -1   1 1106.69  114.69
   1  -1   1  992.20  114.19
  -1  -1  -1 1077.39  115.89
   1   1   1 1101.99  113.99
   1   1   1 1048.50  114.39
  -1   1  -1 1165.38  114.19
   1   1   1 1100.49  116.39
  -1   1  -1  959.90  114.19
  -2  -1  -1 1454.75  158.48
   2  -1   1 1344.87  156.38
   2  -1   1 1405.56  156.68
  -2   1  -1 1364.96  160.48
   2   1   1 1347.07  156.48
   2   1   1 1534.05  156.58
   2   1   1 1461.95  156.68
   2   1   1 1568.44  161.18
  -2   1  -1 1566.54  156.58
   3  -1   1  208.38   25.40
  -3   1  -1  227.78   25.40
  -3   1  -1  235.08   32.10
   4  -1   1  773.02   81.69
  -4  -1  -1  814.22   80.79
  -4   1  -1  648.54   81.29
  -4   1  -1  741.63   80.79
   5  -1   1  440.76   48.30
  -5  -1  -1  465.55   47.30
  -5  -1  -1  378.26   58.59
  -5   1  -1  397.46   47.00
  -5   1  -1  459.15   46.50
  -5   1  -1  420.96   47.60
   5   1   1  417.46   47.80
  -6  -1  -1  404.86   55.49
  -6  -1  -1  352.56   44.10
  -6  -1  -1  430.76   44.40
   6  -1   1  441.26   45.70
  -6   1  -1  420.96   44.90
  -6   1  -1  409.96   43.70
   6   1   1  423.56   45.20
  -6   1  -1  340.97   44.20
  -7  -1  -1  169.78   22.00
  -7  -1  -1  167.78   21.20
   7  -1   1  198.48   26.40
  -7  -1  -1  167.98   34.60
  -7   1  -1  167.18   23.10
   7   1   1  191.48   23.50
  -7   1  -1  205.48   23.60
  -7   1  -1  200.18   21.40
  -8  -1  -1   83.99   14.80
  -8  -1  -1   87.99   28.10
   8  -1   1  126.09   19.20
   8   1   1  103.19   16.50
  -8   1  -1   86.29   16.50
   9  -1   1    8.10    9.70
  -9  -1  -1    4.90    9.40
  -9  -1  -1    9.90    5.70
  -9   1  -1    1.90    9.90
   9   1   1   10.30    8.40
 -10  -1  -1    7.90    6.70
 -10  -1  -1  -17.50   10.20
  10  -1   1   -0.80    8.90
 -10   1  -1   -1.00   10.10
  10   1   1    2.70    6.20
  -9  -2   1  137.39   19.50
  -8  -2   1   62.89   14.20
  -8   2   1  132.19   39.60
   7  -2  -1   76.69   16.30
   7  -2  -1   86.59   13.30
   7   2  -1   72.09   15.60
  -7   2   1  133.29   39.10
  -7   2   1   62.99   15.10
   6  -2  -1   64.99   13.40
   6  -2  -1   54.89   14.50
  -6   2   1   35.80   20.50
  -6   2   1   67.49   10.10
  -6   2   1   73.19   13.40
   5  -2  -1  115.59   14.90
   5  -2  -1   76.99   18.20
  -5  -2   1  108.69   28.80
  -5   2   1  116.39   13.10
   5   2  -1  108.59   16.10
  -5   2   1   83.59   23.70
  -5   2   1  110.69   14.70
  -5   2   1  108.89   16.50
  -4  -2   1  182.38   37.90
   4  -2  -1  253.87   25.60
  -4  -2   1  214.58   26.20
   4  -2  -1  224.68   28.20
   4   2  -1  161.48   43.80
  -4   2   1  200.68   26.30
  -4   2   1  157.28   42.10
  -4   2   1  248.88   25.60
   4   2  -1  201.78   27.80
  -4   2   1  238.78   24.50
  -3  -2   1  184.48   21.40
   3  -2  -1  165.88   20.80
  -3  -2   1  177.78   34.90
   3  -2  -1  172.08   23.70
  -3  -2   1  162.48   19.90
  -3   2   1  153.08   20.50
   3   2  -1  189.48   20.20
  -3   2   1  166.28   21.60
  -3   2   1  207.38   37.80
  -3   2   1  156.58   19.30
   3   2  -1  164.78   22.90
   2  -2  -1   28.60    8.30
  -2  -2   1   56.19   19.50
  -2   2   1   40.00    9.30
   2   2  -1   13.60    5.50
   2   2  -1   24.60   12.90
  -2   2   1   41.20   17.60
   2   2  -1   28.70    8.30
  -1  -2   1  419.16   43.20
  -1  -2   1  342.87   42.70
   1  -2  -1  442.46   43.60
  -1  -2   1  384.86   56.59
   1   2  -1  377.06   43.20
  -1   2   1  368.76   43.60
  -1   2   1  370.36   54.89
  -1   2   1  450.15   43.40
   1   2  -1  386.36   42.60
   1   2  -1  344.87   51.39
   0   2  -1   86.19   10.90
   0   2  -1  103.99   13.10
   0   2   1   89.19   11.10
   0   2   1   62.19   13.60
   0   2  -1   75.99   15.80
   0   2   1   91.89   13.20
   1  -2   1   34.40   15.10
   1  -2   1   26.10    6.70
  -1  -2  -1   17.60    6.50
   1   2   1   14.00    6.80
  -1   2  -1   23.10    5.40
   1   2   1   21.60    5.90
  -1   2  -1   18.60    6.70
  -1   2  -1   19.10    7.10
   1   2   1   11.90   11.60
  -1   2  -1   37.20   17.80
   1   2   1   40.40   14.40
   2  -2   1   14.90    6.50
  -2  -2  -1    7.40   12.80
   2  -2   1   33.70    9.10
   2  -2   1    1.90   15.10
  -2   2  -1   11.50    7.70
  -2   2  -1   19.50    4.80
   2   2   1    5.90    8.60
   2   2   1    8.80    6.00
   2   2   1   -2.10   13.50
  -2   2  -1    8.00    8.30
   2   2   1   15.40    5.10
  -2   2  -1   63.49   31.70
  -3  -2  -1  168.78   30.80
   3   2   1  128.59   19.90
  -3   2  -1  122.49   16.70
  -3   2  -1  126.59   15.10
  -4  -2  -1  614.54   66.99
  -4  -2  -1  557.84   71.79
   4  -2   1  648.64   67.59
   4  -2   1  595.54   66.69
  -4   2  -1  572.84   79.69
  -4   2  -1  610.34   66.29
  -4   2  -1  601.14   66.69
   4   2   1  605.84   67.59
  -4   2  -1  679.63   67.19
  -5  -2  -1   84.49   12.80
   5  -2   1   72.69   16.00
   5  -2   1   78.29   12.00
   5   2   1   71.59   14.10
  -5   2  -1   87.89   10.40
  -5   2  -1   82.09   15.50
  -5   2  -1   71.79   14.90
   6  -2   1   45.50    9.70
  -6  -2  -1   43.40   12.10
   6  -2   1   67.19   14.00
   6   2   1   62.69   13.10
  -6   2  -1   55.29   13.20
  -6   2  -1   60.99    8.90
  -6   2  -1   48.00   18.10
  -6   2  -1   51.79   11.00
   7  -2   1   17.90    9.30
   7  -2   1   26.70    8.60
   7   2   1   17.40    9.00
  -7   2  -1   32.30   16.80
  -7   2  -1    9.90    9.30
  -7   2  -1   29.00    8.90
  -7   2  -1   24.90    7.10
  -8  -2  -1  134.39   18.10
  -8   2  -1  154.98   40.70
  -8   2  -1  143.79   19.20
  -8   2  -1  127.39   20.70
  -9  -2  -1   98.89   16.20
   8  -3  -1   27.70   10.10
   8   3  -1   46.20   10.80
  -8   3   1   25.50   12.30
   7  -3  -1   56.99   11.20
   7   3  -1   62.69   16.70
   6  -3  -1   76.49   12.40
   6   3  -1   82.59   18.10
   5  -3  -1   46.50   10.20
   5  -3  -1   35.10    8.60
  -5   3   1   18.80   11.30
  -5   3   1   41.20   10.80
   5   3  -1   30.00    9.70
  -4  -3   1   47.40   21.50
   4  -3  -1   78.59   13.00
   4  -3  -1   94.69   16.40
   4   3  -1   60.99   12.10
  -4   3   1   83.39   12.50
  -4   3   1   89.19   11.20
   4   3  -1   79.89   16.80
   4   3  -1   72.59   10.40
   4   3  -1   56.99   21.30
  -4   3   1   64.19   15.40
  -3  -3   1   43.60   21.70
  -3   3   1   73.19   14.30
   3   3  -1   85.59   17.20
   3   3  -1   63.29   13.10
   3   3  -1   91.59   11.10
  -3   3   1   95.09   13.70
  -3   3   1   68.59   13.30
   2  -3  -1   15.40    9.90
   2   3  -1   41.10   10.10
  -2   3   1   10.20    8.30
  -2   3   1   26.90    7.90
   2   3  -1   40.90    7.20
   1  -3  -1  131.69   15.70
   1  -3  -1   70.39   17.50
   1   3  -1  100.29   14.00
   1   3  -1  101.59   29.40
   1   3  -1  107.69   18.30
  -1   3   1   94.49   15.90
  -1   3   1  116.89   15.10
  -1   3   1  111.69   13.80
   0  -3  -1   54.99   12.20
   0  -3   1   50.29   10.70
   0  -3   1   11.90   22.20
   0   3  -1   49.60   11.10
   0   3   1   39.80    8.90
   0   3  -1   38.80    7.60
   0   3   1   57.39   11.10
   1  -3   1  145.69   48.60
   1  -3   1  179.38   20.50
  -1  -3  -1  157.98   36.80
  -1  -3  -1  121.69   18.40
   1   3   1   92.79   28.60
  -1   3  -1  154.28   18.30
   1   3   1  139.59   18.60
  -1   3  -1  150.48   16.70
  -1   3  -1  109.79   35.00
   1   3   1  106.09   21.10
   1   3   1  160.68   17.10
  -2  -3  -1   38.20   10.50
   2  -3   1   76.89   15.90
   2   3   1   48.20   10.20
  -2   3  -1   46.50    7.90
  -2   3  -1   25.00   10.70
   2   3   1   49.99    8.20
   2   3   1   26.90   12.50
  -3  -3  -1  -10.90   19.20
   3  -3   1   21.50    8.80
  -3   3  -1   40.20    9.90
   3   3   1    6.70   10.60
  -3   3  -1   25.90    6.10
   3   3   1   21.30    6.40
   3   3   1    8.30   18.80
   3   3   1   25.20    7.80
   4  -3   1  123.19   16.80
  -4   3  -1   93.19   13.30
   4   3   1  108.29   15.70
   4   3   1   82.29   13.30
  -4   3  -1  113.79   15.10
   4   3   1  163.88   43.90
   7  -3   1  101.89   16.90
   7   3   1   87.19   19.00
   5  -4  -1   80.79   18.60
   5   4  -1   97.59   20.20
  -5   4   1   42.00   13.70
  -5   4   1   60.79   11.80
   4  -4  -1  128.59   19.40
   4   4  -1  101.09   17.80
  -4   4   1   85.09   17.30
  -4   4   1   97.19   14.40
   4   4  -1   91.39   21.20
   4   4  -1   79.99   14.30
   3  -4  -1  103.39   19.40
  -3   4   1   59.99   16.10
   3   4  -1   59.29   11.80
   3   4  -1   42.70   13.80
   2   4  -1   50.59   12.60
  -2   4   1   98.79   14.90
   2   4  -1   65.69   15.00
   1  -4  -1   83.49   39.30
  -1   4   1  119.29   17.30
   0  -4  -1  286.97   31.10
   0  -4   1  296.27   31.30
   0   4   1  235.48   30.10
   0   4  -1  231.78   30.60
   0   4  -1  286.97   43.30
   0   4   1  289.47   42.30
   1  -4   1  154.78   22.60
  -1   4  -1  103.99   18.20
  -2   4  -1   24.20    7.20
  -2   4  -1   -3.40   17.00
   2   4   1   26.70    9.80
   2   4   1   14.20   10.50
   3   4   1   11.70   12.50
  -3   4  -1    7.10    6.80
   3   4   1    5.00    9.20
   3   4   1   10.20    7.40
  -3   4  -1   17.80   10.80
   4  -4   1   23.90   10.80
   4   4   1    2.90    7.70
  -4   4  -1   -4.00   10.60
  -4   4  -1   -5.00    9.60
   4   4   1    5.60   11.60
  10   0  -2    1.90    8.40
   9   0  -2   57.29    9.60
  -9   0   2   34.40   10.10
  -8   0   2   34.30   15.60
  -8   0   2   18.60    6.00
   8   0  -2    3.70    7.20
  -8   0   2    4.20    8.00
  -7   0   2  840.42   95.39
  -7   0   2  817.82   89.29
   7   0  -2  825.92   89.29
  -7   0   2  801.92   89.19
   6   0  -2  436.96   45.60
  -6   0   2  439.76   45.60
  -6   0   2  352.56   45.30
  -5   0   2  145.59   18.70
  -5   0   2  152.18   19.40
   5   0  -2  159.08   20.40
  -4   0   2   11.10    8.20
   4   0  -2   -2.70    6.60
   3   0  -2   45.50   10.80
  -3   0   2   52.09   10.20
  -2   0   2   50.39    8.90
  -1   0   2   50.79    6.90
   1   0  -2   49.00    7.60
  -1   0   2   41.70    7.60
   0   0   2   40.00    5.40
   0   0  -2   37.70    5.50
   1   0   2  516.55   58.99
   1   0   2  574.04   58.99
   2   0   2   97.09   11.90
  -2   0  -2   63.39   11.70
  -3   0  -2   21.70    8.40
   4   0   2  301.97   35.60
  -4   0  -2  325.97   35.90
   5   0   2   15.30    6.90
   5   0   2   28.30    5.30
  -5   0  -2   23.00    8.20
   6   0   2    0.30    6.90
  -6   0  -2    4.20    7.00
   7   0   2   92.29   14.50
  -7   0  -2   85.69   13.80
   8   0   2   55.79   13.40
  -8   0  -2   49.99   12.40
  -8   0  -2   56.89   10.30
  -9   0  -2    0.20    4.80
   9   0   2   -3.60    8.40
  -9   0  -2    0.90    8.90
  10   0   2   62.79   15.10
 -10   0  -2   44.20   12.00
  10  -1  -2   76.59   16.50
 -10   1   2   56.49   14.50
  10   1  -2   68.09   14.10
  -9  -1   2   13.40    7.40
  -8  -1   2   57.69   13.10
  -8  -1   2   65.89   21.30
   8  -1  -2   93.69   14.60
   8   1  -2   76.59   16.70
  -8   1   2   64.29   13.90
   7  -1  -2   83.19   13.50
  -7  -1   2   64.89   12.50
  -7  -1   2   53.59   12.10
   7   1  -2   74.09   11.70
  -7   1   2   48.90   13.10
  -6  -1   2    4.60    6.40
   6  -1  -2   14.00    6.30
  -6  -1   2   41.20    9.90
   6  -1  -2   22.50    9.80
  -6  -1   2   19.60   10.10
  -6   1   2   21.90    5.00
  -6   1   2   34.40    8.50
  -6   1   2   44.00    9.20
   6   1  -2   33.20    9.50
  -6   1   2    8.70    6.20
   5  -1  -2   33.10    6.90
   5  -1  -2   38.40    9.40
  -5  -1   2   27.70   10.90
  -5   1   2   31.40    6.90
  -5   1   2   43.60    9.00
   5   1  -2   40.60    9.80
  -5   1   2   36.10    6.20
  -4  -1   2 1664.43  169.18
  -4  -1   2 1743.33  167.38
  -4   1   2 1622.54  167.18
  -4   1   2 1335.87  167.28
  -4   1   2 1454.65  167.08
  -4   1   2 1474.35  168.18
  -3  -1   2 1250.17  123.29
   3  -1  -2 1224.98  121.19
  -3   1   2  954.20  120.69
  -3   1   2  946.71  120.49
  -3   1   2 1036.70  120.39
  -3   1   2 1252.77  120.69
   3   1  -2 1151.28  120.89
  -2  -1   2  257.47   35.10
  -2   1   2  294.57   34.40
  -2   1   2  335.37   34.10
   2   1  -2  357.86   35.30
   1  -1  -2  118.59   20.70
   1  -1  -2  136.99   18.50
   1   1  -2  149.79   16.40
  -1   1   2  121.79   18.10
  -1   1   2  140.39   16.70
   1   1  -2  171.48   20.00
  -1   1   2  176.98   18.60
   0  -1  -2  453.55   48.60
   0  -1   2  400.06   48.40
   0  -1   2  492.75   48.00
   0   1   2  507.65   49.30
   0   1  -2  409.76   48.50
   0   1   2  437.56   48.10
   0   1   2  450.05   47.90
   0   1   2  399.16   48.60
   0   1  -2  462.85   48.50
   0   1  -2  413.36   48.00
   1  -1   2  431.76   41.90
   1  -1   2  388.56   41.10
   1  -1   2  348.37   41.70
   1   1   2  386.66   41.30
   1   1   2  368.66   42.00
  -1   1  -2  447.46   41.70
   1   1   2  301.77   52.69
   1   1   2  404.86   41.90
  -1   1  -2  334.37   41.10
   1   1   2  388.06   41.30
  -1   1  -2  332.97   41.90
   2  -1   2  116.19   15.00
   2  -1   2  105.59   12.80
   2   1   2  126.19   13.50
   2   1   2   83.19   14.10
  -2   1  -2   94.39   14.20
   2   1   2  100.09   17.70
  -2   1  -2  104.89   12.20
  -3  -1  -2  765.72  101.19
   3  -1   2  963.00   93.49
  -3   1  -2  751.22   93.79
  -3   1  -2  895.01   93.39
   3   1   2  987.30   93.69
   3   1   2  804.12   93.89
   4  -1   2  264.27   37.50
   4  -1   2  351.46   35.90
   4   1   2  319.37   36.00
  -4   1  -2  316.27   35.00
  -4   1  -2  340.17   35.80
   5  -1   2  239.38   28.50
  -5  -1  -2  263.47   27.60
   5  -1   2  229.38   26.30
  -5   1  -2  256.37   25.60
  -5   1  -2  238.88   26.50
  -5   1  -2  206.78   27.20
   5   1   2  193.78   27.10
   6  -1   2   97.69   18.10
  -6  -1  -2   98.79   15.90
  -6   1  -2  135.69   14.70
   6   1   2   92.39   16.60
  -6   1  -2  130.19   13.00
  -6   1  -2   80.59   15.90
  -7  -1  -2   74.79   12.00
   7  -1   2   85.69   19.40
  -7  -1  -2   84.59   13.60
  -7  -1  -2  119.59   32.10
  -7   1  -2   94.39   14.70
   7   1   2   91.29   14.90
  -7   1  -2   69.49   14.50
   8  -1   2  121.89   20.50
  -8   1  -2  136.59   16.00
  -8   1  -2   95.49   19.70
   8   1   2  119.19   17.80
  -9  -1  -2   13.60    9.40
   9  -1   2   18.00    9.60
  -9  -1  -2   16.80    6.70
   9   1   2   26.50    8.60
  -9   1  -2   16.50   10.00
 -10  -1  -2    6.20   10.30
 -10  -1  -2   23.30    6.60
  10  -1   2   26.00    9.60
  10   1   2   21.50    7.00
 -10   1  -2   16.30   11.30
  -9  -2   2  112.99   17.60
  -8   2   2  144.99   42.30
  -7  -2   2   49.10   15.30
  -7  -2   2   55.89   12.30
   7  -2  -2   80.29   15.70
   7   2  -2   80.69   14.60
  -7   2   2   52.29   19.10
  -7   2   2   69.09   14.20
  -7   2   2   94.59   11.60
   6  -2  -2  133.29   19.90
  -6  -2   2  139.29   32.90
   6  -2  -2  113.39   18.70
   6   2  -2  146.39   19.70
  -6   2   2  152.88   16.30
  -6   2   2  142.89   19.30
  -6   2   2  136.69   17.60
   5  -2  -2   27.20    7.30
   5  -2  -2   25.50    9.40
  -5  -2   2   21.40   14.10
  -5  -2   2   40.50    8.10
  -5   2   2   44.30    7.00
   5   2  -2   20.00    6.70
  -5   2   2   20.90   20.70
   5   2  -2   30.70   20.30
  -5   2   2   32.40    9.50
   4  -2  -2  154.28   21.90
  -4  -2   2  134.69   19.80
  -4  -2   2  156.58   34.00
   4  -2  -2  161.78   18.70
   4   2  -2  129.49   43.00
  -4   2   2  141.79   20.50
  -4   2   2  161.18   34.80
   4   2  -2  145.69   21.50
  -4   2   2  147.99   18.70
  -4   2   2  143.69   17.50
   3  -2  -2  151.48   17.90
   3  -2  -2  131.19   20.90
  -3  -2   2  128.29   17.80
  -3   2   2  134.29   17.20
  -3   2   2  121.49   16.00
  -3   2   2  120.79   37.70
  -2  -2   2   45.10    8.80
  -2  -2   2   37.50   33.50
   2  -2  -2   41.60    7.80
   2   2  -2   44.50    9.50
  -2   2   2   17.50   16.60
  -2   2   2   33.20    9.50
  -1  -2   2  119.29   13.60
   1  -2  -2  106.69   14.50
  -1  -2   2  108.69   38.40
   1   2  -2   84.09   12.20
   1   2  -2  115.69   14.00
  -1   2   2   77.19   13.10
  -1   2   2  100.69   15.00
   0  -2  -2  110.59   14.60
   0  -2   2  115.59   13.60
   0   2   2   87.69   12.80
   0   2  -2  102.59   14.10
   0   2   2   85.29   16.50
   0   2   2   77.29   26.20
   0   2   2  125.19   14.90
   0   2  -2   66.09   15.70
   0   2  -2   99.99   12.20
   0   2  -2  121.89   40.10
  -1  -2  -2  135.89   16.20
   1  -2   2  133.99   15.70
   1   2   2   97.99   14.60
   1   2   2  132.89   16.00
  -1   2  -2  127.09   16.00
  -1   2  -2  107.69   14.40
   2  -2   2  124.29   15.60
   2  -2   2  104.49   20.00
   2   2   2  124.69   14.40
  -2   2  -2  170.08   39.20
  -2   2  -2  129.69   14.30
  -2   2  -2   91.99   17.20
   2   2   2   89.69   19.50
   2   2   2  125.79   16.00
  -2   2  -2  135.59   16.80
  -3  -2  -2   43.70   12.70
   3  -2   2   42.20    6.50
   3  -2   2   28.40    7.30
  -3   2  -2   41.20    6.20
  -3   2  -2   24.80    7.10
   4  -2   2  615.54   64.89
  -4  -2  -2  560.84   67.89
  -4  -2  -2  577.34   63.59
   4  -2   2  586.84   63.69
   4  -2   2  601.74   63.29
   4   2   2  614.94   64.59
  -4   2  -2  590.34   63.19
  -4   2  -2  531.35   76.19
  -4   2  -2  553.34   63.69
  -5  -2  -2  334.97   33.10
   5  -2   2  300.57   34.70
   5  -2   2  247.38   34.70
  -5   2  -2  319.57   32.50
   5   2   2  277.97   33.90
  -5   2  -2  280.67   34.30
  -6  -2  -2   98.89   14.20
   6  -2   2   88.09   16.60
  -6  -2  -2  105.19   14.00
  -6   2  -2  110.39   17.40
  -6   2  -2  115.39   13.00
   7  -2   2   21.70   10.40
   7  -2   2   48.90    9.40
  -7  -2  -2   78.79   12.00
  -7   2  -2   27.90   16.80
  -8  -2  -2   55.79   11.90
  -8  -2  -2   46.20   11.30
   9  -2   2   20.50   12.60
  -9  -2  -2   49.80   11.40
   7  -3  -2   63.09   11.00
  -7   3   2   41.20   13.20
   7   3  -2   65.09   17.10
   5   3  -2  136.69   47.60
   4  -3  -2   85.59   13.80
   4  -3  -2   79.89   18.00
   4   3  -2   76.29   17.50
   4   3  -2  100.79   12.20
   4   3  -2   98.29   34.20
   4   3  -2   82.99   14.10
  -4   3   2   92.39   12.40
  -3  -3   2   97.19   14.50
   3  -3  -2   85.09   16.00
  -3  -3   2   94.89   22.00
   3   3  -2  117.39   15.30
  -3   3   2  111.99   15.40
   3   3  -2   96.09   26.80
   3   3  -2  108.59   13.20
   2  -3  -2   22.90    9.50
  -2  -3   2   25.00    6.40
   2  -3  -2   33.50    8.00
   2   3  -2   16.20    8.20
  -2   3   2   12.40    9.60
   2   3  -2    2.40   11.50
   2   3  -2   20.70    6.30
  -2   3   2   31.50    7.90
  -2   3   2    5.30   15.80
  -2   3   2   16.40    6.90
  -1  -3   2    3.70    8.10
   1  -3  -2    0.50    9.00
  -1  -3   2  -15.80   22.30
   1  -3  -2   24.10    8.40
  -1   3   2   11.40    8.80
  -1   3   2    9.00    7.20
   1   3  -2   20.30    9.70
  -1   3   2    4.90   12.80
   1   3  -2    8.40   13.10
  -1   3   2    8.30    6.40
   1   3  -2    4.60    6.00
   1   3  -2    9.20    7.40
   0  -3  -2   49.10   11.00
   0  -3   2   16.10   21.40
   0  -3   2   52.19    9.90
   0   3  -2   29.70   15.20
   0   3  -2   35.00    9.10
   0   3  -2   45.50    8.50
   0   3   2   56.29   10.20
   0   3   2   53.69    8.20
   0   3   2   35.80   12.80
   1  -3   2  162.28   51.79
   1  -3   2  202.68   26.30
   1  -3   2  215.18   23.60
  -1  -3  -2  178.28   24.50
  -1   3  -2  126.49   47.50
   1   3   2  219.58   22.70
   1   3   2  204.18   26.40
   1   3   2  212.08   24.00
  -1   3  -2  192.78   22.80
   2  -3   2   68.19   17.60
  -2  -3  -2   36.50   21.50
   2  -3   2   71.39   11.50
   2   3   2   70.99   15.00
  -2   3  -2   54.19   14.20
   2   3   2   64.89   10.20
  -2   3  -2   54.89   10.60
   3  -3   2   24.20    7.10
   3  -3   2   38.60   10.60
  -3  -3  -2    3.80   16.60
  -3  -3  -2   18.50    9.10
   3   3   2   28.10    6.60
   3   3   2   42.40   11.00
   3   3   2   10.00   10.60
  -3   3  -2   41.00    9.60
   3   3   2   32.10   20.30
  -3   3  -2   22.50    6.10
   4  -3   2    6.40    6.20
   4  -3   2   26.20    8.10
  -4  -3  -2    7.50   14.00
   4   3   2    6.50    5.60
   4   3   2   10.40    9.50
   7  -3   2  129.49   18.80
  -7   3  -2  133.19   15.30
  -7   3  -2   93.59   18.50
   5  -4  -2   35.10   10.80
  -5   4   2   14.30   11.20
  -5   4   2   21.70    7.60
   5   4  -2   16.60   12.90
   4  -4  -2   93.89   19.80
   4   4  -2   76.79   20.90
  -4   4   2  107.69   15.70
   3  -4  -2   92.29   19.50
   3   4  -2   50.09   13.80
  -3   4   2   55.19   15.30
   3   4  -2   62.99   14.00
   2  -4  -2  152.18   22.00
  -2   4   2  114.49   20.20
  -2   4   2  141.29   15.80
   2   4  -2  130.49   17.80
   2   4  -2   89.39   20.40
   1  -4  -2  196.58   25.20
  -1   4   2  150.18   19.70
   0  -4  -2  172.58   21.70
   0   4   2  185.78   20.80
   0   4   2  135.89   33.50
   2   4   2   21.60   10.70
  -2   4  -2   20.60   10.50
  -3  -4  -2   -2.10   11.20
   3   4   2   10.20   12.60
  -3   4  -2    6.10    7.20
  -3   4  -2    4.00   10.20
   4  -4   2    9.80   10.10
  -4   4  -2   -1.60    8.50
   4   4   2    0.80    7.00
  -4   4  -2  -15.60   10.60
   4   4   2   -0.60   12.60
   5  -4   2    3.90   10.70
  -5   4  -2  -12.90   11.10
   5   4   2    6.60   13.00
  10   0  -3   -9.80    8.50
 -10   0   3   24.40    7.80
 -10   0   3   -2.80    9.30
  -9   0   3    5.70    8.60
  -9   0   3   18.10   13.30
   9   0  -3   23.40    7.90
  -8   0   3   24.30   15.20
   7   0  -3  521.85   60.39
  -7   0   3  654.53   69.89
  -7   0   3  520.55   60.39
  -7   0   3  537.05   60.29
   6   0  -3  433.46   45.90
  -6   0   3  441.26   45.90
  -6   0   3  375.66   45.90
  -6   0   3  393.16   55.09
  -5   0   3  101.59   18.80
  -5   0   3  104.29   12.00
   5   0  -3   66.79   15.80
  -5   0   3   92.19   14.30
   4   0  -3  288.87   30.70
  -4   0   3  246.38   30.20
  -4   0   3  240.78   45.80
   3   0  -3  132.09   17.80
  -3   0   3  140.99   17.60
  -1   0   3  190.88   19.30
  -1   0   3  143.09   19.50
   1   0  -3  181.58   19.30
  -1   0   3  167.98   19.30
   0   0  -3   43.20    7.10
   0   0   3   45.90    7.10
   0   0   3   35.80    8.80
   1   0   3   32.20    9.90
  -1   0  -3   26.50    5.10
   1   0   3   42.90    6.30
   2   0   3   35.40    8.10
   2   0   3   43.50    8.10
   3   0   3 1367.96  147.79
  -4   0  -3   15.10    8.80
   4   0   3   17.90    6.50
   4   0   3   38.60    8.20
  -5   0  -3  483.45   58.99
   5   0   3  540.95   58.59
   5   0   3  575.34   58.39
  -6   0  -3    6.50    8.50
   6   0   3   10.00    6.00
   6   0   3   -1.90    6.90
  -7   0  -3   24.70    8.50
   7   0   3   30.50    7.90
  -8   0  -3   33.50    9.60
   8   0   3   48.20    9.10
   9   0   3   -1.30    8.20
  -9   0  -3    2.20    9.40
  -9   0  -3    1.00    5.00
 -10   0  -3   17.60   11.10
  10   0   3   26.00    9.70
 -10   0  -3   18.60    7.40
 -10  -1   3   48.60   14.90
  10  -1  -3   91.09   15.90
 -10   1   3   71.49   15.30
  10   1  -3   75.49   15.50
   9  -1  -3   -1.40    8.80
  -9  -1   3   16.30    7.60
   9   1  -3    5.50    9.20
  -9   1   3   -0.10    9.00
  -8  -1   3   27.20    8.00
   8  -1  -3   -4.80   11.90
   8   1  -3   14.00    9.40
  -7  -1   3   38.20   11.60
   7  -1  -3   52.19   11.00
  -7  -1   3   51.39    9.20
  -7  -1   3   55.79   12.30
  -7   1   3   50.19   11.70
   7   1  -3   56.89   14.40
  -6  -1   3    4.30   10.60
  -6  -1   3   -4.50    6.80
   6  -1  -3   10.20    9.20
  -6  -1   3   14.50    6.90
  -6   1   3   12.00    7.50
   6   1  -3   14.80    9.10
   5  -1  -3  161.28   22.20
  -5  -1   3  181.38   20.10
  -5  -1   3  131.79   21.10
  -5   1   3  152.08   21.10
   5   1  -3  157.28   22.90
  -5   1   3  203.38   20.50
  -4  -1   3 1238.18  144.59
  -4   1   3 1476.35  142.59
   4   1  -3 1370.06  142.49
  -4   1   3 1190.48  142.19
  -4   1   3 1298.57  142.09
   3  -1  -3  761.02   79.49
   3  -1  -3  717.83   80.29
  -3  -1   3  740.93   84.39
  -3  -1   3  689.43   79.49
   3   1  -3  742.23   79.79
  -3   1   3  794.12   79.79
  -3   1   3  658.83   79.19
   3   1  -3  722.93   84.29
  -3   1   3  761.12   79.59
  -3   1   3  721.93   79.09
  -2  -1   3  360.26   39.20
   2  -1  -3  360.06   40.20
   2  -1  -3  305.17   39.40
  -2   1   3  394.36   39.50
  -2   1   3  313.17   38.60
  -2   1   3  291.27   39.40
   2   1  -3  351.46   39.30
   2   1  -3  421.86   47.00
  -2   1   3  401.46   38.60
   1  -1  -3   59.09   16.40
   1  -1  -3   77.59   13.90
  -1  -1   3  103.39   11.90
  -1   1   3   94.09   14.50
  -1   1   3   77.69   11.60
  -1   1   3   98.59   10.30
   1   1  -3   78.39   10.30
  -1   1   3   57.99   13.90
   1   1  -3   85.59   12.10
   1   1  -3   95.39   15.00
   0  -1  -3  110.59   17.40
   0  -1   3  156.28   16.70
   0  -1   3  160.98   15.80
   0   1  -3  125.59   16.80
   0   1   3  161.68   19.60
   0   1   3  126.79   18.10
   0   1   3  132.49   17.70
   0   1  -3  123.29   15.30
   0   1   3  130.89   15.20
   0   1   3  129.09   15.90
   0   1  -3  136.19   17.00
  -1   1  -3   33.60    9.30
   2  -1   3  112.59   15.90
   2  -1   3   96.79   13.30
   2  -1   3   94.59   12.30
  -2   1  -3   97.99   14.70
  -2   1  -3   80.59   11.40
   2   1   3   88.99   13.60
   2   1   3  102.49   12.30
   2   1   3   90.79   18.00
  -2   1  -3   75.79   13.70
   3  -1   3   62.69   16.40
  -3  -1  -3   51.09   19.30
   3  -1   3   58.19   11.20
   3  -1   3   79.79   10.40
   3   1   3   73.29   13.00
  -3   1  -3   78.79   12.80
  -3   1  -3   65.69    9.20
  -3   1  -3   56.99   11.90
   3   1   3   81.09   10.80
   4  -1   3   69.99   10.50
   4  -1   3   72.79   16.10
  -4   1  -3   81.29   11.80
   4   1   3   56.79   13.80
  -4   1  -3   75.79    9.30
   4   1   3   77.79   11.60
  -4   1  -3   71.79   12.90
   5  -1   3   42.50   10.20
  -5  -1  -3   12.50   17.30
   5  -1   3   40.50    9.30
  -5  -1  -3   61.79   12.10
  -5   1  -3   47.50    6.80
   5   1   3   53.09   10.80
  -5   1  -3   41.40   10.90
  -5   1  -3   50.09    9.70
   5   1   3   34.40    8.20
   6  -1   3   42.20   11.50
  -6  -1  -3   53.59   11.90
   6  -1   3   25.30    5.80
  -6  -1  -3   30.30   17.30
   6   1   3   21.90    6.50
  -6   1  -3   12.90    7.60
  -6   1  -3   24.30    5.50
  -6   1  -3   30.60    8.00
  -7  -1  -3   57.89   12.70
   7  -1   3   77.59   13.00
  -7   1  -3   47.40    7.60
  -7   1  -3   46.50   12.50
   7   1   3   53.09    9.80
   8  -1   3  101.49   18.80
  -8  -1  -3   86.69   12.80
  -8  -1  -3   90.09   14.90
  -8   1  -3   87.99   15.70
   8   1   3   97.09   13.90
   9  -1   3   69.49   15.90
  -9  -1  -3   77.49   11.40
   9   1   3   64.89   12.70
  -9   1  -3   58.29   16.20
  10  -1   3    2.60    9.20
 -10  -1  -3   -8.20    9.80
 -10  -1  -3   -0.70    5.90
 -10   1  -3    2.00   10.80
  10   1   3   -1.50    7.20
  -8  -2   3   30.50    9.30
  -7  -2   3   94.19   16.10
   6  -2  -3   57.69   12.20
   6  -2  -3   86.39   13.90
  -6   2   3   84.09   10.50
   6   2  -3   70.49   15.20
  -6   2   3   61.09   15.70
  -6   2   3   93.69   12.10
   5  -2  -3   18.40    8.90
  -5  -2   3    6.10   13.80
   5   2  -3   14.20    6.90
   5   2  -3   18.60   20.50
  -5   2   3  -13.20   18.00
  -5   2   3    9.70    9.90
   4  -2  -3  200.38   26.80
   4  -2  -3  207.08   24.50
  -4  -2   3  247.88   25.10
  -4  -2   3  247.48   39.60
   4   2  -3  215.18   41.00
  -4   2   3  211.38   25.60
  -4   2   3  203.78   23.20
   4   2  -3  172.78   26.60
  -4   2   3  183.68   24.00
  -3  -2   3   59.89   20.20
  -3   2   3   46.80   13.60
  -3   2   3   84.99   11.70
   3   2  -3   69.69   11.90
  -3   2   3   75.89   10.00
   2  -2  -3   15.30    6.90
   2  -2  -3   20.70    8.20
  -2  -2   3   25.70    6.30
  -2  -2   3   47.20   21.50
  -2  -2   3   22.80    5.30
  -2   2   3    9.70    5.50
   2   2  -3   15.20    8.70
   2   2  -3    5.70    4.60
  -2   2   3   14.30   12.60
  -2   2   3    6.00    7.60
  -2   2   3   14.70    8.60
   2   2  -3   15.90    6.40
   2   2  -3   14.00   13.30
  -1  -2   3   81.49   12.40
   1  -2  -3   75.59   16.40
   1   2  -3   92.39   32.40
  -1   2   3  105.29   12.10
   1   2  -3   77.89   17.50
  -1   2   3   92.59   15.30
  -1   2   3  111.99   13.80
   1   2  -3   95.19   11.60
  -1   2   3   87.69   24.70
   0  -2   3  185.08   39.40
   0  -2   3  137.79   17.20
   0  -2   3  169.68   18.20
   0   2  -3  121.29   42.00
   0   2   3  165.58   18.80
   0   2   3  136.89   20.80
   0   2  -3  123.99   17.80
  -1  -2  -3  102.69   15.20
   1  -2   3   99.99   13.00
   1  -2   3   87.99   16.50
   1  -2   3   83.79   10.90
   1  -2   3   79.79   23.40
   1   2   3   60.49   14.70
   1   2   3   85.69   11.60
   1   2   3   90.79   18.60
  -1   2  -3   95.99   13.80
  -1   2  -3  119.59   35.90
  -1   2  -3   85.59   11.20
   1   2   3   89.39   11.70
   1   2   3   85.59   13.50
  -1   2  -3   78.99   13.60
   2  -2   3   54.49    8.30
   2  -2   3   67.79   15.00
   2  -2   3   66.59   12.00
   2   2   3   44.20    8.00
   2   2   3   49.90    8.50
  -2   2  -3   64.29   11.40
  -2   2  -3   44.00    8.20
   3  -2   3  189.38   19.60
   3  -2   3  180.58   20.70
  -3  -2  -3  167.48   20.00
   3  -2   3  162.78   22.50
  -3  -2  -3  185.58   30.10
   3   2   3  178.08   23.00
  -3   2  -3  204.18   45.00
  -3   2  -3  159.58   20.70
  -3   2  -3  152.98   19.40
   3   2   3  157.58   24.00
   4  -2   3  626.94   62.09
  -4  -2  -3  559.84   65.79
   4  -2   3  532.75   61.39
   4  -2   3  484.15   61.09
  -4   2  -3  630.94   61.69
   4   2   3  594.34   62.09
  -4   2  -3  574.74   60.89
  -4   2  -3  484.65   74.69
  -4   2  -3  540.25   61.39
   5  -2   3   42.80    8.60
   5  -2   3   54.39    9.50
   5   2   3   57.99   14.70
  -5   2  -3   43.10    9.70
  -5   2  -3   34.30   19.70
  -5   2  -3   44.00    7.50
  -5   2  -3   46.10   12.70
   6  -2   3   -7.00    8.80
  -6  -2  -3   -0.20    9.50
  -6  -2  -3   10.40    4.60
   6  -2   3    6.60    8.60
  -6   2  -3   13.90   16.40
   6   2   3    7.30    7.50
  -6   2  -3    8.80    6.60
  -6   2  -3   15.00    5.00
  -6   2  -3    7.70    8.80
  -8  -2  -3   74.89   12.90
   8  -2   3   49.50   11.90
   8  -2   3   39.70   12.00
  -8   2  -3   38.30   11.90
   8   2   3   53.69   14.20
   9  -2   3   21.30   12.80
  -9  -2  -3   23.90    6.40
  -9   2  -3    6.90   10.80
   9   2   3   19.40    9.50
  -6   3   3    3.40   15.10
   5  -3  -3   43.20   10.70
   5  -3  -3   33.40   10.70
  -5   3   3   38.00   11.30
  -5   3   3   47.10    9.60
   5   3  -3   62.59   13.30
   5   3  -3   40.10   10.00
   5   3  -3   58.69   24.30
   4  -3  -3   10.10    7.40
   4  -3  -3   25.60    9.30
  -4  -3   3   24.00    6.40
  -4  -3   3  -13.80   18.50
   4   3  -3   16.30    5.70
  -4   3   3    5.20    9.80
   4   3  -3    1.50    7.40
   4   3  -3   10.50   14.60
   4   3  -3   12.30    9.10
  -4   3   3   12.60    8.30
  -3  -3   3   42.00   19.90
   3  -3  -3   48.70   12.20
   3  -3  -3   82.59   16.30
  -3  -3   3   52.39   11.60
   3   3  -3   86.59   17.60
   3   3  -3   38.90   11.60
  -3   3   3   50.99   11.50
   3   3  -3   49.10    8.80
  -3   3   3   61.49    9.10
  -3   3   3   57.09   13.40
  -2  -3   3   30.50    6.90
   2  -3  -3   32.80    8.10
   2   3  -3   18.10    6.40
  -2   3   3   20.50    8.40
   2   3  -3   19.60    7.90
   2   3  -3   13.30   11.10
   2   3  -3   16.90   13.50
  -2   3   3   15.00    9.80
  -2   3   3   44.90    7.30
  -2   3   3   15.50   13.30
  -1  -3   3   21.10    9.20
  -1  -3   3   -3.30   25.20
   1  -3  -3   39.80    8.60
  -1   3   3   41.40    9.70
  -1   3   3   20.80   15.80
  -1   3   3   63.59   13.20
   1   3  -3   44.50    7.40
   1   3  -3   57.79   14.80
   1   3  -3   19.40   14.50
  -1   3   3   49.40    7.80
   1   3  -3   32.50    8.30
   0  -3  -3  113.09   15.90
   0  -3   3   99.59   14.60
   0  -3   3  123.99   27.10
   0   3  -3  123.99   33.90
   0   3  -3  117.39   13.30
   0   3   3   95.59   15.00
   0   3  -3  103.19   15.20
   0   3   3  120.39   13.70
   1  -3   3  314.97   33.30
   1  -3   3  329.07   35.80
  -1  -3  -3  334.17   34.10
   1  -3   3  265.87   55.59
   1   3   3  317.87   33.60
  -1   3  -3  305.47   33.60
   1   3   3  247.28   44.10
   1   3   3  318.47   32.80
   1   3   3  264.27   35.50
  -1   3  -3  258.57   32.70
  -1   3  -3  210.98   50.59
   2  -3   3   40.90    9.50
   2  -3   3   35.00   17.70
  -2  -3  -3   44.80   10.40
  -2   3  -3   28.60    9.10
   2   3   3   23.80   11.90
   2   3   3   34.40    8.50
   2   3   3   33.60   17.10
   2   3   3   35.80    7.90
  -2   3  -3   33.90    7.60
  -3  -3  -3   23.60   15.20
   3  -3   3   35.30   10.40
   3  -3   3   34.10    8.90
  -3  -3  -3   23.20    8.50
   3   3   3   23.30   11.90
  -3   3  -3   29.50   10.30
   3   3   3   45.20   11.00
   3   3   3   35.30    6.70
  -3   3  -3   34.80    7.50
  -4  -3  -3    1.40   13.90
   4  -3   3   22.20    8.50
  -4  -3  -3    5.20    5.80
   4  -3   3   16.30    8.20
   4   3   3   24.50    5.90
   4   3   3   15.80   10.00
   5  -3   3   33.60    9.80
  -5  -3  -3   56.39   10.80
   6   3   3    8.20    9.30
   7  -3   3  141.49   19.60
  -7   3  -3  110.09   19.50
   7   3   3  151.58   21.00
   8  -3   3   13.80    9.90
   5  -4  -3   33.10   10.80
  -5   4   3   15.20   12.40
   5   4  -3   14.80   12.70
  -5   4   3   33.20   10.50
   4   4  -3   24.00   12.40
   4   4  -3   46.50   11.40
  -4   4   3   24.40   14.40
   3  -4  -3   47.10   11.70
   3   4  -3   34.00   12.80
  -3   4   3   40.40   10.60
  -3   4   3    7.20   16.80
   3   4  -3   40.30   10.20
  -3   4   3   25.10   11.80
   2  -4  -3   78.89   19.50
   2   4  -3  104.49   14.00
   1  -4  -3  -14.00   30.90
  -1   4   3   10.10   14.60
  -1   4   3   57.89   14.80
  -1   4   3   28.90    9.60
   0   4   3   80.79   15.20
   0   4   3  111.39   38.10
   1  -4   3  139.49   24.80
   1   4   3  142.19   42.50
   2   4   3    6.90    9.80
  -2   4  -3   25.70    8.80
  -3   4  -3   26.60    7.10
   3   4   3   20.90   10.80
  -3   4  -3    1.20   10.40
   4  -4   3   33.50    9.90
  -4   4  -3   -7.10   11.50
   4   4   3   11.60   11.90
  -4   4  -3   19.90    7.90
   9   0  -4    1.40    7.50
  -9   0   4   13.30   12.30
   8   0  -4  307.57   36.50
  -8   0   4  305.57   36.60
  -8   0   4  299.87   44.20
  -8   0   4  367.86   36.50
  -7   0   4 1547.45  161.28
  -7   0   4 1557.54  161.48
  -7   0   4 1461.35  164.28
   7   0  -4 1398.56  161.28
  -6   0   4    8.50    7.40
  -6   0   4   -2.40   12.60
   6   0  -4    0.40    6.10
  -5   0   4  139.19   17.40
   5   0  -4  118.29   18.30
  -5   0   4  124.29   30.00
  -4   0   4   70.99   12.80
  -4   0   4   91.29   13.40
  -4   0   4   83.49   23.60
   4   0  -4   56.39   14.60
  -3   0   4  599.54   58.49
  -3   0   4  480.45   58.39
   3   0  -4  521.95   59.69
  -3   0   4  528.65   60.39
  -2   0   4   61.99    9.00
  -2   0   4   59.39   10.70
  -1   0   4   48.10    8.40
   1   0  -4   40.10    7.60
  -1   0   4   64.69   10.50
   1   0  -4   37.50    8.20
   0   0  -4    2.10    4.50
   0   0   4   18.90    7.90
   0   0   4   10.30    4.00
   0   0   4    5.50    4.60
   1   0   4  431.56   44.50
   1   0   4  367.16   42.70
   1   0   4  426.06   42.70
  -1   0  -4  406.06   42.90
  -1   0  -4  334.17   42.50
   2   0   4   33.10    8.60
   2   0   4   48.00    9.00
  -2   0  -4   39.60    5.90
   2   0   4   65.59   15.00
  -3   0  -4  176.18   20.50
   3   0   4  139.49   19.70
   3   0   4  174.18   19.70
   4   0   4 1014.70  102.69
  -4   0  -4  925.51  103.09
   4   0   4  903.01  102.69
  -5   0  -4    1.90    8.30
   5   0   4   15.80    4.90
   5   0   4   -3.70    6.50
   6   0   4   87.59   13.40
  -6   0  -4   59.79   13.90
   7   0   4  329.97   37.30
   7   0   4  383.06   36.80
  -7   0  -4  267.97   37.10
   8   0   4  259.17   26.70
  -8   0  -4  184.08   26.50
  -9   0  -4    2.20    9.20
   9   0   4    7.90    8.60
  -9   0  -4    3.50    5.30
 -10   0  -4   13.00   10.40
 -10   0  -4   16.50    5.70
  10   0   4   16.40    9.80
 -10  -1   4  130.09   20.70
  10  -1  -4  143.69   21.10
 -10   1   4  105.29   22.50
  10   1  -4  152.78   19.90
  -8  -1   4   19.90    7.50
   8  -1  -4   -7.50   11.60
   8   1  -4    5.80    9.10
  -8   1   4    6.70    9.50
  -7  -1   4   96.09   14.90
   7  -1  -4  116.59   17.70
  -7  -1   4   75.69   26.20
   7   1  -4  113.29   17.00
  -7   1   4   77.59   16.00
  -6  -1   4   56.69   12.70
   6  -1  -4   58.69   11.90
  -6  -1   4   76.99   10.30
  -6   1   4   81.99    9.30
  -6   1   4   57.79   14.10
   6   1  -4   72.89   11.90
  -5  -1   4   86.69   14.20
  -5  -1   4  102.69   12.50
  -5   1   4  110.59   11.90
  -5   1   4  118.59   13.60
  -5   1   4   73.19   17.00
  -5   1   4   66.29   15.90
   5   1  -4   78.99   13.60
  -4  -1   4  526.65   58.89
  -4  -1   4  525.45   64.89
   4  -1  -4  563.44   58.79
  -4   1   4  524.95   58.59
   4   1  -4  538.95   59.19
  -4   1   4  578.94   58.99
  -4   1   4  510.75   58.29
  -4   1   4  521.15   59.29
   3  -1  -4  244.28   31.10
   3  -1  -4  248.08   32.70
  -3  -1   4  328.37   42.70
  -3  -1   4  287.67   31.00
   3   1  -4  259.87   38.30
  -3   1   4  296.57   30.80
  -3   1   4  280.97   31.70
  -3   1   4  269.17   31.70
   2  -1  -4  102.99   16.50
   2  -1  -4   99.89   14.90
  -2   1   4   94.79   12.40
   2   1  -4  132.39   32.00
  -2   1   4  110.29   11.90
   2   1  -4   69.69   13.50
  -2   1   4   79.99   14.10
   1  -1  -4  433.16   49.80
  -1  -1   4  441.06   49.50
  -1  -1   4  495.35   49.30
   1  -1  -4  416.16   50.89
  -1   1   4  419.66   50.69
   1   1  -4  442.56   49.00
   1   1  -4  436.66   49.50
  -1   1   4  442.46   49.20
   1   1  -4  537.65   62.19
  -1   1   4  455.05   49.10
   1   1  -4  481.45   49.70
   0  -1   4  458.15   57.89
   0  -1   4  371.16   40.90
   0  -1  -4  376.56   41.50
   0  -1   4  386.26   41.20
   0   1   4  376.76   40.70
   0   1  -4  371.56   40.60
   0   1   4  344.17   42.30
   0   1   4  334.17   40.80
   0   1  -4  389.46   41.30
   1  -1   4  730.63   75.49
   1  -1   4  656.83   75.39
  -1  -1  -4  588.94   75.59
   1  -1   4  707.63   75.19
   1   1   4  689.13   75.99
  -1   1  -4  748.93   75.59
  -1   1  -4  656.03   75.49
  -1   1  -4  694.23   74.99
   1   1   4  772.32   76.29
   1   1   4  634.14   75.09
  -1   1  -4  786.52   86.59
   1   1   4  699.43   75.09
   2  -1   4   44.60   11.30
   2  -1   4   46.70    9.40
   2  -1   4   33.30    7.60
   2   1   4   73.59   17.10
  -2   1  -4   37.40    9.80
  -2   1  -4   31.50   16.50
  -2   1  -4   65.99   13.20
  -2   1  -4   32.50    6.70
   2   1   4   59.39   12.80
   2   1   4   32.60    6.70
   3  -1   4   80.19   10.90
   3  -1   4   60.89   10.20
   3   1   4   55.99   10.40
   3   1   4   91.39   16.50
  -3   1  -4   61.49    8.90
   3   1   4   88.19   12.70
  -3   1  -4   74.39   11.40
  -3   1  -4   42.70   12.90
   4  -1   4  231.38   26.30
   4  -1   4  259.17   28.70
  -4   1  -4  214.88   25.70
   4   1   4  225.28   26.40
   4   1   4  219.08   26.80
  -4   1  -4  249.18   27.40
  -5  -1  -4    6.80    7.90
   5  -1   4    6.70    8.70
   5  -1   4    9.60    4.60
   5   1   4   10.80    7.00
  -5   1  -4   12.90    6.20
  -5   1  -4   14.00    4.40
  -5   1  -4   -1.40    9.60
  -5   1  -4   13.00    7.50
   5   1   4   17.30    5.10
   6  -1   4   24.20   10.20
  -6  -1  -4   14.80   17.20
  -6  -1  -4   17.30    8.50
   6  -1   4   24.80    5.40
  -6   1  -4   11.90    9.90
   6   1   4   10.90    6.40
  -6   1  -4   16.00    7.80
   7  -1   4   42.80   14.90
   7  -1   4   18.30    6.70
  -7  -1  -4   35.70    9.60
  -7   1  -4   28.70    8.70
   7   1   4   21.50    7.10
  -7   1  -4   45.70    8.00
   8  -1   4   39.70   10.40
  -8  -1  -4   57.59   13.00
  -8   1  -4   45.10   12.50
  -8   1  -4   27.50   10.90
   8   1   4   60.29   12.50
   9  -1   4   93.19   16.50
  -9  -1  -4   76.69   16.50
  -9  -1  -4   89.39   13.60
   9   1   4   97.79   15.10
  -9   1  -4  121.99   14.50
  -9   1  -4   80.79   16.50
  -9  -2   4   23.50    9.00
  -9   2   4    4.00   11.40
   8  -2  -4   13.00    9.60
   8  -2  -4    0.70    9.80
  -8   2   4    0.70   10.80
  -8   2   4   12.80   21.60
  -8   2   4   20.40    9.40
   8   2  -4   14.10    8.30
   7  -2  -4    9.60    7.80
  -7  -2   4    9.90   15.10
   7  -2  -4   12.80    9.10
  -7   2   4   23.10   10.80
  -7   2   4    8.40    9.20
  -7   2   4   19.70    6.50
  -7   2   4   13.40   30.70
   7   2  -4   24.90    8.80
  -7   2   4   19.10    6.00
  -6  -2   4    3.40   14.70
   6  -2  -4    0.80    8.50
   6  -2  -4    2.50    7.50
   6   2  -4    6.90    8.50
  -6   2   4    6.60    9.80
  -6   2   4    4.90    5.70
  -6   2   4    2.70    6.20
  -5  -2   4   16.40   15.40
   5  -2  -4   31.80    9.70
   5  -2  -4   37.50    9.80
  -5   2   4   39.30   10.10
   5   2  -4   30.80    8.10
  -5   2   4   27.60   10.40
   5   2  -4   37.90   20.50
  -5   2   4   37.50    7.60
   4  -2  -4   55.79   11.20
   4  -2  -4   71.69   15.60
  -4  -2   4   52.39   20.50
  -4   2   4   52.29   11.10
  -4   2   4   35.60   10.90
  -4   2   4   63.29    9.00
   4   2  -4   65.69   15.00
   3  -2  -4  448.86   45.40
  -3  -2   4  464.15   60.29
   3  -2  -4  405.66   46.60
  -3  -2   4  400.66   44.90
   3   2  -4  397.36   52.09
  -3   2   4  400.26   45.30
  -3   2   4  393.96   45.90
  -3   2   4  382.06   44.60
   2  -2  -4   36.30   10.10
  -2  -2   4   66.09   23.30
  -2  -2   4   57.59    9.70
   2  -2  -4   48.40   11.20
  -2   2   4   22.50   11.10
   2   2  -4   25.00   16.30
   2   2  -4   37.80    6.80
   2   2  -4   37.40   10.70
   2   2  -4   21.60   10.00
  -2   2   4   41.90    8.20
  -2   2   4   44.50    7.10
  -1  -2   4  199.78   59.09
  -1  -2   4  185.48   19.40
   1  -2  -4  130.99   21.70
   1   2  -4  163.58   37.20
  -1   2   4  182.98   19.30
  -1   2   4  162.88   22.40
   1   2  -4  137.29   25.70
   0  -2  -4    4.60    7.70
   0  -2   4   17.40    4.50
   0  -2   4   12.60    6.40
   0   2   4   26.00    9.60
   0   2   4    3.80    7.30
   0   2   4   10.90   11.30
   0   2  -4   42.90   16.90
   0   2   4   36.10   11.10
   0   2   4   13.30    3.30
   0   2   4   10.50    6.00
   0   2  -4    8.30    6.80
   0   2  -4    7.20    4.70
   1  -2   4   79.39   13.60
   1  -2   4  113.99   18.20
   1  -2   4  110.39   11.90
   1  -2   4   56.69   24.80
  -1  -2  -4   93.49   14.60
  -1   2  -4  108.39   13.40
   1   2   4   91.19   14.90
   1   2   4   61.19   19.80
  -1   2  -4   72.19   14.20
   1   2   4   79.29   12.90
   1   2   4  113.69   18.80
  -1   2  -4   92.79   11.60
   1   2   4  102.29   12.00
   1   2   4  116.09   19.30
  -1   2  -4  154.18   37.10
   2  -2   4  197.38   22.20
   2  -2   4  167.68   24.50
   2  -2   4  200.28   21.10
   2   2   4  204.78   21.10
   2   2   4  183.88   21.30
  -2   2  -4  192.08   22.70
  -2   2  -4  186.78   62.09
   2   2   4  145.59   25.10
  -2   2  -4  152.58   22.30
  -2   2  -4  204.28   20.90
   3  -2   4   72.39   12.30
   3  -2   4   35.60   10.60
   3  -2   4   51.89    8.50
   3   2   4   72.79   17.20
   3   2   4   56.59    9.40
  -3   2  -4   67.49   11.20
  -3   2  -4   37.90    8.00
  -3   2  -4   35.50   10.70
   3   2   4   49.10   13.00
   4  -2   4  441.36   53.59
  -4  -2  -4  503.65   58.39
   4  -2   4  493.05   53.19
   4  -2   4  523.75   54.19
  -4   2  -4  479.05   52.99
   4   2   4  535.45   53.49
   4   2   4  506.85   54.49
  -4   2  -4  392.66   66.99
  -4   2  -4  526.35   53.89
  -4   2  -4  443.46   53.69
   5  -2   4  120.09   15.60
   5  -2   4  115.49   14.60
   5  -2   4   82.39   18.00
  -5  -2  -4   96.09   25.80
   5   2   4  118.99   18.60
  -5   2  -4  136.39   15.80
  -5   2  -4  127.79   13.90
  -5   2  -4  111.29   16.90
  -6  -2  -4    7.40   12.50
   6  -2   4   -5.80    8.90
   6  -2   4   -0.80    4.60
   6  -2   4    5.00    8.70
  -6   2  -4   11.20    6.10
   6   2   4    1.90    7.30
  -6   2  -4   10.10    5.30
  -6   2  -4   21.20   16.20
  -6   2  -4    4.00    8.30
   7  -2   4   22.20    9.80
  -7  -2  -4   21.50    6.60
   7  -2   4    8.20    8.20
  -7   2  -4   17.10    9.80
  -7   2  -4   25.80    9.80
   8  -2   4   20.30   10.70
  -8  -2  -4   17.90    5.40
   8  -2   4    6.90    8.90
  -8   2  -4   22.80    9.90
   8   2   4   12.40    8.40
  -8   2  -4   15.70   10.40
  -9  -2  -4   20.30    6.80
   9  -2   4   22.60   14.70
   9   2   4    4.90    8.40
  -9   2  -4    3.00   11.30
   7  -3  -4   18.40    9.50
   7   3  -4   30.80    9.80
  -7   3   4    9.10   10.90
  -5  -3   4    6.50    6.80
   5  -3  -4   12.60   10.60
   5  -3  -4    1.80   10.20
   5   3  -4    7.10    8.10
  -5   3   4    4.80   10.80
  -5   3   4   10.40    9.00
   5   3  -4   13.20   25.00
  -4  -3   4  -13.30   18.10
   4  -3  -4   14.00    8.00
   4  -3  -4   24.90    9.90
   4   3  -4   10.80    9.30
  -4   3   4   12.00    8.50
   4   3  -4   13.60    7.50
   4   3  -4   19.00    5.80
  -4   3   4   14.00    7.00
  -4   3   4   17.20    9.90
   4   3  -4   15.80   13.20
  -3  -3   4   23.00   20.20
   3  -3  -4   42.40   11.80
  -3  -3   4   42.50    9.50
   3  -3  -4   67.89   16.80
  -3   3   4   53.49   10.20
   3   3  -4   53.39   11.00
  -3   3   4   50.19   13.60
  -3   3   4   33.60    9.70
   3   3  -4   70.89   17.50
   3   3  -4   46.20    8.30
   2  -3  -4  155.88   18.20
  -2   3   4  115.89   19.40
   2   3  -4  159.28   16.20
  -2   3   4  148.19   16.80
   2   3  -4  120.99   22.90
  -2   3   4  143.89   17.90
   2   3  -4  117.69   17.90
  -2   3   4  104.69   29.50
  -1  -3   4   96.19   16.90
   1  -3  -4  123.29   14.80
   1  -3  -4   82.89   17.40
   1   3  -4  100.89   17.90
  -1   3   4  111.59   13.10
  -1   3   4  114.79   17.80
  -1   3   4   68.79   25.60
   1   3  -4  117.49   14.50
   1   3  -4   83.39   13.00
   0  -3   4  195.88   50.99
   0  -3  -4  150.88   20.60
   0   3   4  151.68   20.50
   0   3  -4  191.18   19.10
   1  -3   4  135.09   48.60
   1  -3   4  136.49   17.50
   1   3   4  131.89   15.80
   1   3   4  185.38   41.20
   1   3   4  121.29   17.40
  -1   3  -4  121.79   15.60
   1   3   4  131.89   20.50
  -2  -3  -4   57.49   10.50
   2  -3   4   36.80   10.80
  -2   3  -4   42.60   18.50
  -2   3  -4   61.89    8.50
   2   3   4   54.89   12.30
  -2   3  -4   50.69   10.60
   2   3   4   77.09    9.00
  -2   3  -4   55.19   12.20
   3  -3   4  148.99   34.80
  -3  -3  -4  136.49   31.00
   3  -3   4   99.99   19.40
  -3  -3  -4  108.89   14.70
   3   3   4   76.49   20.80
  -3   3  -4  121.59   14.70
   3   3   4   83.49   13.20
  -3   3  -4  104.29   12.90
   4  -3   4   45.60   10.40
  -4  -3  -4   27.80   14.90
   4   3   4   35.90   11.10
   4   3   4   46.60    8.00
  -4   3  -4   11.80    9.40
  -4   3  -4   51.29    7.40
  -4   3  -4   28.70    9.60
   5  -3   4   76.29   16.40
  -5  -3  -4  111.49   14.90
   5   3   4   89.29   17.70
  -6  -3  -4   24.50    8.40
   6  -3   4    8.60    9.40
   6   3   4   11.00    9.30
  -6   3  -4   -1.60    9.40
   7  -3   4   94.49   16.20
   7   3   4   71.19   17.10
  -7   3  -4   55.79   12.30
   5  -4  -4   23.10   10.70
  -5   4   4   13.20   12.70
   5   4  -4   17.40   12.90
   4  -4  -4   43.90   11.30
   4   4  -4   27.80   11.30
   4   4  -4   33.80   12.90
  -4   4   4   13.20   12.10
   4   4  -4   48.80   11.80
   3  -4  -4   18.90   10.80
   3   4  -4    3.80   10.10
   3   4  -4    5.60    7.30
  -3   4   4   10.20   12.40
   2  -4  -4   36.00   11.80
  -2   4   4   10.40   14.20
  -2   4   4    7.50   10.10
  -2   4   4   16.30   13.00
   1  -4  -4  -30.70   30.10
  -1   4   4   24.30   15.40
   1   4  -4   18.40    6.70
  -1   4   4   26.60   11.90
   0  -4  -4   12.90    8.10
   0   4  -4    9.80    8.30
   0   4   4    4.20   10.60
   0   4   4   28.70   15.80
   2   4   4   15.30    7.70
  -2   4  -4   13.70    6.90
   3  -4   4   47.80   12.10
   3   4   4   14.10   11.00
  -3   4  -4   19.20    6.60
   4  -4   4   26.10   10.30
   4   4   4   17.20   12.80
   4   4   4   11.20    9.10
  -4   4  -4    9.00   10.40
  10   0  -5    1.30    7.70
 -10   0   5   -3.70   10.30
  -9   0   5   88.59   15.90
  -9   0   5   76.49   23.20
   9   0  -5   92.19   14.90
  -8   0   5    1.50    9.10
  -8   0   5    6.00   11.80
   8   0  -5    7.60    6.70
   7   0  -5 1381.06  148.69
  -7   0   5 1459.65  148.69
  -7   0   5 1393.66  148.89
  -7   0   5 1259.17  151.18
   6   0  -5   40.20    7.80
  -6   0   5   50.59   12.40
  -6   0   5   57.89    8.50
  -6   0   5   29.30   10.50
  -5   0   5   18.80    5.90
   5   0  -5    8.80    6.80
  -5   0   5   12.10   12.50
  -5   0   5    3.20    8.70
  -4   0   5   37.50   10.30
  -4   0   5   36.50    9.90
   4   0  -5   35.20    7.40
  -3   0   5  427.26   47.30
   3   0  -5  424.46   47.20
  -2   0   5  337.27   39.30
  -2   0   5  374.26   40.50
   1   0  -5   86.99   13.20
  -1   0   5  116.39   13.20
  -1   0   5  112.59   16.00
   0   0  -5  112.79   13.90
   0   0   5   83.39   13.10
   0   0   5  117.39   14.10
   1   0   5  603.24   62.39
  -1   0  -5  580.84   62.19
   1   0   5  550.34   62.29
  -1   0  -5  631.34   62.59
   1   0   5  497.05   63.99
   2   0   5    1.90    4.60
   2   0   5   -0.60   13.50
   2   0   5   -2.20    5.50
   3   0   5  804.42   78.49
   3   0   5  641.54   78.39
  -4   0  -5  813.82   86.39
   4   0   5  786.82   85.89
   4   0   5  773.82   85.89
  -5   0  -5  615.24   66.49
   5   0   5  605.34   65.49
   5   0   5  584.04   65.69
   6   0   5  383.86   42.80
  -6   0  -5  345.37   43.50
   6   0   5  416.36   42.40
  -7   0  -5   97.39   16.60
   7   0   5   92.29   14.50
   7   0   5  118.19   15.90
   8   0   5  111.49   16.20
   8   0   5   76.59   14.70
   9   0   5   18.10    9.10
  -9   0  -5   11.20   10.20
 -10  -1   5  126.29   19.80
  10  -1  -5  108.59   19.90
  10   1  -5  132.39   18.70
 -10   1   5  116.49   19.30
  -9  -1   5   26.40    7.60
   9   1  -5    6.80    9.10
  -9   1   5    5.00   10.20
  -8  -1   5   61.29   14.70
   8  -1  -5   94.79   14.60
   8   1  -5   74.69   16.50
  -8   1   5   70.19   15.00
  -7  -1   5  186.18   20.10
   7  -1  -5  138.79   21.90
  -7  -1   5  125.99   30.80
  -7  -1   5  180.58   20.30
   7   1  -5  134.19   22.00
  -7   1   5  144.99   21.20
  -6  -1   5  133.69   16.70
  -6  -1   5  103.79   17.20
  -6  -1   5  127.59   29.50
   6  -1  -5  109.89   19.00
   6   1  -5  124.39   19.50
  -6   1   5  119.79   18.10
  -6   1   5  127.49   14.30
  -5  -1   5  421.66   46.00
   5  -1  -5  405.46   46.40
  -5  -1   5  390.36   46.00
  -5   1   5  439.46   45.60
   5   1  -5  356.56   59.29
   5   1  -5  433.66   46.60
  -5   1   5  417.16   46.40
  -5   1   5  422.96   45.20
  -4  -1   5   20.00   13.20
   4  -1  -5    4.60   10.50
   4  -1  -5   -2.20    6.10
  -4   1   5    7.10    5.20
  -4   1   5   10.80    8.40
   4   1  -5    6.60   16.30
  -4   1   5   14.90    5.80
   4   1  -5    8.20    6.40
  -3  -1   5  398.86   46.30
   3  -1  -5  415.26   47.20
  -3   1   5  349.17   46.00
   3   1  -5  489.25   52.39
  -3   1   5  426.46   46.20
  -3   1   5  470.25   47.00
  -2  -1   5  895.61   91.79
   2  -1  -5  943.21   91.59
   2  -1  -5  861.81   91.79
  -2  -1   5  781.92   98.19
  -2   1   5  829.62   91.19
   2   1  -5  791.82   91.09
   2   1  -5  790.72   91.29
  -2   1   5  790.42   91.99
  -2   1   5  871.61   91.19
   2   1  -5  872.91   96.19
   1  -1  -5  170.58   24.80
  -1  -1   5  224.18   24.30
  -1  -1   5  200.88   25.10
   1  -1  -5  224.18   25.10
   1   1  -5  235.28   24.40
   1   1  -5  220.98   24.70
   1   1  -5  195.28   23.30
   1   1  -5  251.67   41.90
   0  -1   5  444.86   46.50
   0  -1  -5  358.16   47.00
   0  -1   5  525.95   62.29
   0  -1  -5  427.66   47.10
   0  -1   5  386.36   46.90
   0   1   5  480.05   46.40
   0   1  -5  399.06   46.90
   0   1   5  443.36   46.90
   0   1   5  419.26   46.40
   1  -1   5  278.87   31.20
   1  -1   5  249.97   31.70
   1  -1   5  316.97   32.00
   1   1   5  228.18   30.90
  -1   1  -5  272.97   30.80
  -1   1  -5  266.57   31.80
   1   1   5  296.57   33.00
   1   1   5  326.37   32.90
   1   1   5  308.77   31.20
   2  -1   5   32.10    7.60
   2  -1   5   49.40    9.90
   2   1   5   51.39   15.10
   2   1   5   37.90    8.30
   2   1   5   42.10    8.60
  -2   1  -5   43.40    6.80
  -2   1  -5   -1.90   22.00
  -2   1  -5   47.20   10.10
  -2   1  -5   34.80    8.90
   2   1   5   35.40    7.30
   3  -1   5  162.08   19.00
   3  -1   5  105.69   25.50
  -3   1  -5  144.69   21.40
   3   1   5  128.89   20.30
  -3   1  -5  196.08   19.40
  -3   1  -5  184.68   18.10
   3   1   5  145.39   19.10
   4  -1   5   50.59    9.40
   4  -1   5   32.50    9.60
   4   1   5   21.80    7.80
   4   1   5   42.50    8.20
  -4   1  -5   33.40    9.60
  -5  -1  -5   22.70    8.50
   5  -1   5   32.80    9.00
   5  -1   5   36.50    8.80
   5   1   5   26.40    7.70
  -5   1  -5   40.10    9.20
   5   1   5   39.00    9.10
  -5   1  -5   36.40    7.10
   6  -1   5   80.09   19.30
   6  -1   5   72.99   11.50
  -6  -1  -5   69.79   15.40
   6   1   5   72.19   11.50
  -6   1  -5   66.29   13.30
   6   1   5   74.09   12.70
  -6   1  -5   72.09   21.00
  -7  -1  -5   70.79   14.60
   7  -1   5   44.60   10.90
   7  -1   5   76.39   15.80
  -7   1  -5   45.50   12.10
   7   1   5   49.70   12.10
   7   1   5   61.39   11.80
  -7   1  -5   54.59   12.60
  -7   1  -5   61.29    9.00
   8  -1   5    5.40    8.70
   8  -1   5   -0.60    6.60
  -8  -1  -5   12.60   10.00
  -8   1  -5    4.80    8.00
  -8   1  -5    4.70    8.70
  -9  -1  -5   48.70   14.10
  -9  -1  -5   57.69   10.80
   9  -1   5   63.09   15.30
   9   1   5   53.79   13.00
  -9   1  -5   52.19   14.70
   9  -2  -5   -4.40    9.90
   9   2  -5    8.10    8.20
  -9   2   5    0.00   10.70
   8  -2  -5    6.30   10.60
   8  -2  -5   -3.10    9.70
   8   2  -5    4.60    8.30
  -8   2   5    8.40    6.40
  -8   2   5    6.70   10.10
   7  -2  -5   50.59   11.90
   7  -2  -5   35.10   10.00
  -7   2   5   30.10   10.80
   7   2  -5   40.50    9.60
   6  -2  -5   68.69   15.80
  -6  -2   5   62.09   22.90
   6  -2  -5   81.39   13.60
  -6   2   5   94.79   11.50
   6   2  -5   91.29   15.30
  -6   2   5   75.99   14.80
  -6   2   5   98.69   13.60
   5  -2  -5  153.48   20.40
  -5  -2   5  183.98   21.10
  -5   2   5  181.48   21.80
   5   2  -5  164.78   41.70
  -5   2   5  161.08   19.50
   4  -2  -5   36.60    8.00
  -4  -2   5   62.19   21.80
   4  -2  -5   66.49   15.60
   4   2  -5   25.80   12.40
  -4   2   5   39.90   10.60
   4   2  -5   41.90    9.40
  -4   2   5   37.60    8.40
  -4   2   5   38.40   10.60
  -3  -2   5  707.93   80.79
   3  -2  -5  775.12   80.99
   3  -2  -5  729.03   81.59
  -3  -2   5  851.31   88.79
  -3   2   5  773.62   81.39
   3   2  -5  737.83   81.69
  -3   2   5  685.93   80.49
  -3   2   5  699.53   80.99
   3   2  -5  754.02   85.29
  -2  -2   5   37.50   19.40
   2  -2  -5   19.90    9.60
  -2  -2   5   12.90    4.70
   2   2  -5    1.90    8.70
   2   2  -5    3.80   14.40
  -2   2   5    0.10    9.50
  -2   2   5   10.60    6.10
   1  -2  -5   68.69   15.10
   1  -2  -5  107.09   15.70
   1   2  -5   80.39   10.70
  -1   2   5   94.09   10.20
   1   2  -5   62.09   13.00
  -1   2   5   66.19   14.20
  -1   2   5   89.79   11.60
  -1   2   5  137.19   26.40
   1   2  -5  114.29   27.20
   0  -2   5  127.59   16.30
   0  -2  -5  140.29   17.20
   0  -2   5  133.39   15.60
   0   2   5  126.09   15.50
   0   2  -5  122.29   16.80
   0   2  -5  126.39   15.00
   0   2   5  125.29   19.00
   0   2   5  126.49   14.90
   0   2  -5  186.18   48.40
   0   2   5   95.69   35.00
   1  -2   5  437.06   47.50
  -1  -2  -5  471.85   47.70
   1  -2   5  429.36   47.10
   1  -2   5  436.56   49.50
   1   2   5  458.35   49.20
  -1   2  -5  392.96   63.59
   1   2   5  427.06   47.00
  -1   2  -5  435.86   46.90
  -1   2  -5  414.26   47.70
   1   2   5  390.56   48.30
  -1   2  -5  465.95   48.60
   1   2   5  403.96   47.00
   2  -2   5  364.46   48.90
   2  -2   5  445.06   47.90
   2   2   5  451.95   47.30
  -2   2  -5  382.16   59.89
  -2   2  -5  435.76   48.10
   2   2   5  463.35   47.40
   2   2   5  459.55   49.30
  -2   2  -5  456.45   47.30
   2   2   5  398.46   49.80
  -2   2  -5  451.55   47.90
   3  -2   5  298.97   31.40
   3  -2   5  266.97   33.40
  -3  -2  -5  308.97   38.70
   3  -2   5  242.08   31.80
  -3   2  -5  280.37   31.10
  -3   2  -5  325.27   32.20
   3   2   5  293.97   31.50
  -3   2  -5  296.27   49.40
  -3   2  -5  248.38   32.20
   3   2   5  282.67   32.90
   4  -2   5  401.16   48.10
   4  -2   5  458.55   48.90
   4   2   5  493.35   49.10
   4   2   5  419.36   47.90
  -4   2  -5  446.16   47.60
  -4   2  -5  436.46   48.40
  -4   2  -5  386.66   62.29
  -5  -2  -5   40.40   13.50
   5  -2   5   35.50    7.70
   5  -2   5   38.10    9.10
  -5   2  -5   32.60   18.80
   5   2   5   58.49   13.70
   5   2   5   39.40    6.50
  -5   2  -5   28.60    6.50
  -6  -2  -5    7.90   12.70
   6  -2   5   23.20    5.20
  -6  -2  -5   21.10    8.30
   6  -2   5    8.20    9.00
  -6   2  -5    9.60    8.70
  -6   2  -5   18.90   16.30
   6   2   5    8.30    8.50
   7  -2   5   -6.20   10.30
   7  -2   5    0.40   10.50
   7  -2   5   -9.20    6.00
  -7   2  -5    1.90    5.60
  -7   2  -5    2.50    8.70
   7   2   5   -4.00    7.60
  -7   2  -5    4.30    9.50
   8  -2   5   22.00   12.00
  -8  -2  -5   11.60    5.00
   8  -2   5    3.10    8.30
  -8   2  -5   20.30   10.40
  -8   2  -5    8.30   10.30
   8   2   5    5.70    7.50
   8  -3  -5   29.60   10.00
  -8   3   5   14.60   14.40
   8   3  -5   41.30   10.60
   7  -3  -5   -1.50    9.10
   7   3  -5    0.70   10.20
  -7   3   5    9.60    9.50
  -7   3   5    4.40   10.90
  -6  -3   5   -5.40    6.30
   6  -3  -5    6.70    9.50
  -6   3   5    6.10    8.50
   6   3  -5    8.60    9.70
  -6   3   5    9.50   11.20
  -5  -3   5   10.40    7.80
   5  -3  -5    9.20   14.00
  -5   3   5    7.00   10.20
   5   3  -5    9.10    8.90
  -5   3   5   16.50    9.20
   4  -3  -5    6.40    8.70
   4  -3  -5   10.50    9.10
   4   3  -5    2.00    9.20
  -4   3   5    2.90   10.20
   4   3  -5    3.50    6.90
  -4   3   5    1.10    6.50
  -4   3   5   -0.20    6.20
   4   3  -5    3.00   11.30
   4   3  -5    2.80    5.60
  -3  -3   5   -2.50    6.70
   3  -3  -5    3.30    6.50
   3  -3  -5   17.70   10.10
   3   3  -5    3.60   12.40
  -3   3   5    1.50    6.00
   3   3  -5    6.30    7.00
  -3   3   5   -1.10    6.50
   3   3  -5    0.20    5.30
  -3   3   5    2.40    9.90
   3   3  -5   12.90   10.60
   2  -3  -5  102.29   20.70
  -2  -3   5  116.79   17.70
   2  -3  -5  158.38   17.90
   2   3  -5   97.09   22.10
   2   3  -5  123.39   16.10
   2   3  -5  154.58   17.40
  -2   3   5  140.89   19.00
  -2   3   5  161.28   16.40
   1  -3  -5   80.39   15.10
   1  -3  -5   41.10   12.60
  -1   3   5   38.90   13.30
  -1   3   5   63.99   12.00
  -1   3   5   67.09   10.00
   1   3  -5   70.59    9.00
   1   3  -5   60.59   11.20
   0  -3   5  409.96   70.19
   0  -3  -5  438.06   48.50
   0  -3   5  394.96   48.50
   0  -3  -5  441.46   55.39
   0   3   5  483.35   47.70
   0   3  -5  375.86   48.20
   0   3   5  507.95   49.40
   0   3  -5  423.36   47.60
   0   3  -5  434.16   63.09
   0   3   5  449.95   48.90
   1  -3   5  290.07   29.90
  -1  -3  -5  248.88   29.10
   1  -3   5  307.87   52.09
   1   3   5  241.28   29.50
  -1   3  -5  234.18   28.00
   1   3   5  289.77   31.20
  -1   3  -5  218.88   29.00
   1   3   5  257.47   28.20
   1   3   5  272.47   30.20
  -1   3  -5  179.38   48.60
   2  -3   5  130.99   15.20
  -2  -3  -5  149.99   16.80
   2  -3   5  162.58   22.10
   2  -3   5  149.49   38.30
   2  -3   5  109.69   17.30
   2   3   5  119.39   15.40
  -2   3  -5  133.49   15.30
   2   3   5   79.49   21.70
   3  -3   5    2.10    7.10
   3  -3   5   19.70    9.40
   3   3   5    7.10    5.70
  -3   3  -5   16.90    6.60
  -3   3  -5    7.70    5.70
   3   3   5    8.30   12.00
   4  -3   5    9.90    9.50
  -4  -3  -5   16.40   14.50
   4   3   5    5.40    5.90
  -4   3  -5   10.50    6.70
  -4   3  -5   -7.70    9.30
   4   3   5    1.80   10.40
  -5  -3  -5   23.90    6.30
   5  -3   5   40.00    9.70
  -5   3  -5   15.60    9.90
   5   3   5   27.40   10.30
   6  -3   5   -2.20    9.10
  -6  -3  -5    5.00    5.70
  -6   3  -5   -7.50   10.00
   6   3   5    4.90    9.10
  -6   3  -5    8.90    6.30
   7  -3   5    1.10    9.90
  -7   3  -5   -9.40    9.90
   7   3   5    1.70    9.80
  -7   3  -5    0.30    6.20
   5  -4  -5    4.00   10.90
   5   4  -5    4.30   12.50
  -5   4   5   11.80   11.90
   4  -4  -5   17.40   10.90
   4   4  -5    9.80   12.00
   4   4  -5    6.20    8.50
  -4   4   5    7.50   12.20
  -4   4   5   23.80   10.60
   3  -4  -5   40.80   12.20
  -3   4   5   19.00   13.20
  -3   4   5   13.70   10.80
   3   4  -5    1.50   10.40
   2  -4  -5   21.70   11.20
  -2   4   5    2.20    7.30
   2   4  -5    0.10    6.80
   2   4  -5    3.00   11.30
  -2   4   5   11.30   14.10
   1  -4  -5   41.10   12.50
  -1   4   5   22.30   12.50
  -1   4   5   16.90   11.00
   0  -4   5   71.09   17.90
   1  -4   5  107.99   22.60
   2   4   5   17.40    7.60
   2   4   5   19.90   12.10
  -2   4  -5   11.30    6.40
   3  -4   5   85.69   19.90
   3   4   5   26.60   11.70
  -3   4  -5   45.30    9.50
   4  -4   5    5.60    9.90
   4   4   5   12.70   13.10
  -4   4  -5   11.70    6.60
 -10   0   6   -7.20    9.90
  10   0  -6   -1.90    7.90
 -10   0   6    4.00   11.90
  -9   0   6   12.50    9.80
   9   0  -6   21.00    7.40
  -9   0   6   12.90   12.20
  -8   0   6   -3.50   10.40
  -8   0   6   -3.00    9.10
   8   0  -6    0.30    6.50
   7   0  -6 1140.19  117.49
  -7   0   6 1095.99  117.29
  -7   0   6 1014.90  117.59
   6   0  -6   43.30   11.00
  -6   0   6   29.40   11.00
  -6   0   6   52.59    9.60
   5   0  -6   47.50    8.10
  -5   0   6   45.00    9.60
  -4   0   6   99.69   15.00
   4   0  -6   94.59   14.60
  -3   0   6   10.70    6.90
  -2   0   6  -13.80   15.70
  -2   0   6   14.50    5.70
   2   0  -6    2.30    4.90
  -2   0   6    4.30    5.40
   2   0  -6    6.90    4.60
  -1   0   6  239.28   33.30
  -1   0   6  308.17   32.30
  -1   0   6  324.77   32.00
   1   0  -6  273.97   32.10
   0   0   6  366.96   40.80
  -1   0  -6 1238.08  130.09
  -1   0  -6 1208.18  130.29
   1   0   6 1169.78  130.29
   2   0   6  202.88   21.90
  -2   0  -6  161.38   21.40
   2   0   6  182.08   21.80
  -2   0  -6  214.08   22.10
  -3   0  -6  475.35   50.89
   3   0   6  498.95   51.39
   3   0   6  434.86   51.39
  -4   0  -6  246.38   27.70
   4   0   6  215.78   26.80
   4   0   6  236.68   26.70
   5   0   6  330.87   37.80
  -5   0  -6  363.36   39.10
   5   0   6  325.87   38.00
   6   0   6   59.69   11.60
  -6   0  -6   55.59   13.80
   7   0   6  183.88   21.30
   7   0   6  167.18   20.30
  -7   0  -6  141.09   21.80
  -8   0  -6    6.20   10.30
   8   0   6   18.70    6.60
   8   0   6    5.60    8.60
  -9   0  -6    6.60    9.60
   9   0   6    6.30    9.20
  10  -1  -6   68.99   16.70
  10   1  -6   83.99   15.30
  -9  -1   6    2.70   18.00
   9  -1  -6   10.10    8.60
  -9  -1   6   20.90    9.90
  -9   1   6   19.00   13.90
  -9   1   6   14.70   10.00
   9   1  -6   36.60    9.30
   8  -1  -6    0.30   11.40
  -8  -1   6   11.10    9.20
  -8  -1   6   -5.10   13.60
  -8   1   6   19.90   12.30
   8   1  -6    9.40    8.90
  -8   1   6    3.60    9.60
  -7  -1   6   13.10   14.40
   7  -1  -6   31.40   11.20
  -7  -1   6   29.60    8.90
   7   1  -6   37.50    9.60
  -7   1   6   26.10    9.60
  -7   1   6   55.59   10.10
  -6  -1   6  114.49   15.20
   6  -1  -6   89.49   17.70
  -6  -1   6  133.69   14.90
  -6  -1   6  127.19   31.10
   6  -1  -6  106.69   13.60
  -6   1   6   93.59   14.20
   6   1  -6  100.29   17.70
  -6   1   6   99.89   12.60
  -6   1   6   89.59   15.90
  -5  -1   6   11.80    9.40
   4  -1  -6  110.49   18.80
  -4   1   6  113.89   15.10
   4   1  -6  125.89   15.50
  -4   1   6  119.19   17.00
   4   1  -6  125.19   30.60
   3  -1  -6  481.75   50.89
   3  -1  -6  437.56   51.59
  -3  -1   6  412.46   60.99
  -3   1   6  510.85   50.49
  -3   1   6  480.65   50.39
   3   1  -6  425.06   56.89
  -3   1   6  455.55   51.69
  -2  -1   6  399.66   41.70
  -2  -1   6  346.67   53.29
  -2  -1   6  380.56   41.70
   2  -1  -6  411.56   42.10
   2  -1  -6  361.06   41.80
   2  -1  -6  383.06   42.00
  -2   1   6  323.97   43.30
  -2   1   6  388.76   41.40
   2   1  -6  338.77   51.39
   2   1  -6  390.56   41.70
  -2   1   6  375.76   41.40
   2   1  -6  393.96   41.70
   2   1  -6  380.86   41.10
   1  -1  -6   12.70    6.50
  -1  -1   6   42.30   10.50
   1  -1  -6   10.80    7.10
  -1  -1   6   26.60    5.80
   1   1  -6   23.00    6.30
  -1   1   6   28.40    5.20
   1   1  -6   42.40    7.80
  -1   1   6   47.90   13.50
  -1   1   6   24.90    6.10
   1   1  -6   25.40    4.80
   0  -1  -6  130.49   18.40
   0  -1   6  201.58   40.90
   0  -1   6  137.59   18.30
   0   1  -6  153.58   18.40
   0   1  -6  163.28   16.90
  -1  -1  -6  146.69   18.50
   1  -1   6  160.58   18.20
   1  -1   6  157.18   19.20
   1  -1   6  161.28   18.80
   1   1   6  170.88   21.30
  -1   1  -6  150.98   19.10
   1   1   6  135.29   17.80
  -1   1  -6  149.39   17.30
   1   1   6  179.08   20.30
  -1   1  -6  183.28   47.20
   1   1   6  134.59   17.80
   2  -1   6   35.00    9.10
   2  -1   6   28.50    7.40
   2  -1   6   31.50    5.90
  -2   1  -6   39.80   10.30
  -2   1  -6   32.80    8.00
   2   1   6   35.20    8.10
  -2   1  -6   35.70    6.90
   2   1   6   52.79   15.60
  -2   1  -6   20.00   16.30
   2   1   6   33.00    8.30
   2   1   6   35.70    6.60
   3   1   6   24.90   14.30
  -3   1  -6   37.40    9.60
   3   1   6   33.80    9.30
   3   1   6   41.00    9.20
   4  -1   6  555.24   62.19
   4  -1   6  611.44   61.29
   4  -1   6  551.84   61.29
   4   1   6  509.85   61.59
  -4   1  -6  506.35   61.89
  -4   1  -6  588.64   60.89
  -4   1  -6  644.84   61.39
   4   1   6  519.15   61.29
   5  -1   6   65.79   11.00
   5  -1   6   59.59   10.80
   5   1   6   43.40   12.10
  -5   1  -6   54.59   13.90
   5   1   6   55.29   10.20
   6  -1   6   -1.00   12.90
   6  -1   6    4.40    4.80
  -6  -1  -6   10.40    9.20
  -6   1  -6   15.00    9.20
   6   1   6    4.60    5.10
  -6   1  -6    5.20    6.90
  -6   1  -6    0.60    4.80
  -6   1  -6    6.80    8.80
   6   1   6    1.80    6.80
   7  -1   6   37.30    9.80
  -7  -1  -6   30.50   11.40
   7  -1   6   46.20   10.30
  -7   1  -6   38.40   10.70
   7   1   6   64.29   13.00
   7   1   6   46.40   12.10
   8  -1   6   -2.20    6.50
  -8  -1  -6   -2.10   14.30
   8  -1   6    1.10    8.30
  -8   1  -6    6.90    5.40
  -8   1  -6    4.80    9.10
   8   1   6    5.40    8.70
   9  -1   6   29.50    9.40
  -9  -1  -6   25.40   10.50
  -9   1  -6   15.90    9.80
   9   1   6   19.80    8.40
  -9   2   6   -1.90   10.20
   9   2  -6    4.80    8.10
   8  -2  -6    1.10    9.50
   8  -2  -6   23.20    8.60
   8   2  -6    7.90    8.40
  -8   2   6   -1.00    9.80
  -8   2   6   13.50    9.30
   7  -2  -6   22.50    9.40
   7  -2  -6   51.19   11.30
   7   2  -6   28.60    9.00
  -7   2   6    7.90   14.80
  -7   2   6   30.70    6.40
   6  -2  -6   11.10    6.10
  -6  -2   6   17.80    6.50
   6  -2  -6   -5.30    8.10
   6   2  -6    2.50    8.20
  -6   2   6    0.50    9.40
  -6   2   6    5.10    5.50
  -6   2   6    0.30    7.80
   6   2  -6   42.10   21.40
  -5  -2   6   63.19   10.50
  -5  -2   6   45.00   21.40
   5  -2  -6   37.10   10.70
   5  -2  -6   51.69   10.10
   5   2  -6   52.59   11.80
  -5   2   6   41.10   10.20
  -5   2   6   40.10    8.50
   5   2  -6   57.49   16.50
  -5   2   6   53.19   13.10
  -4  -2   6  150.38   38.90
   4  -2  -6   84.19   13.80
   4  -2  -6  111.99   18.40
   4   2  -6   93.19   16.90
  -4   2   6   86.29   11.80
  -4   2   6   79.89   14.40
  -4   2   6  112.09   15.70
   4   2  -6  116.19   27.80
  -4   2   6   72.29   11.50
   3  -2  -6 1795.12  208.88
  -3  -2   6 2260.07  212.48
  -3  -2   6 1744.63  208.58
   3  -2  -6 1833.82  208.88
  -3  -2   6 1788.42  208.58
  -3   2   6 1818.72  208.88
   3   2  -6 2018.00  208.88
  -3   2   6 1940.11  208.48
  -3   2   6 1952.80  208.38
   3   2  -6 2193.78  210.98
   2  -2  -6  812.32   94.89
  -2  -2   6  776.62   94.09
   2  -2  -6  983.70   94.39
  -2  -2   6  777.82  101.59
  -2  -2   6  919.51   93.99
  -2   2   6  974.20   94.39
   2   2  -6  726.03   98.69
  -2   2   6  749.42   93.69
  -2   2   6  902.41   93.79
   2   2  -6  847.62   95.09
   2   2  -6 1000.90   94.19
   2   2  -6  908.51   93.69
  -2   2   6  856.31   94.89
   1  -2  -6  456.15   59.59
  -1  -2   6  542.35   68.69
   1  -2  -6  587.34   58.79
  -1  -2   6  492.15   58.39
  -1  -2   6  592.04   58.29
  -1   2   6  573.84   58.19
   1   2  -6  500.15   58.69
   1   2  -6  503.25   59.99
   1   2  -6  541.65   57.99
  -1   2   6  500.75   57.99
   1   2  -6  524.95   70.99
  -1   2   6  606.54   60.19
   0  -2  -6   20.00    8.10
   0  -2   6   25.20    5.60
   0  -2  -6   23.50   11.40
   0  -2   6   39.20   26.60
   0  -2   6   20.10    6.40
   0   2  -6   24.50    7.50
   0   2   6   24.70    4.40
   0   2   6   38.90    6.30
   0   2  -6   29.40    5.80
   0   2   6   40.10   11.60
   1  -2   6  203.68   22.80
   1  -2   6  205.38   24.80
  -1  -2  -6  187.68   30.80
   1  -2   6  170.28   23.30
  -1  -2  -6  239.68   24.80
  -1   2  -6  208.48   23.60
  -1   2  -6  192.88   23.80
  -1   2  -6  236.58   43.00
   1   2   6  208.28   26.70
   1   2   6  200.28   22.60
   1   2   6  174.78   26.00
  -1   2  -6  206.48   22.50
   1   2   6  190.28   22.60
   2  -2   6  231.88   30.70
   2  -2   6  244.38   27.20
   2  -2   6  249.28   27.60
  -2   2  -6  229.08   43.60
   2   2   6  249.38   29.90
   2   2   6  264.17   26.90
  -2   2  -6  266.27   26.90
   2   2   6  212.08   27.10
  -2   2  -6  230.68   28.20
  -2   2  -6  252.77   28.10
   2   2   6  212.98   31.30
   3  -2   6   11.10    8.50
   3  -2   6    6.50    6.00
   3  -2   6   17.50    8.70
  -3  -2  -6    3.00   10.10
  -3   2  -6   16.00   18.60
  -3   2  -6   12.50    7.20
  -3   2  -6    3.80    6.60
   3   2   6    9.90    4.30
   3   2   6   19.10   14.30
   3   2   6    5.30    8.20
  -3   2  -6    7.00    4.90
   4  -2   6   15.10    4.80
  -4  -2  -6    3.80   13.50
   4  -2   6   36.10    9.20
   4  -2   6    2.90    8.10
  -4   2  -6   14.00    7.50
   4   2   6   16.80    8.80
   4   2   6   12.60    4.80
  -4   2  -6    6.60   19.50
   4   2   6   19.00   12.20
  -4   2  -6   24.90    5.10
  -5  -2  -6   20.10   14.40
   5  -2   6    5.40    8.30
   5  -2   6   28.40    7.80
   5  -2   6   18.00    5.10
   5   2   6   20.80    5.40
  -5   2  -6   43.10   10.40
  -5   2  -6   18.90    8.20
  -5   2  -6   32.90    6.40
  -5   2  -6    3.80   18.10
   5   2   6   14.70    7.90
   6  -2   6   27.50    8.50
  -6  -2  -6   17.40    8.60
   6  -2   6   26.00    5.70
   6  -2   6   18.70    9.80
  -6   2  -6   41.10    6.90
  -6   2  -6   16.80    8.80
   6   2   6   19.50    9.10
  -6   2  -6   23.70   18.80
  -6   2  -6   41.40   10.20
   7  -2   6    2.90    5.10
   7  -2   6    7.30    7.20
   7  -2   6   -3.80   10.00
  -7   2  -6    4.00    9.10
  -7   2  -6   11.30    7.40
   7   2   6   -4.50    7.40
  -7   2  -6    7.70    6.00
   8  -2   6   28.70   13.00
  -8   2  -6   13.70    9.80
   8   2   6   10.70    8.00
   8  -3  -6   16.10    9.50
  -8  -3   6   16.50    7.10
  -8   3   6    9.00   12.80
   8   3  -6    9.80    8.90
  -7  -3   6   23.90    7.80
   7  -3  -6   26.40    9.60
   7   3  -6   23.00   10.40
  -7   3   6   26.50   11.20
   6  -3  -6   35.50   10.00
   6   3  -6   30.00   10.40
  -6   3   6   25.80   10.60
  -6   3   6   36.70   11.80
   5  -3  -6    5.30   16.70
  -5  -3   6   -1.50    8.50
   5   3  -6   -1.30    8.20
  -5   3   6    5.80   10.80
   5   3  -6    9.50    6.80
   4  -3  -6   11.30    9.20
   4  -3  -6    5.60    6.50
  -4  -3   6   -2.00    6.90
  -4   3   6    7.70    8.20
   4   3  -6    3.60   11.80
  -4   3   6    5.60    6.30
   4   3  -6    2.60    5.40
  -4   3   6   -2.10   10.30
   4   3  -6   -3.10    9.10
   4   3  -6    8.60    7.30
  -3  -3   6   31.20    6.90
   3  -3  -6   47.90   10.70
   3  -3  -6   40.50   10.70
   3   3  -6   22.10    6.70
  -3   3   6   43.10   11.90
   3   3  -6   29.40   11.60
  -3   3   6   32.50   11.00
  -3   3   6   35.80    7.30
   3   3  -6   54.49    9.90
   3   3  -6    8.70   13.20
  -2  -3   6   38.20    9.70
   2  -3  -6   46.00   10.30
   2  -3  -6   48.60   10.80
   2   3  -6   47.40   10.20
  -2   3   6   34.20   12.90
  -2   3   6   21.30    7.10
   2   3  -6   17.70   14.10
   2   3  -6   36.80   12.00
   2   3  -6   22.60    6.30
  -2   3   6   31.20    8.90
  -1  -3   6  119.79   14.10
   1  -3  -6   91.89   18.30
   1   3  -6   99.79   14.50
  -1   3   6  102.39   35.30
  -1   3   6   80.69   12.40
   1   3  -6   90.89   12.30
  -1   3   6   95.09   16.60
   0  -3   6  562.04   55.79
   0  -3   6  437.56   55.99
   0  -3   6  510.95   56.49
   0  -3  -6  541.35   56.29
   0  -3   6  528.05   76.99
   0   3   6  505.95   55.69
   0   3   6  502.75   57.09
   0   3  -6  529.05   56.29
   0   3  -6  417.76   69.19
   0   3  -6  550.34   55.59
   1  -3   6  115.29   12.90
  -1  -3  -6   92.19   14.90
  -1   3  -6  127.29   21.80
   1   3   6  118.89   13.10
  -1   3  -6   85.69   14.70
  -1   3  -6   91.29   12.90
  -2  -3  -6   71.79   11.00
   2  -3   6   50.69   10.30
   2  -3   6   62.99    9.40
   2  -3   6  108.89   33.10
   2   3   6   35.60   12.90
  -2   3  -6   51.09   11.60
  -2   3  -6   59.29    9.00
   2   3   6   55.19    9.10
   3  -3   6   10.70    9.50
   3   3   6    6.40   14.40
  -4  -3  -6   17.50   14.30
   4  -3   6   10.90    8.50
   4   3   6   -0.20   12.20
  -4   3  -6    1.20    9.10
   4   3   6   25.00    6.30
   4   3   6   19.00   10.30
   5  -3   6   -5.40    9.50
  -5  -3  -6    8.90    7.40
  -5   3  -6   11.80    5.80
  -5   3  -6   -4.80    9.50
   5   3   6    6.90   10.20
   6  -3   6   -0.20    9.30
  -6  -3  -6   10.00    5.30
  -6   3  -6   22.30    5.80
   6   3   6   14.50    9.30
  -6   3  -6    0.10   10.20
   7  -3   6   -7.70    9.60
  -7   3  -6    3.00    8.00
  -7   3  -6   -6.70   10.80
   7   3   6   -2.10    9.20
   5  -4  -6    4.10   11.30
  -5   4   6    2.50    6.90
  -5   4   6    7.70   12.00
   5   4  -6   -2.70   12.80
   4  -4  -6    7.20   10.00
   4   4  -6   -1.40   12.00
  -4   4   6   14.10   13.30
   3   4  -6    8.30   10.10
   3   4  -6   14.50    7.40
  -3   4   6   30.70   25.30
   2  -4  -6   25.70   11.50
  -2   4   6   10.30   14.40
   2   4  -6    2.50    6.90
  -1  -4   6   55.79   12.10
   1  -4  -6   33.20   12.20
  -1   4   6   11.90   12.30
  -1   4   6   11.40    7.40
   0  -4   6  105.69   21.60
   2  -4   6   29.10   13.10
  -2   4  -6   11.50    6.90
   3  -4   6   83.69   18.90
  -3   4  -6   40.50   10.50
   3   4   6   22.40   11.90
   4  -4   6   25.20   12.30
   4   4   6    5.60    7.30
  -4   4  -6   14.70    8.40
   4   4   6   26.60   12.80
 -10   0   7    0.80    9.70
   9   0  -7    4.60    7.00
  -9   0   7   -3.80   12.70
  -9   0   7   -2.80    9.30
   8   0  -7   21.20    6.60
  -8   0   7   14.50    8.40
  -8   0   7    4.60   11.80
   7   0  -7  233.68   26.90
  -7   0   7  253.47   26.80
  -7   0   7  205.28   27.40
  -6   0   7  117.39   19.00
  -6   0   7  111.69   27.20
  -6   0   7  172.98   17.40
   6   0  -7  146.29   17.80
  -5   0   7   -7.90    8.40
   5   0  -7   -0.80    5.80
   4   0  -7   63.29   12.40
  -4   0   7   53.59   13.60
   3   0  -7   32.80    7.90
  -3   0   7   38.00    9.00
   3   0  -7   60.09   10.30
   2   0  -7  211.18   24.00
  -2   0   7  211.38   24.20
  -1   0   7  182.78   22.80
   1   0  -7  187.98   23.00
  -1   0   7  222.08   23.10
   0   0   7   67.49    9.80
   0   0   7   37.60   11.40
   0   0  -7   62.39   14.20
   1   0   7  571.64   66.69
  -1   0  -7  563.04   66.59
   1   0   7  706.23   66.39
  -1   0  -7  617.44   69.09
  -1   0  -7  600.04   66.19
  -2   0  -7  380.76   43.00
   2   0   7  415.06   43.60
  -2   0  -7  394.36   43.60
  -3   0  -7   64.19    8.90
   3   0   7   77.39   13.10
   4   0   7    9.00    5.90
   4   0   7   -2.40    4.80
  -5   0  -7  312.27   34.40
   5   0   7  258.07   33.10
   5   0   7  308.67   33.20
  -6   0  -7  241.78   32.20
   6   0   7  295.27   29.90
   6   0   7  252.57   30.40
   7   0   7  110.99   14.50
  -7   0  -7   80.49   17.70
   7   0   7  105.59   15.70
  -8   0  -7   -2.10   10.00
   8   0   7    6.20    5.60
   8   0   7    3.60    8.60
  -9   0  -7   10.40    9.90
   9   0   7   18.90    9.80
  10  -1  -7   10.50    8.20
  10   1  -7   21.30    7.90
 -10   1   7    6.70   10.00
  -9  -1   7   -0.60   16.30
  -9  -1   7   33.70   10.70
   9  -1  -7   16.40    8.70
   9   1  -7   30.40    8.60
  -9   1   7   17.00    9.60
  -8  -1   7   11.10   14.90
  -8  -1   7   45.00   11.60
   8  -1  -7   28.50   11.20
   8   1  -7   33.90    9.10
  -8   1   7    6.70    6.30
  -8   1   7   17.80    9.20
  -8   1   7   23.30    9.00
  -7  -1   7   17.90    8.90
  -7  -1   7   -4.10   14.30
   7  -1  -7    6.40   10.10
  -7   1   7   -0.80    8.70
   7   1  -7   -0.20    8.40
  -6  -1   7  146.39   33.30
  -6  -1   7  138.49   15.90
   6  -1  -7  122.19   18.50
  -6   1   7  107.19   17.70
   6   1  -7  145.29   18.60
  -6   1   7   93.49   16.60
  -5  -1   7   45.60   12.00
   5  -1  -7   47.90    9.10
   5  -1  -7   49.00   10.20
   5  -1  -7   40.70    9.30
  -5  -1   7   37.10   21.60
  -5   1   7   40.20   10.30
  -5   1   7   44.40    7.80
  -5   1   7   66.79    9.70
   5   1  -7   36.40   18.70
   5   1  -7   50.99    9.20
  -4  -1   7  252.17   45.20
   4  -1  -7  256.87   31.00
   4  -1  -7  251.67   30.10
  -4  -1   7  234.68   31.20
   4  -1  -7  297.47   30.40
   4   1  -7  248.98   30.30
  -4   1   7  290.17   29.50
  -4   1   7  288.17   29.90
  -3  -1   7  381.76   53.89
   3  -1  -7  429.16   43.90
   3  -1  -7  344.17   43.00
  -3  -1   7  329.27   43.10
  -3  -1   7  424.26   43.10
   3  -1  -7  404.36   43.30
   3   1  -7  382.56   50.19
  -3   1   7  438.16   42.70
  -3   1   7  412.86   43.20
  -3   1   7  383.06   44.10
   3   1  -7  362.06   42.30
  -2  -1   7   41.10    8.70
   2  -1  -7   12.30    6.50
  -2  -1   7   18.30    6.20
   2  -1  -7   19.20    7.20
  -2  -1   7   24.50    8.10
  -2   1   7   17.00    8.90
   2   1  -7   24.90    5.40
   2   1  -7   17.60    6.20
  -2   1   7    2.60   19.40
   2   1  -7   34.80   15.80
  -2   1   7   34.60    6.70
   2   1  -7   33.70    7.30
  -1  -1   7   84.99   26.90
  -1  -1   7  106.79   18.60
  -1  -1   7  104.39   15.10
   1  -1  -7  142.99   15.40
  -1  -1   7  140.69   15.20
  -1   1   7   89.79   15.70
  -1   1   7   82.59   19.90
   1   1  -7  125.29   34.30
   1   1  -7  140.19   15.50
  -1   1   7  101.89   14.30
   1   1  -7  124.09   13.60
   1   1  -7  101.19   17.00
   0  -1   7  108.89   14.70
   0  -1   7  140.29   18.50
   0  -1  -7   98.89   14.60
   0  -1   7   93.19   14.10
   0   1  -7  109.49   13.00
   0   1   7  107.79   13.50
   0   1  -7  106.49   14.90
   0   1   7  104.59   13.70
   0   1   7  130.09   18.60
   1  -1   7   91.89   32.80
   1  -1   7  117.49   13.40
   1  -1   7   83.49   13.80
  -1  -1  -7   81.29   14.10
   1  -1   7  106.19   14.30
  -1   1  -7  168.58   42.40
   1   1   7  112.09   12.90
  -1   1  -7  103.39   12.10
  -1   1  -7   98.69   14.30
   2  -1   7  156.78   16.80
   2   1   7  105.69   21.50
  -2   1  -7  127.39   19.20
   2   1   7  134.99   16.70
   2   1   7  132.79   16.70
   3  -1   7   91.89   22.30
   3  -1   7  143.79   16.10
   3   1   7  135.69   16.00
   3   1   7  102.79   17.60
   4  -1   7  278.37   31.30
   4  -1   7  265.77   29.90
   4  -1   7  252.87   29.70
  -4   1  -7  257.27   29.90
  -4   1  -7  276.27   29.00
   4   1   7  263.07   30.50
   4   1   7  247.58   30.00
  -4   1  -7  264.57   31.70
   5  -1   7    2.10    6.00
   5  -1   7    2.60    5.20
   5  -1   7   13.10    9.70
   5   1   7    3.70    7.00
  -5   1  -7   -1.60    5.00
  -5   1  -7    8.20    9.30
  -5   1  -7    7.80    8.40
   5   1   7    0.70    4.40
  -6  -1  -7    3.90    9.10
   6  -1   7    4.90    4.80
   6  -1   7    2.40    8.10
   6   1   7    5.90    6.90
   6   1   7   10.80    5.30
  -6   1  -7   10.50    9.00
  -6   1  -7    5.10    5.80
  -6   1  -7    8.70   10.90
  -6   1  -7    0.40    8.70
   7  -1   7   27.00    6.40
  -7  -1  -7   20.90   10.80
   7  -1   7   16.80    8.50
  -7   1  -7   30.80    6.60
   7   1   7   27.00    6.30
  -7   1  -7   48.40   11.60
   7   1   7   18.90    7.60
  -7   1  -7   20.70    9.10
   8  -1   7   23.20    6.40
  -8  -1  -7   21.30   11.40
   8   1   7   15.70    7.80
   8   1   7   27.10    6.90
  -8   1  -7   17.10    9.40
  -9  -1  -7    3.20   11.10
   9  -1   7    5.90    9.30
   9  -1   7   -5.80    7.50
   9   1   7    0.90    7.70
  -9   1  -7    5.10    9.40
   9  -2  -7   -5.30   10.00
  -9   2   7    2.50   10.40
   9   2  -7    2.30    8.40
   8  -2  -7   20.00   10.40
  -8  -2   7   71.79   11.50
   8  -2  -7   45.20   12.30
  -7  -2   7   14.30    8.50
   7  -2  -7    6.90    6.50
   7  -2  -7   -0.30    8.80
   7   2  -7   12.70    8.40
  -7   2   7   -0.80   10.30
   6  -2  -7   -6.50    8.00
  -6  -2   7  -31.10   23.10
  -6  -2   7    8.70    6.00
   6  -2  -7    4.40    6.30
  -6   2   7    6.60    5.40
  -6   2   7    2.10    9.40
   6   2  -7   -2.70    7.10
   5  -2  -7   29.40    7.00
   5  -2  -7   20.60    9.00
  -5  -2   7   46.40    9.90
  -5  -2   7  -11.60   18.00
   5   2  -7   19.10    7.60
  -5   2   7    6.50    9.90
  -5   2   7   33.80    6.10
  -5   2   7    6.20    4.70
   5   2  -7   16.30   14.70
   4  -2  -7    7.50    9.00
   4  -2  -7   11.40    7.00
  -4  -2   7   12.80    5.30
  -4  -2   7   -2.10   22.10
   4   2  -7    7.80    7.80
  -4   2   7   15.50    9.80
  -4   2   7    9.50    5.80
   4   2  -7   16.20   12.60
  -3  -2   7  651.73   75.29
  -3  -2   7  595.44   66.49
   3  -2  -7  581.34   67.39
   3   2  -7  596.54   66.69
  -3   2   7  604.84   65.99
   3   2  -7  645.84   71.79
   3   2  -7  548.15   65.89
  -3   2   7  679.23   67.29
  -3   2   7  601.24   66.09
   2  -2  -7  542.85   53.49
   2  -2  -7  454.55   54.29
  -2  -2   7  478.45   53.19
  -2  -2   7  472.45   66.29
   2   2  -7  540.05   53.29
  -2   2   7  441.66   52.69
   2   2  -7  492.45   55.09
  -2   2   7  399.96   54.79
   2   2  -7  514.35   52.69
  -2   2   7  499.55   52.89
   1  -2  -7    7.50   10.80
  -1  -2   7   32.50    6.30
   1  -2  -7   15.90    7.20
   1   2  -7   24.70    8.70
  -1   2   7   26.80    6.20
   1   2  -7   46.30   18.10
  -1   2   7   45.50   12.90
   1   2  -7   19.70    5.50
  -1   2   7   28.60    6.50
   0  -2   7   61.69   22.80
   0  -2   7   38.40    6.70
   0  -2   7   34.20    7.20
   0   2  -7   11.50    7.00
   0   2   7   25.60    6.70
   0   2  -7   18.00    5.80
   0   2   7   26.80    4.80
  -1  -2  -7  274.37   33.20
   1  -2   7  231.78   29.00
   1  -2   7  223.08   26.70
   1  -2   7  259.27   27.00
  -1  -2  -7  255.17   27.20
  -1   2  -7  248.98   44.70
   1   2   7  201.38   28.90
  -1   2  -7  247.98   26.00
  -1   2  -7  232.18   27.50
   1   2   7  210.98   26.30
  -1   2  -7  238.28   27.30
   1   2   7  187.48   29.30
  -2  -2  -7   61.59   10.10
  -2  -2  -7   53.29   11.00
   2  -2   7   61.19   11.30
   2  -2   7   97.29   16.70
  -2   2  -7   46.50   18.30
   2   2   7   79.89   16.80
  -2   2  -7   90.19    9.90
   2   2   7   70.59   10.90
   2   2   7   76.69   10.10
  -2   2  -7   87.69   12.90
   2   2   7   76.49   17.10
  -2   2  -7   87.39   13.00
   3  -2   7   69.99   12.40
   3  -2   7   96.89   12.50
   3   2   7   88.79   11.80
  -3   2  -7   99.89   11.50
  -3   2  -7   85.49   14.40
   3   2   7   82.59   16.80
  -3   2  -7  101.59   14.00
   3   2   7   86.09   11.70
   3   2   7   77.59   20.90
  -4  -2  -7   14.90   14.70
   4  -2   7   47.50   12.60
   4  -2   7   12.80    8.80
   4   2   7   36.20    8.20
   4   2   7   27.30    9.10
  -4   2  -7   25.70    8.20
  -4   2  -7   42.00   10.30
   4   2   7   18.00   14.50
  -4   2  -7    6.30   19.90
  -4   2  -7   43.40    6.80
   5  -2   7   28.50    5.80
   5  -2   7   20.20    9.10
  -5  -2  -7   27.40   14.60
   5  -2   7   27.50    8.40
  -5   2  -7   38.40    6.60
   5   2   7   20.40    8.90
   5   2   7   27.40    5.40
  -5   2  -7   25.50    7.60
  -5   2  -7   17.30    8.30
  -5   2  -7    7.90   18.20
   6  -2   7   14.90    5.20
  -6  -2  -7   13.00    8.40
   6  -2   7    9.50    9.60
  -6   2  -7   10.60    8.30
  -6   2  -7   14.80    6.20
   6   2   7   15.70    6.90
   6   2   7   12.70    8.70
   7  -2   7   10.30   10.70
   7  -2   7    9.70    9.80
   7  -2   7    5.60    5.60
  -7   2  -7   -0.10    8.60
   7   2   7   -2.00    9.20
  -7   2  -7    8.70    5.90
   8  -2   7    3.10    6.90
   8  -2   7   21.20   14.10
  -8   2  -7    7.30    9.80
   8   2   7    7.80    9.90
  -8   2  -7   16.90    9.50
   8  -3  -7  -10.00    9.40
  -8  -3   7   -5.60    7.40
   8   3  -7    3.00   10.10
  -8   3   7   -3.10   13.00
  -7  -3   7   44.30    8.40
   7  -3  -7   36.50   10.50
  -7   3   7   33.40   12.50
   7   3  -7   66.19   17.20
  -6  -3   7   32.20   10.20
  -6   3   7   40.50   12.50
   6   3  -7   71.29   15.80
  -5  -3   7   -0.20    7.00
   5  -3  -7   -2.50    9.20
   5   3  -7    3.90    8.10
   4  -3  -7    7.20    8.60
   4  -3  -7    8.50    7.00
   4   3  -7   -0.90    9.50
  -4   3   7    3.70   10.40
   4   3  -7   -1.60   12.60
   4   3  -7    3.70    6.90
  -4   3   7    5.40    6.10
   4   3  -7   -0.60    5.40
   3  -3  -7   13.70    7.10
   3  -3  -7   18.30   10.10
  -3  -3   7   -9.20    5.20
   3   3  -7    4.20    5.50
   3   3  -7   -3.20   13.10
   3   3  -7   18.70    6.80
  -3   3   7    9.50   11.80
   3   3  -7   -0.30   11.20
  -2  -3   7   30.70    9.40
   2  -3  -7   66.89   16.40
  -2  -3   7   23.00    6.40
   2  -3  -7   48.10   10.50
   2   3  -7   49.99   10.50
   2   3  -7   26.80   11.70
   2   3  -7   11.00   14.40
   2   3  -7   45.50    7.30
  -2   3   7   22.00   13.30
   1  -3  -7   55.49   11.30
  -1  -3   7   35.40    9.70
   1  -3  -7   83.79   18.10
  -1   3   7   34.60   12.90
  -1   3   7   49.50    8.70
   1   3  -7   55.79    8.20
   1   3  -7   52.99   10.60
   0  -3   7   70.09   27.00
   0  -3  -7  113.39   14.70
   0  -3   7   94.49   13.20
   0  -3  -7  102.79   15.40
   0   3  -7   98.19   14.30
   0   3   7  111.19   12.60
   0   3   7   87.39   17.60
   0   3  -7   70.79   22.20
   0   3  -7  103.89   12.40
   1  -3   7   45.90   10.30
   1  -3   7  120.79   38.90
  -1  -3  -7   70.19   11.50
  -1   3  -7   25.20   19.10
  -1   3  -7   56.59    8.80
  -1   3  -7   67.49   11.10
   1   3   7   60.19    9.10
   1   3   7   49.99   13.30
  -2  -3  -7   72.39   11.30
   2  -3   7   48.40   14.20
   2  -3   7   49.30   10.50
  -2   3  -7   73.39    9.30
   2   3   7   46.20   12.40
  -2   3  -7   60.19   11.30
   2   3   7   55.19    9.50
   2   3   7   70.09   19.30
   2   3   7   67.39    9.60
  -3  -3  -7   36.60    8.50
  -3  -3  -7   19.70    6.80
   3  -3   7   41.40    7.70
   3   3   7   24.20   12.40
   3   3   7   12.80   15.70
   3   3   7   21.00    6.80
   4  -3   7    2.80    9.30
  -4  -3  -7   11.60   14.20
   4  -3   7   18.30    5.60
  -4  -3  -7   14.00    6.20
   4   3   7   20.90   13.20
  -4   3  -7    5.30    8.60
   4   3   7   10.70   15.30
  -4   3  -7   13.50    5.70
   4   3   7    6.50    6.80
   5  -3   7  -13.00    9.40
   5   3   7   20.80   10.80
  -5   3  -7    0.00   13.40
   6  -3   7   16.90    9.30
   6   3   7   11.80   10.10
  -6   3  -7    8.50   10.10
  -5   4   7   17.50   13.70
   5   4  -7    5.20   12.70
   4  -4  -7    7.40   10.50
   4   4  -7    4.80    6.80
  -4   4   7    4.60    6.60
  -4   4   7    7.00   14.50
   4   4  -7    6.60   12.20
   3  -4  -7   33.10   11.70
   3   4  -7   11.40    7.40
   3   4  -7   12.30   10.70
  -3   4   7    8.40   14.80
   2  -4  -7   26.50   12.40
  -2   4   7    5.50   13.50
   2   4  -7   -1.20    6.40
  -2   4   7    0.20    6.00
   1  -4  -7   69.99   17.80
  -1  -4   7   79.99   15.50
   0  -4  -7   31.70   10.10
   0   4   7   17.70   13.00
  -1  -4  -7  112.89   15.10
   1   4   7  109.49   15.00
  -1   4  -7   79.19   12.40
   2  -4   7  105.59   25.10
   3  -4   7   14.90   11.50
  -3   4  -7    1.30    5.90
   3   4   7   -1.70    7.30
   3   4   7   -3.80   10.70
 -10   0   8   10.40    5.90
  10   0  -8   -1.90    7.40
 -10   0   8   -7.60   10.10
  -9   0   8    0.70   14.70
  -9   0   8    8.00   10.00
  -9   0   8   22.10    5.90
   9   0  -8   13.30    7.10
  -8   0   8   11.20    9.20
   8   0  -8   10.40    6.60
  -8   0   8    5.80   12.70
  -8   0   8   11.80    5.50
  -7   0   8    8.00    8.70
  -7   0   8    0.20   11.30
   7   0  -8   12.80    6.10
  -7   0   8   24.00    5.90
   6   0  -8   74.09   12.20
   4   0  -8  184.18   22.50
  -4   0   8  199.08   22.30
  -4   0   8  179.38   24.10
  -3   0   8   -1.90    5.70
   3   0  -8    8.10    5.00
   3   0  -8    0.00    4.60
  -3   0   8    7.70   11.60
  -3   0   8    5.60    5.40
  -2   0   8  455.95   45.50
  -2   0   8  348.07   45.70
   2   0  -8  440.46   45.20
  -1   0   8   38.70   11.10
   0   0  -8   13.70    5.60
   0   0  -8    5.90   14.20
   0   0   8    5.10    5.10
   0   0   8   14.90    6.60
   1   0   8  429.86   49.20
  -1   0  -8  463.35   48.80
  -1   0  -8  465.05   51.99
   1   0   8  470.45   49.00
  -1   0  -8  406.86   49.00
  -2   0  -8  177.48   20.50
   2   0   8  145.79   25.00
  -2   0  -8  175.98   19.30
   2   0   8  173.38   20.30
   2   0   8  183.38   20.70
   2   0   8  170.88   19.90
  -3   0  -8  221.48   23.60
   3   0   8  229.18   24.60
   3   0   8  183.98   24.80
  -4   0  -8   65.39   11.10
   4   0   8   54.89   11.50
   5   0   8  189.98   21.40
   5   0   8  165.58   21.70
  -5   0  -8  176.08   23.10
  -6   0  -8  143.09   23.90
   6   0   8  201.68   20.70
   6   0   8  160.68   21.50
   7   0   8   65.49   12.30
   7   0   8   82.69   14.70
  -7   0  -8   63.19   16.10
  -8   0  -8    0.90   10.30
   8   0   8    4.00    5.90
   8   0   8    5.10    9.50
   9   0   8    2.10   10.80
   9   0   8    1.10    6.80
  -9   0  -8    3.60   10.20
 -10  -1   8   44.50   10.10
  10  -1  -8   12.50    8.40
 -10   1   8    6.20   11.20
  10   1  -8   21.00    8.10
  -9  -1   8   36.30   11.50
   9  -1  -8    5.10    8.40
  -9   1   8    9.40   10.70
   9   1  -8   16.30    8.20
  -8  -1   8   67.49   11.20
  -8  -1   8   71.69   15.00
   8  -1  -8   59.79   13.20
   8   1  -8   59.59   14.10
  -7  -1   8   16.50    9.70
  -7  -1   8   16.90    5.40
   7  -1  -8    0.10    9.10
  -7  -1   8  -19.70   14.90
   7   1  -8    1.40    7.70
  -7   1   8    2.00    9.10
  -6  -1   8  115.09   38.60
   6  -1  -8  104.19   16.00
  -6   1   8   93.39   11.90
  -6   1   8  106.09   15.50
  -6   1   8   75.09   13.20
   5  -1  -8   47.20   12.20
  -5  -1   8   29.30   18.60
   5  -1  -8   42.60    9.30
  -5  -1   8   53.59   13.80
   5   1  -8   56.49   10.20
  -5   1   8   44.70   11.30
   5   1  -8   28.50   16.40
  -5   1   8   56.79    8.10
  -5   1   8   71.19   10.80
   4  -1  -8  184.18   22.20
  -4  -1   8  213.58   22.40
  -4  -1   8  162.08   40.80
   4  -1  -8  170.28   22.80
   4  -1  -8  208.18   22.40
  -4   1   8  193.18   22.10
  -4   1   8  196.28   21.50
   4   1  -8  169.38   22.40
   3  -1  -8  147.59   17.50
   3  -1  -8  108.69   16.00
  -3  -1   8  137.09   15.60
  -3  -1   8  106.19   16.30
   3   1  -8   87.49   16.80
   3   1  -8  108.09   13.70
  -3   1   8  130.99   19.50
  -3   1   8  128.99   14.60
  -3   1   8  138.29   15.00
   3   1  -8  111.79   15.30
  -2  -1   8  106.79   15.80
   2  -1  -8  118.49   17.20
   2  -1  -8  144.09   16.80
  -2  -1   8  147.39   15.70
  -2  -1   8  189.08   38.40
   2   1  -8  115.69   38.50
  -2   1   8  114.29   15.10
  -2   1   8   99.19   15.00
  -2   1   8   79.99   20.80
   2   1  -8  128.39   14.10
   2   1  -8  140.99   15.90
   2   1  -8   99.29   16.90
   1  -1  -8  102.29   13.40
  -1  -1   8   94.69   18.50
  -1  -1   8  103.09   13.10
  -1  -1   8   91.19   13.10
   1   1  -8  103.69   13.60
  -1   1   8   63.49   17.50
  -1   1   8   85.59   12.60
   1   1  -8   70.79   23.90
  -1   1   8   92.59   12.50
   1   1  -8   66.39   14.50
   1   1  -8  107.89   11.30
   0  -1   8   36.90   14.40
   0  -1   8   42.30    9.90
   0  -1  -8   39.90   10.30
   0   1   8   45.30    8.60
   0   1  -8   55.79    7.60
   0   1  -8   46.00   10.70
   0   1   8   44.60    8.90
   0   1   8   76.09   15.10
   1  -1   8  329.97   39.90
   1  -1   8  383.86   41.70
   1  -1   8  342.67   50.99
   1  -1   8  321.87   40.00
  -1  -1  -8  353.16   40.30
   1  -1   8  359.06   39.80
   1   1   8  360.36   39.70
   1   1   8  375.46   39.70
   1   1   8  429.46   42.00
  -1   1  -8  349.96   39.40
  -1   1  -8  351.76   40.10
  -1   1  -8  414.96   55.99
   2  -1   8  146.39   21.60
   2  -1   8  214.78   22.00
  -2  -1  -8  212.48   21.70
  -2   1  -8  202.48   22.10
  -2   1  -8  191.88   20.60
   2   1   8  164.28   21.70
   2   1   8  149.09   21.70
   3  -1   8   28.00    6.10
   3  -1   8   24.90   10.60
   3   1   8   20.20    7.70
  -3   1  -8   12.80    8.40
   3   1   8   39.20    6.20
   3   1   8   25.30   15.00
   4  -1   8  138.99   19.30
   4  -1   8  166.38   19.40
  -4   1  -8  137.19   19.80
   4   1   8  127.19   24.50
   4   1   8  172.08   19.40
  -4   1  -8  198.88   21.80
  -4   1  -8  163.98   18.30
   4   1   8  171.28   19.60
   5  -1   8   14.80    8.00
   5  -1   8   22.70    6.40
   5  -1   8   16.60    5.50
  -5   1  -8   19.70    9.30
   5   1   8   13.60    5.00
  -5   1  -8   10.70    5.10
  -5   1  -8   13.30    6.60
   5   1   8   11.70    7.60
  -5   1  -8   11.60    9.10
  -6  -1  -8   12.60    9.00
   6  -1   8   13.60    5.50
   6  -1   8    9.00    7.90
  -6   1  -8   10.10    9.90
   6   1   8   13.70    7.70
   6   1   8   19.00    5.70
  -6   1  -8   14.60    9.10
   7  -1   8   21.90    8.00
   7   1   8   17.80    8.00
  -7   1  -8   19.10    9.80
   7   1   8   23.70    6.00
  -7   1  -8   12.80    5.80
  -7   1  -8   17.40    8.30
  -8  -1  -8    6.60   11.30
   8  -1   8    3.90    6.10
   8   1   8   14.30    8.10
  -8   1  -8    3.90    9.40
   8   1   8    7.30    6.70
   9  -2  -8   -0.60   10.40
  -9   2   8   -4.20   10.60
   9   2  -8    8.70    8.40
   8  -2  -8    5.00    9.90
   8  -2  -8    8.90    8.40
  -8   2   8    2.70    9.90
   8   2  -8    4.90    8.50
   7  -2  -8    8.90   15.10
  -7  -2   8   -7.00   24.50
  -7  -2   8   28.30    6.80
   7  -2  -8   40.20   10.10
  -7   2   8   30.30    9.10
   7   2  -8   31.80    8.80
  -7   2   8   15.90   10.30
   6  -2  -8   -5.10    8.30
   6  -2  -8    5.80    9.50
  -6  -2   8    8.70    6.10
  -6  -2   8  -25.50   18.70
   6  -2  -8    9.50    6.60
   6   2  -8   34.60   20.80
  -6   2   8    7.70    9.80
  -6   2   8    5.60    6.60
   6   2  -8    8.70    6.20
   5  -2  -8  -10.60    8.30
  -5  -2   8  -25.80   18.10
  -5  -2   8    5.90    5.50
   5  -2  -8   12.40    6.80
   5   2  -8    7.40    8.60
   5   2  -8   10.20   12.60
  -5   2   8    7.50    7.50
  -5   2   8   -3.60    9.80
   4  -2  -8   39.90    9.80
  -4  -2   8   40.90    9.40
  -4  -2   8   27.80   18.30
   4  -2  -8   33.50    7.70
  -4   2   8   34.10    5.90
   4   2  -8   54.99   13.80
  -4   2   8   36.00    7.00
   4   2  -8   23.00   13.00
   3  -2  -8  291.77   34.80
  -3  -2   8  327.67   33.80
  -3  -2   8  287.57   33.80
   3  -2  -8  261.17   34.00
   3  -2  -8  335.37   35.20
  -3  -2   8  306.37   51.39
   3   2  -8  326.77   43.90
  -3   2   8  303.17   33.40
   3   2  -8  298.47   34.30
  -3   2   8  317.47   33.40
   3   2  -8  286.17   33.00
   2  -2  -8   61.79   13.90
   2  -2  -8   74.79   13.20
  -2  -2   8  125.99   38.00
  -2  -2   8   80.19   12.20
  -2  -2   8   90.69   11.90
   2   2  -8  126.99   23.80
   2   2  -8   69.09   12.10
   2   2  -8   71.89   10.10
  -2   2   8   85.19   11.20
   2   2  -8   63.69   16.80
  -2   2   8   90.09   18.40
  -2   2   8   83.09   11.20
  -1  -2   8  108.89   16.70
  -1  -2   8  165.08   16.60
  -1   2   8  120.29   15.80
  -1   2   8  131.69   16.10
   1   2  -8  123.39   16.30
   1   2  -8  145.59   17.00
   0  -2   8  112.19   16.00
   0  -2  -8  120.09   14.60
   0  -2  -8  109.69   14.60
   0  -2   8  101.39   13.90
   0  -2   8   89.89   13.70
   0   2  -8  105.99   14.20
   0   2  -8   98.59   12.30
   0   2  -8  102.79   14.90
   0   2   8   91.09   12.80
   0   2   8  100.09   13.10
   0   2  -8   60.99   23.30
   1  -2   8   69.29   12.00
   1  -2   8   93.89   12.80
   1  -2   8  118.09   16.80
  -1  -2  -8   91.89   13.00
  -1  -2  -8   84.59   13.00
   1   2   8   63.49   11.40
  -1   2  -8   86.19   10.90
  -1   2  -8   95.79   16.20
  -1   2  -8   96.49   24.00
   1   2   8   82.39   16.50
  -1   2  -8   86.89   13.00
   1   2   8   75.79   11.50
   1   2   8   91.69   17.40
   2  -2   8  100.09   18.70
  -2  -2  -8   79.59   11.90
   2  -2   8   68.09   12.20
   2  -2   8   87.09   11.60
  -2  -2  -8   57.69   10.40
   2  -2   8   52.59   17.90
   2   2   8   93.39   16.70
  -2   2  -8   79.49   10.30
   2   2   8   83.49   10.90
  -2   2  -8  106.99   14.20
   2   2   8   87.39   20.60
  -2   2  -8   61.39   12.70
   2   2   8   80.79   11.20
  -3  -2  -8   24.60    6.40
  -3  -2  -8   33.60    6.60
   3  -2   8   48.00    9.10
  -3   2  -8   50.49    7.10
   3   2   8   25.30    9.60
   3   2   8   29.20   15.60
  -3   2  -8   28.10    9.00
   3   2   8   35.80    7.90
   3   2   8   39.70    8.30
   4  -2   8    7.10    4.80
   4  -2   8    4.60    6.20
  -4  -2  -8  -17.40   14.40
  -4   2  -8  -24.10   19.20
   4   2   8    8.80   14.70
  -4   2  -8    7.40    7.10
   4   2   8    8.80    7.80
  -4   2  -8    6.70    5.60
  -4   2  -8    4.20    8.40
   4   2   8    5.30    4.50
   5  -2   8    8.90    8.80
   5  -2   8   19.80    5.80
   5  -2   8   23.50    8.20
  -5  -2  -8    9.00   14.80
  -5   2  -8   24.90    5.60
  -5   2  -8   -4.80   18.70
   5   2   8   12.30    8.90
   5   2   8   19.90    5.30
  -5   2  -8   19.70    7.60
  -5   2  -8   13.40    8.40
   6  -2   8    4.00    4.80
  -6  -2  -8    5.70    7.90
   6  -2   8    0.30    9.70
   6  -2   8   -2.40    8.00
  -6   2  -8   13.00    9.30
   6   2   8    4.20    4.90
   6   2   8    4.00    8.30
  -6   2  -8    2.00    8.30
  -6   2  -8   -1.30    5.40
   7  -2   8   28.50    6.50
   7  -2   8   23.30   15.40
  -7  -2  -8   27.10   11.80
   7   2   8   34.00    6.90
  -7   2  -8   38.50    7.80
   7   2   8   14.30    9.50
  -7   2  -8   13.00    9.20
   8  -2   8   -5.50    5.70
   8  -2   8    8.90   11.10
  -8  -2  -8   24.00   11.00
  -8   2  -8    9.40    9.40
   8   2   8    5.60   10.10
  -8   2  -8    4.00    6.50
   7  -3  -8   76.99   12.90
  -7   3   8   64.29   17.60
   7   3  -8  100.99   18.60
   6  -3  -8   96.99   13.40
  -6  -3   8   60.39   13.60
  -6   3   8   76.69   16.80
   6   3  -8   79.29   15.40
  -5  -3   8    3.90    8.10
  -5  -3   8   -7.00    5.40
   5  -3  -8   -2.20    9.40
  -5   3   8   -1.40   10.60
   5   3  -8   -0.70    8.70
  -4  -3   8   -5.30    5.20
   4  -3  -8    7.00    9.10
  -4   3   8    3.40   11.90
   4   3  -8   -2.30    9.50
   4   3  -8   11.40    7.40
   3  -3  -8   15.80    7.10
  -3  -3   8   10.20    6.10
  -3   3   8   26.70   13.30
   3   3  -8   22.60    5.80
   3   3  -8   12.60   12.70
   3   3  -8   13.40    7.20
   3   3  -8   17.30   11.40
   2  -3  -8   32.00    7.40
  -2  -3   8   20.00    9.90
  -2  -3   8    3.00    5.90
   2  -3  -8   27.10   11.60
   2   3  -8    6.10    9.50
   2   3  -8   20.00    5.40
   2   3  -8   16.90    7.10
   2   3  -8   -3.90   14.00
  -2   3   8   14.60   13.20
   1  -3  -8   14.10    7.30
  -1  -3   8    0.50    6.20
   1   3  -8    0.70    6.60
  -1   3   8    1.70   11.40
   1   3  -8    4.60    5.00
   0  -3  -8  100.99   16.10
   0  -3   8  162.28   47.40
   0  -3  -8   94.69   15.40
   0  -3   8  125.99   14.00
   0  -3  -8   86.39   16.00
   0   3  -8   74.59   22.90
   0   3  -8   79.89   14.80
   0   3   8  114.59   13.10
   0   3   8  114.59   12.50
   0   3  -8  100.09   12.70
   0   3   8  109.49   18.20
  -1  -3  -8    9.10    7.00
  -1  -3  -8    5.80    7.10
   1  -3   8   -0.60    5.80
   1  -3   8   -0.20    4.50
  -1   3  -8    1.30    5.00
   1   3   8    2.10    7.40
   1   3   8    3.90   12.30
  -1   3  -8  -24.80   17.90
   1   3   8   -1.40    3.50
  -1   3  -8    4.10    6.60
   2  -3   8   21.90   10.00
   2  -3   8    6.00    4.50
  -2  -3  -8   -6.50    6.70
  -2  -3  -8   -8.00    6.70
  -2   3  -8  -13.70    7.50
   2   3   8   -0.80   10.40
   2   3   8    7.30   15.40
   2   3   8   -1.10    3.90
   2   3   8   -1.10    6.40
   3  -3   8    5.60    4.70
   3  -3   8   -6.70    9.80
   3   3   8   -2.20    4.30
   3   3   8   -4.60   11.50
   3   3   8    2.60    7.00
  -3   3  -8    2.60    5.40
   3   3   8   -0.80   15.60
  -3   3  -8  -11.90    8.00
   4  -3   8  -14.80    8.90
   4  -3   8   14.60    4.90
  -4   3  -8   11.20    5.70
   4   3   8    0.70   16.00
   4   3   8    4.20    5.20
   4   3   8    3.70    7.40
  -4   3  -8   -5.70    8.80
   4   3   8    1.00   15.60
  -5   3  -8   19.60    6.00
  -5   3  -8   -4.00    9.00
   5   3   8   11.50   10.60
   6  -3   8   -0.10    9.90
   6   3   8    6.60   10.80
  -6   3  -8   14.50    6.40
  -6   3  -8   -0.60    9.90
  -4  -4   8   -9.90    6.10
   4  -4  -8   13.00    9.60
   4   4  -8    3.70   12.70
   4   4  -8    7.10    6.60
  -4   4   8    7.90   14.60
  -3  -4   8   -0.80    7.40
   3  -4  -8   32.40   12.00
  -3   4   8   18.00   15.20
   3   4  -8    6.80    6.50
   3   4  -8   16.00    9.60
  -2   4   8   21.30   14.10
   2   4  -8    9.20    5.90
  -1   4   8    7.90    6.40
   1   4  -8    9.20    6.20
  -1   4   8   22.40   13.70
   0  -4  -8   71.99   18.00
  -1   4  -8   75.09   11.20
   1   4   8   90.59   19.10
   3  -4   8   -5.30   10.70
   3   4   8   -3.50   10.70
  -3   4  -8   -0.60    5.90
   3   4   8    0.70    9.00
 -10   0   9    3.90   10.40
  10   0  -9    5.90    7.30
 -10   0   9    3.70    6.50
   9   0  -9    2.40    6.90
  -9   0   9   19.00    6.10
  -8   0   9    6.20    5.70
  -8   0   9    7.50    9.80
   8   0  -9    9.30    6.40
  -8   0   9   -8.80   12.60
  -7   0   9   16.80    6.00
  -7   0   9    9.30   10.10
   7   0  -9   14.30    6.10
   6   0  -9   61.39   11.80
  -6   0   9   81.79   14.10
  -6   0   9   64.19   12.00
   5   0  -9    1.10    5.30
  -5   0   9    0.50    9.50
  -4   0   9  401.06   48.40
  -4   0   9  427.96   46.70
   4   0  -9  392.26   46.60
   4   0  -9  473.35   46.50
  -3   0   9   22.50    5.70
   3   0  -9   22.50    5.10
  -3   0   9   23.20   12.30
  -3   0   9   12.20    6.20
   3   0  -9   12.00    5.40
   2   0  -9  148.89   16.60
  -2   0   9  159.98   17.00
   2   0  -9  110.39   15.60
  -2   0   9  122.29   16.70
  -1   0   9   52.29   10.40
   1   0  -9   64.69   11.10
  -1   0   9   43.00   21.60
   1   0  -9  106.09   26.00
  -1   0   9   71.59   10.90
   0   0  -9  143.19   16.50
   0   0  -9  118.09   18.10
   0   0   9  161.38   17.30
   0   0   9  143.19   17.80
   1   0   9  487.65   55.69
   1   0   9  544.85   55.29
  -1   0  -9  471.65   54.99
  -1   0  -9  476.65   55.69
  -1   0  -9  566.54   58.79
   2   0   9    4.30    4.70
  -2   0  -9    3.90    5.30
   2   0   9    9.70   13.50
   2   0   9    3.00    4.00
  -2   0  -9  -12.30    9.10
   2   0   9    0.20    6.70
  -2   0  -9    1.40    3.70
   3   0   9   15.90    6.30
  -3   0  -9   19.80    6.20
   3   0   9    6.90    5.10
   3   0   9    8.80   12.40
  -3   0  -9   20.90    4.50
   3   0   9    6.90    5.30
   4   0   9   32.00    7.60
  -4   0  -9   41.40    9.90
   5   0   9  145.59   19.50
   5   0   9  184.88   19.90
  -5   0  -9  131.29   20.90
   6   0   9   99.79   15.50
  -6   0  -9   74.29   17.50
   6   0   9   92.09   13.90
   7   0   9    3.30    9.00
  -7   0  -9    4.70   10.70
   7   0   9    1.80    5.40
   8   0   9    6.30   10.70
   8   0   9    6.70    6.10
  -8   0  -9    9.50   10.50
  10  -1  -9   38.40    8.70
  10   1  -9   57.49   12.30
 -10   1   9   29.10   11.00
  -9  -1   9  -21.10   18.60
  -9  -1   9   13.30   11.90
   9  -1  -9    1.50    7.80
   9   1  -9    1.80    7.70
  -9   1   9    1.20    9.70
  -8  -1   9   17.80   10.60
   8  -1  -9   -5.80   14.30
  -8  -1   9  -28.90   20.40
  -8   1   9    5.20    9.50
   8   1  -9    0.70    7.50
   7  -1  -9   66.29   11.80
  -7  -1   9   78.69   14.90
  -7  -1   9   60.79   11.80
   7   1  -9   53.09   12.70
  -7   1   9   52.09   13.60
  -6  -1   9  156.28   19.70
   6  -1  -9  138.09   19.10
   6  -1  -9  125.59   16.20
  -6  -1   9  130.49   17.20
  -6   1   9  142.49   16.00
  -6   1   9  106.29   17.30
   6   1  -9  157.48   18.10
  -6   1   9  123.99   19.20
   5  -1  -9  105.39   14.10
   5  -1  -9  102.19   16.40
  -5  -1   9  113.79   14.80
  -5  -1   9  144.79   23.30
   5  -1  -9  130.69   15.00
  -5   1   9  110.59   13.70
   5   1  -9  116.99   14.90
  -5   1   9  101.79   14.60
  -5   1   9   84.39   17.10
   4  -1  -9   85.99   14.70
  -4  -1   9  112.59   14.80
   4  -1  -9   73.59   13.80
  -4  -1   9  145.89   33.90
  -4   1   9  102.09   17.50
   4   1  -9  110.89   26.70
  -4   1   9   88.29   12.40
  -4   1   9   84.69   12.70
   4   1  -9  107.39   13.40
  -3  -1   9   55.39   10.90
  -3  -1   9   77.79   13.00
   3  -1  -9   77.39   12.80
   3  -1  -9   53.89   11.40
   3   1  -9   76.29    9.30
  -3   1   9   93.29   11.30
   3   1  -9   71.59   11.80
  -3   1   9   79.29   10.80
  -3   1   9   93.49   17.30
   3   1  -9   70.79   11.90
   3   1  -9  112.49   29.70
  -2  -1   9   43.00   24.80
   2  -1  -9   60.79   10.30
  -2  -1   9   60.39   10.00
  -2  -1   9   54.29   10.50
   2   1  -9   44.10   12.10
  -2   1   9   67.59    9.80
  -2   1   9   42.90   14.50
   2   1  -9   61.09    7.80
   2   1  -9   33.00   19.10
  -1  -1   9   24.30    6.00
  -1  -1   9   34.50   12.40
  -1  -1   9    7.00   16.80
   1  -1  -9   11.40    6.50
  -1  -1   9   12.30    6.20
  -1   1   9   37.30   12.80
  -1   1   9   26.90    6.70
   1   1  -9   24.00    4.80
   1   1  -9   16.40    6.70
  -1   1   9   36.60    9.30
   0  -1   9   74.69   13.30
   0  -1   9  103.39   13.90
   0  -1  -9  114.89   14.40
   0  -1   9  107.59   18.20
   0   1  -9  110.39   14.30
   0   1   9   77.59   12.80
   0   1   9  103.09   18.70
   0   1   9   94.79   13.20
   0   1  -9  103.69   12.00
   1  -1   9  158.88   17.80
   1   1   9  152.28   18.20
  -1   1  -9  122.29   17.00
   1   1   9  155.78   17.70
   2  -1   9  391.96   40.30
   2  -1   9  311.37   40.10
  -2  -1  -9  353.56   40.10
   2  -1   9  339.17   40.20
   2   1   9  351.66   41.70
  -2   1  -9  407.26   40.50
   2   1   9  344.77   40.30
  -2   1  -9  404.26   39.60
   3  -1   9   31.40    6.80
   3  -1   9   55.39   11.90
  -3   1  -9   31.30    6.70
   3   1   9   17.00   15.10
  -3   1  -9   31.10    7.20
  -3   1  -9   10.90   13.30
   4  -1   9   80.79   13.00
   4  -1   9   98.39   13.40
   4   1   9   79.99   20.20
   4   1   9  100.59   13.60
   4   1   9  117.79   15.30
  -4   1  -9   88.89   24.30
  -4   1  -9   72.69   13.90
  -4   1  -9  118.19   16.50
  -4   1  -9   89.09   11.80
   5  -1   9   52.89   12.30
   5  -1   9   20.90    5.90
   5  -1   9   37.90    9.10
   5   1   9   25.00    6.20
   5   1   9   11.50    7.40
  -5   1  -9   22.20   10.60
  -5   1  -9   58.19   19.80
  -5   1  -9   17.40    5.60
  -5   1  -9   22.80    7.10
   6  -1   9    9.30    6.90
  -6  -1  -9    4.60    8.90
   6  -1   9   15.50    6.60
   6  -1   9    4.30    6.00
   6   1   9   11.30    7.30
   6   1   9    7.30    7.90
   7  -1   9   16.00    8.20
  -7  -1  -9    8.00   11.00
   7  -1   9    7.80    5.70
   7   1   9   11.20    5.50
  -7   1  -9   13.30    8.80
   7   1   9    3.70    8.60
  -7   1  -9    6.80    9.70
  -8  -1  -9   11.70   11.60
   8  -1   9    5.10    6.00
   8  -1   9    8.10   12.20
   8   1   9    5.10    8.80
   8   1   9   12.50    5.90
  -8   1  -9    5.80    9.60
   9  -2  -9   11.30   10.80
  -9   2   9    2.70   11.00
   9   2  -9    9.60    8.50
   8  -2  -9   -1.00   10.20
   8   2  -9   14.20    8.60
  -8   2   9    8.10    6.20
  -8   2   9    5.90   11.00
  -7  -2   9   25.40    6.60
   7  -2  -9   22.70    7.40
  -7   2   9   29.10    9.50
   7   2  -9   11.00    7.90
  -7   2   9   11.70   10.90
   6  -2  -9    8.50    7.80
   6  -2  -9   15.10    6.80
   6  -2  -9   10.10    8.70
  -6  -2   9   11.40    5.50
  -6   2   9    0.30    5.10
   6   2  -9   18.40    7.10
  -6   2   9   14.30   10.30
  -6   2   9   18.30    6.80
   5  -2  -9   79.19   13.00
  -5  -2   9   70.29   13.00
   5  -2  -9   84.69   14.50
   5  -2  -9   90.49   12.70
  -5   2   9  108.29   11.80
   5   2  -9   73.49   26.20
   5   2  -9   92.79   15.80
  -5   2   9   65.19   15.40
  -5   2   9   69.09   11.80
   4  -2  -9    5.10    5.90
  -4  -2   9   -1.10    5.40
   4  -2  -9   -2.90    9.40
   4  -2  -9   12.30    9.20
   4   2  -9    3.90    8.70
  -4   2   9    2.80    6.30
  -4   2   9    7.00   10.90
   4   2  -9    1.90   12.40
  -3  -2   9  381.76   41.80
   3  -2  -9  362.86   42.70
   3  -2  -9  380.66   42.40
   3  -2  -9  390.56   42.10
  -3  -2   9  370.46   41.80
   3   2  -9  332.97   41.80
  -3   2   9  392.26   41.50
  -3   2   9  384.16   41.50
   3   2  -9  390.06   42.50
   3   2  -9  317.47   50.49
   3   2  -9  387.26   41.10
  -3   2   9  423.96   44.10
  -2  -2   9   16.10    5.50
  -2  -2   9    8.90   23.80
   2  -2  -9    3.30    6.40
   2  -2  -9   -0.80    7.50
  -2  -2   9    1.20    6.10
  -2   2   9   13.00    4.60
  -2   2   9   26.40   13.20
  -2   2   9    9.80    6.20
   2   2  -9   -0.20    4.60
   2   2  -9   35.30   14.40
   2   2  -9   18.30   14.40
  -1  -2   9  124.39   15.40
   1  -2  -9  132.89   16.20
   1   2  -9  107.49   14.20
  -1   2   9   96.09   15.00
   1   2  -9  140.69   15.90
   0  -2  -9  139.49   17.20
   0  -2   9  128.29   16.20
   0  -2   9  121.69   16.40
   0  -2  -9  129.39   16.80
   0   2   9  128.29   15.50
   0   2  -9  124.79   16.70
   0   2   9  133.99   15.80
   0   2  -9  125.29   15.10
   0   2   9   90.79   20.40
   0   2  -9  143.79   17.00
  -1  -2  -9   29.10    6.50
   1  -2   9   14.90    7.80
   1  -2   9   11.40   13.90
  -1  -2  -9   18.70    6.40
   1  -2   9   -1.10    5.60
   1  -2   9   28.80    6.50
  -1   2  -9   13.90    8.30
  -1   2  -9   17.90    6.60
   1   2   9    2.60    4.50
   1   2   9   14.70    6.10
  -1   2  -9   12.30    5.20
   1   2   9    9.80    8.50
   1   2   9   -0.20   12.00
  -1   2  -9  -15.30   21.50
  -2  -2  -9  166.98   17.80
   2  -2   9  150.28   17.60
   2  -2   9  185.68   35.60
  -2  -2  -9  119.99   17.90
   2  -2   9  123.19   17.70
   2   2   9  124.29   21.10
   2   2   9  138.59   17.20
  -2   2  -9  149.39   16.50
   2   2   9  140.39   25.00
  -2   2  -9  133.19   18.00
   2   2   9  149.49   17.00
   3  -2   9   17.50    7.00
   3  -2   9   21.90    5.10
   3   2   9   18.90    9.60
  -3   2  -9   24.40    9.30
   3   2   9   22.50    7.10
  -3   2  -9   38.20    6.20
  -3   2  -9   24.10    7.70
   3   2   9   23.40    5.50
   3   2   9   17.50   15.90
   4  -2   9   -6.40    8.30
   4  -2   9   14.00    6.70
   4  -2   9   13.00    5.10
  -4   2  -9   11.60    8.80
  -4   2  -9   14.90    6.00
   4   2   9    6.90   15.20
   4   2   9   -4.20    8.60
  -4   2  -9   15.90    7.70
   4   2   9    8.50    4.50
  -5  -2  -9    8.10   16.10
   5  -2   9   51.39    9.90
   5  -2   9   47.00   12.80
   5  -2   9   31.20    9.80
  -5   2  -9   54.99   13.20
  -5   2  -9   27.60   10.00
   5   2   9   24.60    6.20
   5   2   9   18.60    9.20
  -5   2  -9   43.10    7.50
   6  -2   9   14.50   10.20
   6  -2   9    3.10    5.30
  -6  -2  -9    3.20    7.90
  -6   2  -9   -1.10    6.10
   6   2   9   -2.20    9.40
  -6   2  -9   -1.60    8.50
   6   2   9    2.50    5.20
   7  -2   9   24.10   22.80
   7  -2   9    5.70    5.50
  -7  -2  -9   23.40   10.20
   7   2   9    6.90    6.40
  -7   2  -9    0.80    9.10
   7   2   9    2.30    8.70
  -7   2  -9    9.40    6.10
   7  -3  -9   44.30   10.00
  -7  -3   9   26.60    7.30
   7   3  -9   28.80   10.90
  -7   3   9   32.70   12.10
   6  -3  -9   70.29   12.00
  -6  -3   9   45.20   11.70
   6   3  -9   73.39   14.30
  -6   3   9   57.59   15.50
  -5  -3   9   -0.10    6.00
   5  -3  -9   -6.90   10.20
  -5   3   9   12.90    6.20
  -5   3   9    5.80   12.20
   5   3  -9    3.80    9.30
   4  -3  -9   22.40    9.10
  -4  -3   9   14.10    9.00
  -4  -3   9    0.10    5.90
   4   3  -9   10.80   10.80
   4   3  -9   15.80    5.70
  -4   3   9   15.10    6.40
   3  -3  -9   74.19   16.60
   3   3  -9   38.20    7.20
   3   3  -9   19.60   11.90
   3   3  -9   29.80    8.20
  -3   3   9   18.80   14.30
  -2  -3   9   44.60    9.50
   2  -3  -9   70.29   12.40
   2  -3  -9   82.09   17.30
  -2  -3   9   23.90    7.60
   2   3  -9   64.39   11.30
  -2   3   9   19.60   13.60
   2   3  -9   41.70    7.50
  -1  -3   9   -1.80    5.70
  -1  -3   9   -0.90    6.20
   1  -3  -9    8.00    7.30
   1   3  -9    3.60    4.90
  -1   3   9    5.60   12.10
   1   3  -9  -15.40   15.60
   1   3  -9    2.80    6.60
   0  -3   9   82.19   11.70
   0  -3  -9   59.49   11.90
   0  -3  -9   69.99   14.20
   0  -3  -9   70.29   12.80
   0   3  -9   76.09   13.60
   0   3   9   81.59   10.00
   0   3   9   66.39   16.80
   0   3   9   67.59   10.80
   0   3  -9   73.59    9.80
   1  -3   9   -1.10    8.00
  -1  -3  -9    9.70    6.80
   1  -3   9    3.00    4.80
   1   3   9   12.40   11.80
   1   3   9    7.10    3.30
   1   3   9    6.50    8.30
  -1   3  -9   -3.70    6.30
   2  -3   9    3.50    4.70
  -2  -3  -9   -3.10    7.70
   2  -3   9    2.70    9.80
  -2  -3  -9    4.10    6.70
   2   3   9    2.80    4.10
  -2   3  -9    0.70    5.30
   2   3   9    4.70    6.90
   2   3   9    6.90   16.40
  -2   3  -9   -8.00    7.20
   2   3   9    5.40   10.00
  -3  -3  -9   -6.30    6.30
   3  -3   9    6.40    5.10
   3  -3   9  -17.80    9.60
   3   3   9   -2.10    7.10
  -3   3  -9   -0.10    5.20
  -3   3  -9   -8.50    8.20
   3   3   9    7.80   11.70
   3   3   9    1.60    4.30
   3   3   9   -4.20   16.20
   4  -3   9   10.00    5.10
  -4  -3  -9    0.30    8.20
  -4   3  -9    1.30    8.50
   4   3   9    3.80   16.40
  -4   3  -9    3.00    5.60
   4   3   9    9.80    7.90
   4   3   9    5.30    4.80
   4   3   9   -1.00   17.40
   5  -3   9  -16.20   10.80
   5  -3   9   11.60    6.80
   5   3   9    4.50    9.70
  -5   3  -9    9.90    6.00
   5   3   9   10.00   11.40
   5   3   9    3.10    6.00
  -5   3  -9   -3.00    9.40
   6  -3   9    5.70   10.20
   4   4  -9   10.70   10.80
  -3  -4   9   -1.60    6.70
   3  -4  -9   32.20   13.20
   3   4  -9    9.00    6.20
  -3   4   9    1.40    6.30
   3   4  -9    8.90    9.70
  -3   4   9   29.10   14.80
   2   4  -9   20.00    6.80
  -2   4   9   15.50    6.70
  -2   4   9   23.30   13.30
   1  -4  -9   91.79   19.30
   0  -4  -9   99.59   20.40
  -1  -4  -9   84.89   15.70
   2  -4   9   27.60   14.00
   2   4   9    4.70   19.80
  -2   4  -9   -3.50    5.80
  10   0 -10   10.50    7.40
 -10   0  10   10.20   11.70
 -10   0  10    0.70    6.60
   9   0 -10   33.80    7.70
  -9   0  10   27.80    6.90
  -9   0  10   22.00   11.90
   8   0 -10   10.00    6.70
  -8   0  10   13.40   10.40
  -8   0  10   15.50    6.40
  -7   0  10   13.70    9.70
   7   0 -10    8.00    6.00
  -7   0  10    5.90    5.20
   6   0 -10  403.86   44.60
  -6   0  10  404.16   45.80
  -5   0  10   73.79   12.70
   5   0 -10   87.19   12.60
  -5   0  10   99.49   17.20
  -4   0  10  265.17   36.10
  -4   0  10  306.17   33.60
   4   0 -10  285.57   33.30
   4   0 -10  328.67   33.20
  -3   0  10  898.01   90.69
  -3   0  10  772.92   91.19
   0   0  10 1022.60  101.99
   0   0 -10  954.60  101.69
   0   0  10  917.81  102.09
   0   0 -10  871.91  101.99
   1   0  10  931.71   93.09
  -1   0 -10  853.51   96.19
  -1   0 -10  820.62   93.19
  -1   0 -10  843.62   92.79
   1   0  10  848.02   93.29
   2   0  10   -1.80    5.30
   2   0  10    8.70    5.80
  -2   0 -10    3.30    3.60
  -2   0 -10    5.40    5.50
   2   0  10    0.60   13.60
  -3   0 -10    7.60    4.50
   3   0  10   14.40   12.30
   3   0  10    3.30    5.30
   3   0  10   -0.90    5.70
  -3   0 -10    3.90    6.00
   3   0  10   14.10    4.90
  -3   0 -10    4.70    9.50
  -4   0 -10    2.90    4.10
   4   0  10    3.00    5.60
   4   0  10    9.80    5.10
  -4   0 -10   10.10    6.40
   4   0  10   11.10    5.40
  -5   0 -10   15.50    8.40
   5   0  10    6.20    5.60
  -5   0 -10    7.20    4.80
   6   0  10    7.00    7.30
   6   0  10    0.30    5.80
  -6   0 -10    3.30   10.30
  -7   0 -10   -4.40   10.80
   7   0  10    9.00   10.90
   7   0  10   -0.30    5.70
  -8   0 -10    1.30   11.80
   8   0  10    1.30    5.90
   9  -1 -10    5.00    7.90
  -9   1  10    4.50   10.20
   9   1 -10    4.10    7.50
  -8  -1  10   23.90   12.80
  -8  -1  10    8.60    5.80
   8  -1 -10   -0.10   10.70
  -8   1  10   -0.50   10.30
   8   1 -10    5.40    7.40
   7  -1 -10   12.70    5.90
   7  -1 -10   27.10   10.10
  -7  -1  10   19.80    5.70
   7   1 -10   17.20    7.60
  -7   1  10   21.20   10.10
  -7   1  10   13.70    6.10
  -7   1  10    2.40    6.10
   6  -1 -10   56.69   10.00
   6  -1 -10   90.99   14.50
  -6  -1  10   30.00   18.80
  -6  -1  10   61.39   10.50
  -6   1  10   59.59    9.50
  -6   1  10   74.59   13.70
  -6   1  10   56.99   11.00
   5  -1 -10   69.09   12.00
   5  -1 -10  101.59   15.50
   5  -1 -10   81.39   12.60
  -5  -1  10  108.99   15.70
  -5  -1  10   85.79   12.70
   5   1 -10  103.29   13.10
   5   1 -10   92.69   33.50
  -5   1  10   74.99   11.70
  -5   1  10   87.89   15.80
  -5   1  10   76.99   12.60
   4  -1 -10   46.70    9.40
   4  -1 -10   41.30    8.20
  -4  -1  10   29.60   30.60
   4  -1 -10   46.50   10.50
  -4  -1  10   57.99   10.00
   4   1 -10   41.20   10.10
   4   1 -10   54.99    7.00
  -4   1  10   39.50   13.30
  -4   1  10   45.60    8.80
  -4   1  10   39.60    9.30
  -3  -1  10  384.06   39.30
   3  -1 -10  328.17   39.60
   3   1 -10  323.17   39.50
   3   1 -10  339.57   38.60
  -3   1  10  373.86   39.20
  -3   1  10  379.66   39.10
  -2  -1  10  402.46   42.70
  -2  -1  10  376.96   41.90
   2  -1 -10  336.47   42.00
  -2  -1  10  439.76   59.19
  -2   1  10  364.86   41.60
   2   1 -10  408.36   54.99
   2   1 -10  349.17   41.10
   2   1 -10  359.16   41.50
  -2   1  10  391.76   41.60
   2   1 -10  351.26   42.00
  -2   1  10  441.06   43.60
  -1  -1  10  129.79   18.00
   1  -1 -10  147.29   18.80
  -1  -1  10  146.19   18.20
  -1   1  10  166.78   18.00
   1   1 -10  144.99   16.80
  -1   1  10  163.48   18.00
   1   1 -10  145.09   18.70
   0  -1  10   38.60   10.00
   0  -1  10   54.29   10.10
   0  -1 -10   48.60   12.10
   0  -1 -10   53.99   10.50
   0  -1  10   41.20   13.40
   0   1  10   54.69   10.70
   0   1  10   46.10    9.40
   0   1 -10   61.19   11.10
   0   1  10   52.99   14.60
   0   1 -10   59.99    8.00
  -1  -1 -10   43.60    9.50
   1  -1  10   41.70    9.90
   1  -1  10   42.60   12.60
  -1   1 -10   52.19   11.00
  -1   1 -10   49.90    8.00
  -1   1 -10   67.99   22.00
   1   1  10   67.39   15.30
   1   1  10   40.10    9.50
   2  -1  10  461.55   57.79
   2  -1  10  525.35   57.89
  -2  -1 -10  587.74   57.89
   2   1  10  494.75   57.89
  -2   1 -10  574.04   57.39
   3  -1  10   81.89   11.60
   3  -1  10   67.29   11.60
   3   1  10   73.39   11.70
   4  -1  10   43.20    9.70
   4  -1  10   38.10    9.30
  -4   1 -10   32.50    7.10
   4   1  10   23.10   14.00
  -4   1 -10   27.50   12.40
   4   1  10   20.40    7.80
  -4   1 -10   19.00    7.60
  -4   1 -10   33.80    9.50
   4   1  10   34.00    6.40
   5  -1  10   10.20    6.40
   5  -1  10   16.10    5.50
  -5   1 -10    6.50    5.30
   5   1  10    6.20    6.80
  -5   1 -10   20.30   10.80
   5   1  10   19.60    6.00
  -6  -1 -10   11.60    9.60
   6  -1  10   46.70   10.90
   6   1  10   10.90    6.90
  -6   1 -10   26.20    6.10
   6   1  10   24.20    5.50
  -6   1 -10   15.20   10.40
  -7  -1 -10    5.80   10.70
   7  -1  10    3.30    5.10
   7  -1  10   18.10    8.40
   7   1  10    9.30    5.80
  -7   1 -10    7.90    9.90
   7   1  10    0.90    8.80
  -7   1 -10    9.60    9.30
   8  -1  10   71.99   14.80
   8  -1  10   48.10   11.20
  -8  -1 -10   30.10   12.00
   8   1  10   54.79   11.10
  -8   1 -10   22.70   11.70
   8   1  10   23.90   10.30
   9   2 -10   35.90    9.50
  -9   2  10   27.60   12.10
  -8  -2  10   19.60    6.00
   8  -2 -10    8.20   10.10
  -8   2  10    7.90   11.00
   8   2 -10    6.90    8.40
   7  -2 -10    6.90    6.80
  -7  -2  10    1.70    5.10
   7  -2 -10   -5.70    9.60
  -7   2  10   -5.90    9.60
   7   2 -10    4.40    6.60
   6  -2 -10   17.80   10.30
   6  -2 -10   14.40    7.10
   6  -2 -10   20.30    8.40
  -6   2  10   18.90   10.30
   6   2 -10   24.60    7.60
  -6   2  10   20.20    7.90
  -6   2  10   11.90    5.80
   6   2 -10   17.10   16.30
   5  -2 -10   42.40    9.80
  -5  -2  10   44.70    9.80
   5   2 -10   43.90    9.60
  -5   2  10   36.10    9.00
  -5   2  10   22.10   12.10
   4  -2 -10   12.60    6.40
  -4  -2  10   24.20    6.40
   4  -2 -10    9.10    9.60
   4  -2 -10   42.50    8.80
  -4   2  10   30.30    5.60
   4   2 -10   41.40    8.90
  -4   2  10   60.19   15.40
   4   2 -10   20.60   13.10
  -4   2  10   30.70    7.10
   3  -2 -10  349.07   37.40
  -3  -2  10  283.27   36.00
   3  -2 -10  340.97   36.70
   3  -2 -10  332.97   36.40
   3   2 -10  310.47   37.40
   3   2 -10  308.27   36.20
  -3   2  10  316.77   35.80
  -3   2  10  292.37   38.90
   3   2 -10  365.06   35.40
  -3   2  10  326.27   35.90
   2  -2 -10    7.80    7.50
  -2  -2  10  -19.00   28.10
   2   2 -10    6.70   14.10
  -2   2  10    4.80   12.60
  -2   2  10    2.50    6.60
   1  -2 -10   96.59   13.30
  -1  -2  10   85.89   12.90
  -1  -2  10   68.49   12.90
   1  -2 -10  102.09   13.70
  -1   2  10   81.69   12.10
   1   2 -10   91.89   11.10
   1   2 -10   85.79   13.30
  -1   2  10   78.69   12.20
   0  -2  10    4.20    6.20
   0  -2 -10    5.40    6.50
   0  -2  10   11.60   14.90
   0  -2  10    4.00    5.50
   0  -2 -10    1.80    6.40
   0   2  10    5.20    6.40
   0   2 -10    5.60    5.10
   0   2  10    7.60    4.30
   0   2 -10  -12.60   19.20
   0   2  10    9.50   12.40
   0   2 -10   -3.30    6.10
   1  -2  10  115.39   33.20
  -1  -2 -10  164.78   29.50
   1  -2  10  104.09   17.00
   1  -2  10  153.18   17.00
  -1  -2 -10  158.08   17.90
  -1   2 -10  128.39   18.90
   1   2  10  119.79   16.70
   1   2  10  131.69   16.80
  -1   2 -10  152.98   16.00
  -1   2 -10  132.49   17.50
   2  -2  10   29.80    6.70
  -2  -2 -10   32.50    7.30
   2  -2  10   16.70    6.40
  -2   2 -10   32.30    7.20
   2   2  10   19.20    7.30
   2   2  10    4.70   16.80
  -2   2 -10   28.40    5.80
   2   2  10   15.00    5.30
  -2   2 -10   22.80   10.10
   3  -2  10   65.09   10.40
   3   2  10   57.79   10.90
   3   2  10   46.00   12.30
  -3   2 -10   57.89   11.70
  -3   2 -10   58.69   13.30
  -3   2 -10   59.59    8.90
   3   2  10   60.19   10.80
   3   2  10   39.40   17.50
   4  -2  10   -4.70    8.10
   4  -2  10   -2.40    4.90
   4   2  10    5.00   15.60
   4   2  10    3.70    9.40
  -4   2 -10   -1.10    5.60
  -4   2 -10   12.10    9.60
  -4   2 -10    1.80    7.80
   4   2  10   -1.10    4.90
   5  -2  10   60.89   14.00
   5  -2  10   46.20   10.20
   5   2  10   36.90    6.50
  -5   2 -10   37.40    8.40
  -5   2 -10   26.40   10.10
   5   2  10   13.90    9.50
  -6   2 -10    6.90    8.80
  -6   2 -10    5.00    5.60
   6   2  10    5.60    5.40
   6   2  10    4.10    9.40
   7  -2  10    1.60    5.60
  -7  -2 -10   16.80    9.80
  -7   2 -10    1.50    6.00
   7   2  10    4.90    5.50
  -7   2 -10    1.90    8.90
   7   2  10    3.30    9.80
  -7  -3  10   37.30    8.60
   7  -3 -10   58.59   11.00
   7   3 -10   76.29   17.30
  -7   3  10   57.99   15.30
  -6  -3  10  118.09   15.70
   6  -3 -10   94.99   19.90
  -6   3  10  102.39   20.10
   6   3 -10  115.49   17.30
  -5  -3  10   27.90    9.80
  -5  -3  10   19.40    6.60
   5  -3 -10   15.80   11.20
   5   3 -10   21.00   10.30
  -5   3  10    2.90   13.00
   4  -3 -10    6.70   12.20
  -4  -3  10    7.20    6.00
   4   3 -10    8.40    5.50
  -4   3  10    5.60   13.40
   4   3 -10    1.90   11.50
  -3  -3  10   24.50    8.80
  -3  -3  10   28.60    7.10
   3   3 -10   50.39   11.20
   3   3 -10   33.20   12.30
  -3   3  10   23.30   17.70
  -3   3  10   28.80    7.40
  -2   3  10    3.70   12.50
   2   3 -10    4.90   10.70
   2   3 -10    7.50    6.70
   2   3 -10    8.20    5.00
   0  -3 -10   31.50    9.00
   0  -3  10   30.80    6.70
   0   3  10   26.90   13.10
   0   3  10   43.20    7.50
   1  -3  10    0.70    5.00
  -1  -3 -10    1.30    7.00
   1   3  10    1.90    3.90
  -1   3 -10   -1.90    5.10
   1   3  10    8.80   12.90
  -1   3 -10   -4.30    6.90
  -2  -3 -10   -8.90   14.60
   2  -3  10   -3.30    8.50
  -2  -3 -10    6.70    7.00
   2  -3  10    8.20    5.10
   2   3  10    3.40   10.70
   2   3  10    0.70    7.30
  -2   3 -10    5.80    5.30
  -2   3 -10    1.90    7.60
   2   3  10   16.40   17.60
   2   3  10    6.10    4.20
   3  -3  10    9.60    5.40
  -3  -3 -10   -1.90    6.70
   3   3  10   -1.10   17.10
   3   3  10   -1.40   11.00
   3   3  10    0.60    4.40
   3   3  10    4.90    7.70
  -3   3 -10   -5.20    8.20
  -3   3 -10   -0.80    5.50
   4  -3  10   17.90    5.50
  -4   3 -10    8.40    5.90
  -4   3 -10    4.10   13.00
   4   3  10    5.60   12.40
   4   3  10   16.70   17.00
   4   3  10    9.30    8.90
   5  -3  10  -12.40   11.60
   5  -3  10   17.00    6.40
  -5   3 -10   11.50    9.30
   5   3  10   11.70    5.90
   5   3  10   18.70   13.00
   5   3  10  -10.30   10.80
  -5   3 -10    6.90    6.10
   2  -4 -10  121.69   22.00
   1   4  10   32.40   17.00
  -9   0  11   28.30    6.40
   9   0 -11   22.40    7.30
  -9   0  11   11.10   11.10
  -8   0  11    9.50    5.50
   8   0 -11    7.40    6.50
  -8   0  11    7.80   10.80
  -7   0  11   74.29   15.70
   7   0 -11   64.89   11.00
  -7   0  11   41.10    8.00
   6   0 -11  549.45   57.59
  -6   0  11  479.95   57.59
  -6   0  11  553.44   58.99
   5   0 -11   55.29   10.00
  -5   0  11   52.09   10.30
   4   0 -11  361.96   40.80
  -4   0  11  311.37   42.90
  -4   0  11  428.96   41.00
  -3   0  11  571.74   56.19
   3   0 -11  433.66   54.99
  -3   0  11  514.55   55.39
  -3   0  11  504.15   55.19
   3   0 -11  503.05   54.79
   2   0 -11  120.99   15.40
  -2   0  11  127.59   16.30
   1   0 -11  115.49   32.20
  -1   0  11  169.38   18.80
   0   0  11    2.90    5.20
   0   0 -11    1.10    4.30
   0   0 -11    9.90    5.50
   0   0 -11   16.20   23.40
   0   0  11   23.20   13.80
   0   0  11    2.90    5.70
   1   0  11  279.97   37.50
   1   0  11  271.67   33.40
  -1   0 -11  306.07   32.90
   1   0  11  322.57   33.70
  -1   0 -11  316.27   33.70
  -2   0 -11   15.60    3.90
   2   0  11   10.90    5.40
   2   0  11    8.00    5.70
   2   0  11   -2.10   13.80
  -2   0 -11    9.20    5.90
  -2   0 -11    2.10    9.00
   3   0  11   66.69   17.50
   3   0  11   32.30    9.60
   3   0  11   57.39   10.40
  -3   0 -11   41.30   10.50
  -3   0 -11   48.90    7.40
  -4   0 -11   83.29   13.40
  -4   0 -11   99.29   22.30
   4   0  11   76.19   13.10
  -4   0 -11   87.89   10.70
   4   0  11   80.59   12.70
   4   0  11   91.09   12.30
  -5   0 -11    1.60    8.20
   5   0  11   12.40    6.50
   5   0  11   11.80    5.70
  -5   0 -11   20.10    5.10
   6   0  11   62.09   11.00
   6   0  11   51.59   11.60
  -6   0 -11   31.40   11.30
  -7   0 -11   -0.80   11.80
   7   0  11   10.40    5.40
   7   0  11   13.40    7.80
  -8   0 -11   16.70   12.10
  -9  -1  11   10.40    5.90
   9  -1 -11    0.50    7.50
   9   1 -11    2.30    5.60
  -9   1  11  -14.00    6.50
  -9   1  11    3.00   10.50
  -8  -1  11    7.50    5.10
  -8  -1  11   16.60   14.50
  -8   1  11    3.70    9.80
   8   1 -11   -0.40    5.80
  -8   1  11  -11.20    7.80
   7  -1 -11   13.90    6.30
  -7  -1  11   14.00    5.40
   7  -1 -11   32.90   10.70
  -7  -1  11   44.70   13.90
  -7   1  11   11.50    6.70
   7   1 -11   13.60    6.40
  -7   1  11   12.50    6.10
   6  -1 -11   36.80    9.40
  -6  -1  11   43.50   12.50
  -6   1  11   19.30    7.10
  -6   1  11   18.30   11.40
  -5  -1  11   88.49   14.20
   5  -1 -11   60.09   12.00
   5  -1 -11  101.59   14.30
  -5  -1  11   72.39   11.90
   5  -1 -11   64.49   12.10
  -5   1  11   60.29   11.40
   5   1 -11   93.89   12.10
  -5   1  11   75.59   11.10
  -5   1  11   75.69   16.40
  -4  -1  11   78.29   13.80
   4  -1 -11  118.79   14.10
   4  -1 -11   94.69   14.20
  -4   1  11   76.69   13.60
   4   1 -11   75.29   14.10
   4   1 -11  118.69   14.00
  -4   1  11  108.89   13.00
  -3  -1  11  182.28   22.10
   3  -1 -11  192.78   22.50
  -3  -1  11  177.88   22.20
   3  -1 -11  180.58   23.00
  -3  -1  11  203.48   23.60
  -3  -1  11  232.58   58.99
   3  -1 -11  217.88   22.30
   3   1 -11  206.48   22.90
   3   1 -11  170.28   22.60
  -3   1  11  199.08   21.90
  -3   1  11  174.18   21.90
   3   1 -11  168.28   21.00
   3   1 -11  188.98   34.80
  -2  -1  11   15.50   18.10
  -2  -1  11   44.80   12.10
  -2  -1  11   46.50    9.80
   2  -1 -11   35.40    8.20
   2   1 -11   31.50   16.90
  -2   1  11   53.29    8.50
   2   1 -11   33.90    8.10
   2   1 -11   43.80    7.20
  -2   1  11   58.79   13.10
  -2   1  11   50.19    9.20
  -1  -1  11   89.89   19.20
   1  -1 -11  103.29   12.80
  -1  -1  11   81.69   11.90
  -1  -1  11   68.69   12.30
   1   1 -11   99.59   13.30
  -1   1  11   86.49   13.10
  -1   1  11   68.79   12.40
  -1   1  11   74.39   18.20
   1   1 -11   85.69   10.60
   1   1 -11   77.09   30.90
   0  -1  11   40.10    9.70
   0  -1 -11   36.40    9.40
   0  -1  11   56.59   13.40
   0  -1  11   23.30   16.40
   0  -1  11   36.90    9.00
   0   1  11   35.80    8.90
   0   1 -11   42.00   10.60
   0   1  11   57.99   14.40
   0   1 -11   44.90   16.50
   0   1 -11   49.50    7.20
   0   1  11   53.09   10.60
   1  -1  11   80.79   12.40
   1   1  11   90.39   12.60
   2  -1  11  219.18   25.70
  -2  -1 -11  211.88   25.70
   2  -1  11  239.28   25.90
  -2   1 -11  146.89   44.30
   2   1  11  248.88   26.10
  -2   1 -11  240.38   25.00
   2   1  11  217.78   26.50
  -2   1 -11  211.58   26.10
   2   1  11  237.08   32.10
   3  -1  11   30.90    8.50
   3  -1  11   23.00    5.80
   3   1  11   31.60   15.70
   3   1  11   12.30    7.40
  -3   1 -11   23.20   14.30
  -3   1 -11   31.70    6.30
  -3   1 -11   22.10    7.00
   3   1  11   30.70    6.20
   4  -1  11    6.20    5.80
   4  -1  11   10.90    5.80
   4   1  11   11.40   14.60
  -4   1 -11   22.10   12.30
   4   1  11    9.50    7.40
  -4   1 -11   -5.80    7.10
  -4   1 -11    7.00    8.70
   4   1  11    9.70    5.30
  -4   1 -11    7.30    5.40
   5  -1  11   11.50    5.50
   5  -1  11    2.20    6.00
   5   1  11   11.10    6.00
   5   1  11   13.00    8.00
  -5   1 -11   16.50   14.90
  -5   1 -11   -2.10    5.40
   6  -1  11   48.70   10.90
  -6  -1 -11   15.40    8.90
  -6   1 -11   24.90    6.30
   6   1  11   17.90    7.90
  -6   1 -11   27.70   10.60
  -6   1 -11   17.10    8.30
   7  -1  11   10.30    5.70
  -7  -1 -11    7.20   10.70
   7  -1  11   21.80    9.20
   7   1  11   18.50    6.20
   7   1  11    4.60    8.20
  -7   1 -11   10.70   10.20
  -8  -2  11   14.00    6.10
   8  -2 -11   23.40    9.70
   8   2 -11   22.20    6.80
  -8   2  11   12.90    7.10
  -8   2  11    0.60    6.30
  -8   2  11   17.00   10.50
  -7  -2  11   12.40    5.70
   7  -2 -11    5.20    8.90
  -7   2  11   -2.30    5.90
   7   2 -11    3.80    7.60
  -7   2  11    3.70   10.60
  -6  -2  11    2.60    5.80
   6  -2 -11   21.60    6.80
   6  -2 -11   -0.60    8.10
   6   2 -11   20.40   16.40
   6   2 -11    8.30    9.10
  -6   2  11   -0.80   11.30
  -6   2  11   -0.20    5.90
  -5  -2  11   54.59   10.30
   5  -2 -11   40.00   10.00
  -5   2  11   59.19    9.60
   5   2 -11   32.90   10.00
  -4  -2  11   87.59   13.90
   4  -2 -11  103.69   14.00
   4  -2 -11   69.59   17.60
  -4  -2  11  107.39   13.60
   4   2 -11   81.79   14.60
  -4   2  11  114.69   13.00
  -4   2  11   91.49   13.10
  -4   2  11   69.99   18.90
   4   2 -11   94.59   11.70
   3  -2 -11   16.20    7.30
  -3  -2  11   16.30    6.70
   3  -2 -11   16.90    6.60
  -3  -2  11   13.40    6.00
   3   2 -11   15.70    4.90
  -3   2  11   22.70   13.50
   3   2 -11   -0.60   13.50
   3   2 -11   18.40    9.00
  -3   2  11   20.00    6.90
   3   2 -11    2.20    6.60
  -3   2  11   18.90    5.50
   2  -2 -11    8.90    6.30
  -2  -2  11  -13.70   22.30
   2  -2 -11    7.40    7.30
  -2   2  11    2.30    7.00
  -2   2  11    2.00   11.90
   1  -2 -11  122.79   16.70
  -1  -2  11  126.99   39.80
  -1  -2  11   89.69   13.90
   1  -2 -11   88.09   14.30
   1  -2 -11   86.09   14.40
  -1  -2  11   93.49   13.80
   1   2 -11   92.99   12.10
  -1   2  11  101.59   13.40
  -1   2  11   76.59   18.90
  -1   2  11  106.99   13.40
   0  -2 -11   48.10   10.40
   0  -2  11   24.10    6.20
   0  -2  11   21.10    7.00
   0  -2 -11   27.10    7.40
   0   2  11   31.00    7.50
   0   2  11   12.20   13.60
   0   2 -11   27.40    5.80
   0   2  11   20.70    5.70
   0   2 -11   19.40    7.30
  -1  -2 -11   23.40    7.80
  -1  -2 -11   29.70    7.70
   1  -2  11   22.10    7.60
   1  -2  11   46.40    9.20
   1  -2  11   20.80    7.20
   1   2  11   45.60    8.80
  -1   2 -11   16.90    7.30
  -1   2 -11   32.90    7.00
   2  -2  11  123.69   17.00
  -2  -2 -11  143.79   17.70
   2  -2  11  163.68   17.50
  -2   2 -11  141.69   15.60
   2   2  11  123.79   16.70
   2   2  11   87.39   22.80
   2   2  11  115.49   16.70
  -2   2 -11  129.59   17.40
  -2   2 -11  116.29   19.50
   3  -2  11   79.29   12.00
   3  -2  11   59.69   11.00
   3   2  11   58.39   11.20
   3   2  11   30.80   18.10
   3   2  11   41.00   10.70
  -3   2 -11   69.59    9.30
  -3   2 -11   59.09   14.70
   4  -2  11   76.89   14.60
  -4  -2 -11   50.09   10.80
   4  -2  11   68.69   11.40
  -4   2 -11   61.69    9.40
  -4   2 -11   64.89   15.20
   4   2  11   50.09   17.80
   4   2  11   38.80   11.60
   4   2  11   65.59   11.30
   5  -2  11   20.70    5.90
  -5   2 -11   16.00    6.60
   5   2  11   14.20    9.90
   5   2  11   22.90    5.80
  -5   2 -11   19.50    9.70
   6   2  11   14.50    5.80
  -6   2 -11    4.80   10.10
  -6  -3  11   87.19   13.70
   6  -3 -11   93.89   14.20
  -6   3  11   60.89   18.50
   6   3 -11   94.09   17.10
   5  -3 -11   32.00   11.50
  -5  -3  11   47.60   10.70
  -5   3  11   21.70   14.80
   5   3 -11   43.60   11.40
   4   3 -11   -1.20    5.30
  -4   3  11    2.90   14.50
   4   3 -11    0.70    7.40
   4   3 -11   -1.60   11.80
  -3  -3  11   95.09   15.80
   3  -3 -11  100.49   17.70
  -3   3  11   56.29   10.70
  -3   3  11   30.10   15.60
   3   3 -11   70.79    9.50
   0   3  11    4.40    7.90
   0   3  11    5.70   13.90
   1  -3  11    9.70    5.50
   1   3  11   12.20   13.80
  -1   3 -11    7.70    7.60
   1   3  11   11.20    7.10
  -1   3 -11   16.80    5.70
   1   3  11   15.20    4.80
  -2  -3 -11   -4.10   15.40
   2  -3  11   14.50    5.50
   2  -3  11   -3.40   10.20
   2   3  11   16.10   18.60
   2   3  11   19.70    6.90
  -2   3 -11    7.80    8.50
  -2   3 -11   10.40    5.50
   2   3  11   10.80    7.50
  -3  -3 -11   -6.60   15.40
   3  -3  11    6.70    5.70
  -3   3 -11   -3.00    8.30
   3   3  11    0.20    8.30
   3   3  11    0.40   11.10
  -3   3 -11   -1.20    5.50
   3   3  11   -0.10    4.60
   4  -3  11   13.80    5.60
   4   3  11   -1.50   17.20
   4   3  11    4.30    4.80
  -4   3 -11   -2.20    9.00
   4   3  11    4.30   10.10
   4   3  11    3.90   12.10
  -4   3 -11    2.00    5.70
   5  -3  11  -12.30   12.10
  -1  -4  11  337.17   43.30
   9   0 -12   17.60    7.20
  -9   0  12    2.40    6.20
  -9   0  12   12.90   12.30
   8   0 -12   26.80    7.30
  -8   0  12   21.40    6.20
  -7   0  12   24.00   13.40
   7   0 -12   25.70    6.80
  -6   0  12  297.97   39.00
  -6   0  12  400.76   41.50
   6   0 -12  365.96   39.10
  -5   0  12  285.07   34.40
   5   0 -12  339.27   33.90
   5   0 -12  292.77   34.30
   4   0 -12   82.69   11.60
  -4   0  12  103.09   13.10
   4   0 -12   85.69   12.10
  -4   0  12   77.49   12.70
  -3   0  12   51.99   10.20
  -2   0  12  165.18   20.00
  -2   0  12  179.48   19.40
   2   0 -12  151.08   19.00
   2   0 -12  153.98   18.50
   1   0 -12  300.67   32.00
   1   0 -12  287.77   32.60
  -1   0  12  285.47   32.80
   0   0  12   47.00    9.30
   0   0 -12   28.20   20.10
   0   0 -12   32.90    9.00
   0   0  12   32.50    7.20
   0   0  12   40.40   15.00
   0   0 -12   37.30    6.50
  -1   0 -12   33.50    5.70
   1   0  12   24.20    6.10
   1   0  12   37.60    8.40
  -1   0 -12   32.70    6.30
  -1   0 -12   27.20   20.20
   1   0  12   33.30   14.90
  -2   0 -12    7.80    9.20
   2   0  12    1.20    5.20
  -2   0 -12    1.90    3.90
   2   0  12    0.70    5.10
   2   0  12    9.00   14.10
  -2   0 -12    0.20    5.70
  -3   0 -12   11.20    4.70
   3   0  12    7.60    5.30
   3   0  12   -6.50   13.40
  -3   0 -12   15.70    8.90
   3   0  12    3.80    5.60
  -3   0 -12    3.00    6.40
  -4   0 -12    5.50    6.70
  -4   0 -12   16.20    4.60
   4   0  12    6.70    5.40
   4   0  12   10.40    5.80
  -5   0 -12    9.70    5.10
   5   0  12   11.70    5.70
  -5   0 -12   -4.90    6.80
  -5   0 -12   11.20    8.40
  -6   0 -12    5.60    4.90
   6   0  12   15.40    6.50
  -6   0 -12    9.50   10.00
  -7   0 -12   14.20   12.60
   7   0  12   14.70    5.70
  -9  -1  12   15.90    5.70
   9  -1 -12   12.40    7.20
   9   1 -12   14.40    6.50
  -9   1  12    8.60   10.50
  -9   1  12    1.20    6.50
   8  -1 -12   37.60   10.00
   8  -1 -12   19.20    8.00
  -8  -1  12   18.60    6.00
  -8   1  12   15.10    8.30
  -8   1  12   14.10    6.40
  -8   1  12   15.50   12.00
   8   1 -12   10.90    7.00
  -7  -1  12   32.20    6.50
   7  -1 -12   15.80    6.40
  -7  -1  12   64.09   17.10
  -7   1  12   28.70    6.80
  -7   1  12   25.80   12.00
   7   1 -12   42.00   10.40
  -7   1  12   24.20    8.40
  -6  -1  12   56.69   11.50
  -6  -1  12   70.69   14.90
  -6   1  12   38.50   10.70
  -6   1  12   74.19   15.80
   6   1 -12   77.69   11.60
  -6   1  12   45.10    9.80
   5  -1 -12   80.99   11.70
   5  -1 -12   76.19   12.20
  -5  -1  12   64.59   14.80
  -5  -1  12   65.79   11.60
  -5   1  12   67.99   17.40
  -5   1  12   57.99   12.00
  -5   1  12   71.69   11.60
   5   1 -12   93.79   12.50
   4  -1 -12   85.99   12.30
  -4  -1  12   80.99   11.10
  -4  -1  12   40.40   11.10
   4  -1 -12   74.79   13.10
  -4   1  12   55.39   11.20
   4   1 -12   75.39   11.90
   4   1 -12   72.19    8.90
  -4   1  12   40.40   11.30
  -3  -1  12  138.19   17.80
  -3  -1  12  121.19   19.30
  -3  -1  12  133.79   17.80
   3  -1 -12  162.58   17.60
   3  -1 -12  142.59   17.60
  -3   1  12  132.49   20.80
  -3   1  12  133.09   17.10
   3   1 -12  137.39   16.00
   3   1 -12  128.19   18.70
   3   1 -12  132.79   18.00
  -3   1  12  169.88   17.80
  -2  -1  12    3.20    5.80
  -2  -1  12    6.10   11.70
  -2  -1  12   16.30   14.20
   2  -1 -12    4.60    6.00
  -2  -1  12    5.50    5.60
   2   1 -12  -15.00   16.60
   2   1 -12    5.10    4.50
  -2   1  12    5.40    5.70
   2   1 -12    2.70    6.50
  -2   1  12    9.80    8.10
  -2   1  12    4.90   13.00
  -1  -1  12   31.30   14.70
  -1  -1  12   54.09    9.40
  -1  -1  12   51.49   14.50
  -1  -1  12   51.29   10.60
   1  -1 -12   52.09   10.00
  -1   1  12   48.50   10.20
  -1   1  12   50.69   13.70
  -1   1  12   58.99   11.30
   1   1 -12   52.59    7.80
   1   1 -12   57.39   11.00
   0  -1  12  197.88   22.00
   0  -1 -12  193.68   22.20
   0   1  12  182.58   22.90
   0   1 -12  181.28   21.30
   0   1 -12  191.28   22.70
  -1  -1 -12   13.00    6.00
   1  -1  12    9.00    5.80
   1  -1  12   10.40   12.70
  -1   1 -12   24.60    5.20
  -1   1 -12   -8.40   17.60
   1   1  12   11.30    5.20
   1   1  12   22.60   16.30
  -1   1 -12   11.20    6.70
   2  -1  12   20.00    5.50
  -2  -1 -12   22.50    6.10
   2  -1  12    7.80    5.20
  -2   1 -12   22.90    5.00
   2   1  12   11.20    5.40
   2   1  12    5.00   16.40
  -2   1 -12   -7.00   18.40
   2   1  12   -2.90    6.70
  -2   1 -12   10.80    6.50
   3  -1  12   39.20    9.30
   3   1  12   41.00    9.70
  -3   1 -12   17.80   17.20
   3   1  12   20.30    8.10
   3   1  12   22.50   16.30
   4  -1  12    7.30    5.60
  -4  -1 -12    6.40    3.80
   4  -1  12    1.40    5.50
  -4   1 -12   -2.40    5.00
  -4   1 -12    4.10    8.60
   4   1  12   -2.20    6.50
   4   1  12    1.20    5.60
  -4   1 -12   25.50   14.10
   4   1  12    2.00   14.60
   5  -1  12    6.70    5.50
   5  -1  12    3.00    5.90
  -5   1 -12   -2.70    5.70
   5   1  12    8.00    6.10
   5   1  12    6.70    7.70
  -5   1 -12   10.20   10.40
  -6  -1 -12    6.50    8.60
   6  -1  12   25.50    6.60
   6   1  12   29.20    6.00
   6   1  12   13.80   13.70
  -6   1 -12    8.10    6.30
  -6   1 -12   10.00   10.80
  -7  -1 -12   12.70   10.50
   7  -1  12   16.50    6.10
   7   1  12    9.60   10.90
  -7   1 -12    6.00   11.10
  -7   1 -12    9.60    6.60
   7   1  12   14.90    6.20
  -8  -2  12   12.70    5.70
   8  -2 -12   16.40    9.90
  -8   2  12    6.40   11.30
   8   2 -12   11.60    7.80
   7  -2 -12   -1.30    9.70
  -7  -2  12    8.90    5.70
  -7   2  12   -2.80    6.30
   7   2 -12   -0.50    9.80
  -7   2  12    9.70    6.90
  -7   2  12   -1.80   11.80
  -6  -2  12   18.30    6.00
   6  -2 -12   11.00    8.50
  -6   2  12    9.10    6.20
  -6   2  12    0.60   12.00
   6   2 -12   13.10    9.10
  -6   2  12   19.80    8.10
  -5  -2  12   28.80   10.10
   5  -2 -12   30.90    8.90
   5   2 -12   10.50   12.90
  -5   2  12   16.30   13.10
   5   2 -12   27.60    9.80
  -5   2  12   49.30    8.60
  -4  -2  12   51.09   10.30
   4  -2 -12   43.30   10.60
  -4  -2  12   64.59   10.80
   4  -2 -12   66.59   11.90
   4  -2 -12   61.39   11.70
  -4   2  12   49.40   15.50
  -4   2  12   58.89   10.40
   4   2 -12   50.99   13.70
   4   2 -12   52.89    8.50
  -4   2  12   57.89   10.50
   3  -2 -12   38.80   10.00
  -3  -2  12   23.50    6.70
   3  -2 -12   29.00    8.10
  -3  -2  12   34.80    9.40
   3   2 -12   20.20   10.60
   3   2 -12   26.70    5.80
  -3   2  12   33.70   13.20
  -3   2  12   28.20    6.30
   3   2 -12   12.20    7.20
  -3   2  12   37.70    7.90
   3   2 -12    5.30   14.40
   2  -2 -12   17.70    6.70
  -2  -2  12    2.70   19.00
  -2  -2  12   12.40    6.40
  -2  -2  12   17.80    7.00
   2  -2 -12   15.40    7.30
   2   2 -12   18.80    5.20
   2   2 -12    3.40    7.00
  -2   2  12    4.20   12.50
  -2   2  12   13.90    5.40
  -2   2  12   16.60    7.50
  -1  -2  12    6.10    6.20
   1  -2 -12   10.30    7.50
   1  -2 -12   15.50    7.10
  -1  -2  12   10.70    6.90
   1   2 -12    2.30    6.90
  -1   2  12   20.90    5.90
  -1   2  12   17.00   13.10
  -1   2  12   18.70    7.50
   1   2 -12  -15.20   16.10
   1   2 -12   11.20    5.30
   0  -2  12   14.70    6.70
   0  -2 -12    8.10    7.10
   0  -2 -12    7.40    7.50
   0  -2  12   10.90    5.60
   0   2 -12    1.20    7.00
   0   2  12    6.90    4.90
   0   2  12    4.90   13.80
   0   2 -12    6.40    5.40
   0   2  12    7.20    7.40
  -1  -2 -12   24.40    8.40
   1  -2  12    7.50    6.20
  -1  -2 -12   43.50   17.80
  -1  -2 -12   13.70    7.50
   1   2  12   14.20    7.80
   1   2  12   13.80    5.60
  -1   2 -12   15.70    5.70
   1   2  12   21.90   15.60
  -1   2 -12    4.90    7.50
  -2  -2 -12  185.58   23.30
  -2  -2 -12  182.48   23.70
   2  -2  12  187.08   23.00
   2  -2  12  227.78   24.00
  -2   2 -12  206.68   24.90
  -2   2 -12  203.38   22.70
   2   2  12  176.78   22.90
   2   2  12  184.58   22.70
   2   2  12  153.78   30.80
  -3  -2 -12  140.69   18.80
   3  -2  12  150.28   18.00
   3   2  12  150.18   18.30
  -3   2 -12  120.09   21.30
   4  -2  12   29.40    6.80
  -4   2 -12   32.20   10.80
  -4   2 -12   25.90    6.80
   4   2  12   23.30   11.70
   4   2  12   33.10   17.50
   4   2  12   29.70    6.60
   5  -2  12   12.20    5.80
   5   2  12   10.90   10.80
  -5   2 -12    5.90    6.30
   5   2  12    9.40    5.00
  -5   2 -12   18.00    9.80
   6  -2  12   30.00    7.10
  -6   2 -12   37.50    8.10
  -6   2 -12   18.30   10.70
   6   2  12   33.80    6.70
   6  -3 -12   36.50   11.00
  -6   3  12   23.40   15.30
   6   3 -12   31.10   10.70
   5  -3 -12   12.20   10.90
  -5  -3  12   29.60    6.60
   5   3 -12   20.40   12.60
  -5   3  12   22.00   15.20
  -4  -3  12   16.40    6.40
   4  -3 -12   12.80   11.40
  -4   3  12    6.80   14.30
   4   3 -12   -1.30   12.30
  -3   3  12    2.20   13.00
   3   3 -12  -10.60    9.90
   3   3 -12   13.90    5.70
   0  -3 -12   15.60   12.20
   0  -3  12   16.50    6.40
   0   3  12   10.90    7.80
   0   3 -12   22.40    6.30
   0   3  12   15.30    4.90
   0   3  12   18.40   14.80
   1  -3  12   21.00    6.40
  -1   3 -12   20.50    6.70
  -1   3 -12   43.50   11.50
   1   3  12   23.10   15.90
   2  -3  12   56.39   10.40
  -2   3 -12   26.30   10.10
   2   3  12   52.09   20.00
  -2   3 -12   42.90    8.00
   2   3  12   44.30    9.40
   2   3  12   27.40   11.10
   3  -3  12   10.20    6.00
  -3   3 -12    1.90    5.70
   3   3  12    8.90   16.80
   3   3  12    2.80   18.20
   3   3  12    4.70    9.40
   3   3  12    6.80    5.30
   4  -3  12    9.10    6.70
  -4   3 -12    0.00    9.00
  -4   3 -12   10.00    5.90
   4   3  12   -4.60   17.70
   4   3  12   11.80    5.30
   4   3  12   -8.30   10.90
   4   3  12   -1.70   11.20
  -9   0  13    4.60    6.20
  -9   0  13   24.00   13.80
   9   0 -13   12.00    7.50
  -8   0  13   46.40   16.30
  -8   0  13   65.39   11.70
   8   0 -13   78.29   13.50
   7   0 -13   15.80    6.70
  -7   0  13   12.10   13.80
  -7   0  13   15.60    6.00
   6   0 -13   98.99   13.00
  -6   0  13   65.59   12.80
  -6   0  13   86.39   18.50
   5   0 -13  156.88   17.80
  -5   0  13  137.49   17.80
   5   0 -13  162.08   16.40
   5   0 -13  134.79   17.00
  -5   0  13  104.89   21.70
   4   0 -13   75.49    9.40
   4   0 -13   70.79   12.70
  -4   0  13   79.29   12.10
   4   0 -13   61.89   10.30
  -3   0  13    9.70   11.40
   3   0 -13   29.80    6.30
   3   0 -13   34.70    7.80
  -3   0  13   37.90   10.20
   2   0 -13   27.80    6.00
  -2   0  13   27.10    7.20
   2   0 -13   37.20    6.50
   1   0 -13  346.07   38.60
   1   0 -13  345.37   38.00
  -1   0  13  354.66   38.80
   0   0  13   96.59   22.30
   0   0  13  109.99   14.60
   0   0 -13  107.39   12.60
   0   0 -13  112.99   14.20
   0   0  13   99.69   14.40
   1   0  13   21.90    5.50
   1   0  13   32.70   14.90
  -1   0 -13   22.50    4.40
  -1   0 -13   14.80    5.60
   1   0  13   11.00    6.20
  -1   0 -13   32.40   14.90
   2   0  13    1.30    4.40
   2   0  13    8.60   14.50
  -2   0 -13    1.90    4.10
  -2   0 -13   -2.10    5.70
   2   0  13   -3.70    5.60
   3   0  13   27.90   13.90
  -3   0 -13    4.70    6.90
   3   0  13   21.70    6.00
  -3   0 -13   21.20    5.10
   4   0  13   94.09   14.20
  -4   0 -13  104.89   21.90
   4   0  13   92.39   13.90
  -4   0 -13   81.39   14.50
  -4   0 -13  109.69   11.90
   5   0  13    5.80    6.50
  -5   0 -13   -4.60    7.50
  -5   0 -13   -0.50    5.30
  -5   0 -13    2.00    8.20
   5   0  13    6.30    5.80
   6   0  13    9.30    6.30
  -6   0 -13    3.50   10.30
  -7   0 -13    5.20   11.90
  -9   1  13  -10.30    6.80
  -8  -1  13   14.90    5.70
   8  -1 -13   13.70    7.70
   8   1 -13   13.60    8.80
  -8   1  13    8.40   13.40
  -8   1  13    9.00    6.70
  -8   1  13    1.50   12.30
   7  -1 -13   92.29   15.20
  -7  -1  13   67.09   12.70
  -7  -1  13   93.19   17.20
  -7   1  13   70.59   13.10
  -7   1  13   82.29   17.80
   7   1 -13   92.69   13.40
   6  -1 -13  106.39   15.20
  -6  -1  13  122.49   18.60
   6  -1 -13  113.79   15.80
  -6  -1  13  115.19   15.60
  -6   1  13  104.19   20.50
  -6   1  13  124.89   15.70
  -6   1  13  147.49   15.90
  -5  -1  13   26.50    6.60
   5  -1 -13   37.50    9.70
   5  -1 -13   38.30    8.90
  -5  -1  13   22.20   10.80
  -5   1  13   39.80    8.80
  -5   1  13   18.40    6.70
   5   1 -13   26.80    7.90
  -5   1  13   20.60   13.80
   5   1 -13   35.50    5.90
  -4  -1  13  -15.90   22.50
   4  -1 -13   21.30    7.00
  -4  -1  13   15.50    5.80
  -4  -1  13    6.80   10.00
  -4   1  13   -2.40   12.60
   4   1 -13   27.10    5.50
   4   1 -13   -2.60   11.70
  -4   1  13   28.90    8.30
  -4   1  13   12.80    6.00
   4   1 -13    4.70    7.60
  -3  -1  13   45.20   10.30
   3  -1 -13   60.09   10.10
  -3  -1  13   24.20   17.00
  -3  -1  13   35.80   11.80
  -3  -1  13   47.60   10.40
  -3   1  13   53.09   10.00
   3   1 -13   45.70   11.00
  -3   1  13   57.09   11.20
  -3   1  13   42.70   13.20
   3   1 -13   59.09    7.70
   2  -1 -13    0.60    5.50
  -2  -1  13   -3.10   12.60
  -2  -1  13    0.80    5.60
  -2  -1  13    4.70    5.70
   2   1 -13   -4.90    6.40
  -2   1  13   -1.40    5.50
   2   1 -13    1.20    4.80
  -2   1  13    1.60    8.50
  -2   1  13    3.70   12.40
  -1  -1  13   19.10    6.00
  -1  -1  13   18.20   13.10
  -1  -1  13    6.30    5.50
   1  -1 -13   10.00    6.00
   1   1 -13   12.20    4.80
   1   1 -13    7.50    6.70
  -1   1  13   22.60    8.90
  -1   1  13   15.70    5.80
  -1   1  13   12.80   13.80
   0  -1  13   -2.60   13.10
   0  -1  13   24.20    6.60
   0   1  13   10.20   13.90
   0   1 -13   42.10    9.80
   0   1  13   19.70    5.80
   1  -1  13   45.60   14.20
   1  -1  13   35.60    8.90
  -1  -1 -13   43.30    9.80
   1  -1  13   46.50    9.60
   1   1  13   68.69   18.40
   1   1  13   57.19   10.00
  -1   1 -13   55.49    7.90
  -1   1 -13   37.60    8.40
   2  -1  13   48.60    9.20
   2  -1  13   43.00   10.30
  -2  -1 -13   41.30    9.50
  -2   1 -13   30.80    8.10
   2   1  13   40.80   17.90
  -2   1 -13   51.69    7.60
   2   1  13   44.10   10.60
  -3  -1 -13   12.30    6.00
   3  -1  13    7.60    5.60
   3  -1  13    9.90    5.60
  -3   1 -13    2.70    6.90
  -3   1 -13    8.10   17.40
   3   1  13    4.20   16.50
   3   1  13    4.90    6.00
  -3   1 -13   10.10    4.80
   4  -1  13   12.30    6.00
  -4   1 -13    4.70    8.70
   4   1  13   14.30    6.00
   4   1  13    1.70   14.90
   5  -1  13   21.90    6.50
   5   1  13   27.70    6.90
  -5   1 -13   19.20   10.50
  -5   1 -13   12.60    6.00
   6  -1  13   57.09   12.20
   6   1  13   60.49   12.00
  -6   1 -13   32.20   12.00
  -8   2  13   36.30    8.00
   7  -2 -13    1.30   10.00
  -7  -2  13    6.20    5.90
   7   2 -13    7.60    9.80
  -7   2  13   -0.40   13.20
   6  -2 -13    0.60    8.50
  -6  -2  13    2.10    5.90
  -6   2  13   -1.10    5.80
   6   2 -13   11.90   18.10
   6   2 -13    0.10    9.40
  -6   2  13   -2.50    7.30
  -6   2  13   -2.80   12.80
   5  -2 -13   47.00    9.70
  -5  -2  13   53.39   10.50
  -5   2  13   37.30   14.80
   5   2 -13   49.10   12.30
  -5   2  13   49.20   10.10
  -4  -2  13    6.70    6.00
   4  -2 -13   -5.00    8.60
   4   2 -13    1.80    5.20
   4   2 -13   -5.50    6.90
  -4   2  13   10.10    8.90
   4   2 -13   -6.70   12.80
  -4   2  13    0.90   13.30
  -4   2  13    3.50    6.00
   4   2 -13    5.60    9.30
  -3  -2  13    5.30    6.10
  -3  -2  13    5.60    5.90
  -3  -2  13   -0.70   25.60
   3   2 -13   -8.00   13.80
  -3   2  13    2.80    5.90
   3   2 -13   -1.40   12.00
   3   2 -13   -7.60    5.00
  -2  -2  13   24.90   13.50
  -2  -2  13   46.60   10.10
  -2  -2  13   25.10    7.40
   2  -2 -13   54.69   11.50
   2   2 -13   27.10    6.10
  -2   2  13   34.50    6.50
   2   2 -13   12.90    8.00
  -2   2  13   29.80   14.20
  -2   2  13   46.50    9.30
  -1  -2  13   18.50    6.40
  -1  -2  13    5.00    6.60
   1  -2 -13    5.80    7.40
  -1   2  13   15.20    5.70
  -1   2  13   23.90   13.50
   1   2 -13   11.00    5.70
  -1   2  13   14.50    8.10
   0  -2  13   28.30    7.90
   0  -2 -13   53.39   12.00
   0   2 -13   56.59    9.10
   0   2  13   42.50    9.60
   0   2  13   20.10   14.90
  -1  -2 -13   30.80    8.60
   1  -2  13   25.50    6.80
   1   2  13   39.70    7.30
  -1   2 -13   31.50    7.90
   1   2  13   34.50    9.50
   1   2  13   49.90   17.70
   2  -2  13  149.49   18.60
  -2  -2 -13  153.98   19.80
   2   2  13  136.79   18.20
  -2   2 -13  119.39   16.90
   2   2  13  143.99   18.60
  -2   2 -13  162.88   20.60
  -3  -2 -13  200.58   24.30
   3  -2  13  143.59   20.20
  -3   2 -13  174.78   19.00
   3   2  13  144.49   20.50
   4  -2  13   27.80    7.10
   4   2  13   28.60    6.90
  -4   2 -13   19.60    6.90
   4   2  13   37.20   18.00
  -4   2 -13   26.40   10.40
   5  -2  13    9.90    6.10
  -5   2 -13    2.40    6.30
  -5   2 -13    7.70   10.70
   5   2  13    4.60    5.60
   5  -3 -13   29.90   11.20
  -5   3  13   31.90    8.00
  -5   3  13   23.80   16.70
   5   3 -13   13.80   20.40
   4  -3 -13   46.30   13.10
  -4  -3  13   46.60   11.50
  -4   3  13   17.70   14.60
  -4   3  13   33.00    8.60
   4   3 -13   23.30   13.80
   4   3 -13   60.99    8.20
  -3   3  13   11.60   13.10
  -3   3  13   11.80    8.30
  -1  -3  13   66.89   13.20
  -1   3  13   26.60   14.80
   0  -3  13    2.50    6.60
   0   3  13    8.90   11.40
   0   3  13    9.00   14.10
   0   3 -13    4.10    6.30
   0   3  13   12.50    5.20
   1  -3  13   44.00   10.60
   1   3  13   49.40   17.70
   1   3  13   22.50    9.30
   1   3  13   45.60   10.20
   2   3  13   13.10    9.90
   2   3  13   30.30   19.90
  -2   3 -13   11.40    6.30
   2   3  13    8.90    6.50
  -2   3 -13   21.70   10.30
   3  -3  13   10.20    6.20
   3   3  13   -1.60    9.90
   3   3  13    5.80    4.60
  -3   3 -13    5.20    5.90
   3   3  13    3.00   18.80
  -3   3 -13   10.50    9.60
  -8   0  14   11.50   15.20
  -8   0  14    5.40    6.00
   8   0 -14   13.30    8.20
  -7   0  14   93.49   21.50
  -7   0  14   74.39   12.60
   6   0 -14  106.19   11.70
   6   0 -14  113.99   15.40
  -6   0  14   74.39   13.70
  -5   0  14    1.20    6.00
   5   0 -14    5.00    4.70
  -5   0  14    4.00   11.30
   5   0 -14   13.70    4.30
   4   0 -14   80.79   20.90
   4   0 -14  113.29   13.30
   4   0 -14  106.19   14.20
  -4   0  14  135.89   15.70
   3   0 -14   32.80    7.90
  -3   0  14   22.70    6.50
  -3   0  14    9.10   11.70
   3   0 -14   35.80    6.10
  -3   0  14   30.10    7.40
   2   0 -14   22.30    4.60
  -2   0  14    3.20   12.40
   2   0 -14   17.60    5.50
  -2   0  14   19.80    6.70
  -2   0  14    5.80    6.00
   1   0 -14  168.38   21.20
   1   0 -14  192.28   19.90
  -1   0  14  154.88   21.20
  -1   0  14  192.18   21.50
   0   0  14   66.69   11.00
   0   0 -14   52.99   10.30
   0   0  14   69.99   10.90
   0   0  14   74.89   17.30
   0   0 -14   59.79    8.20
   1   0  14   57.99   10.10
   1   0  14   46.80   16.10
   1   0  14   45.00   10.10
  -1   0 -14   58.59    7.20
  -1   0 -14   28.90   19.10
  -1   0 -14   38.90    9.80
   2   0  14    2.10   15.40
   2   0  14   -2.90    5.60
  -2   0 -14    2.90    4.40
  -2   0 -14   -0.20    5.90
   2   0  14   -4.50    5.80
   3   0  14   25.00    6.70
  -3   0 -14   31.20    6.20
   3   0  14   -3.20   15.20
  -3   0 -14   31.10    9.40
   3   0  14   12.30    6.40
   4   0  14   24.20    6.30
   5   0  14   38.10    7.30
  -5   0 -14   27.20    6.50
  -6   0 -14   86.99   10.80
  -6   0 -14   62.39   16.80
  -8  -1  14   24.10    6.50
   8  -1 -14   46.70   11.70
  -8   1  14   14.90   14.10
  -8   1  14   31.40    7.10
  -7  -1  14   55.99   10.80
  -7  -1  14   59.09   15.90
   7  -1 -14   83.19   14.80
  -7   1  14   26.30   14.50
   7   1 -14   66.69   12.60
  -7   1  14   49.40   11.20
  -6  -1  14   51.29   14.80
   6  -1 -14  104.09   15.10
   6  -1 -14   89.29   13.90
  -6  -1  14   65.49   12.50
   6  -1 -14  103.99   13.30
  -6   1  14   70.79   13.30
   6   1 -14   80.09   14.70
  -6   1  14   83.29   13.60
  -5  -1  14    9.20    6.70
   5  -1 -14   10.70    6.50
  -5  -1  14   11.10   10.70
   5  -1 -14   13.80    5.90
  -5  -1  14   20.70    5.70
  -5  -1  14  -30.30   24.10
   5   1 -14   12.50   11.00
  -5   1  14   22.20    6.20
   5   1 -14   12.90    6.00
  -5   1  14    7.70   17.20
   5   1 -14    1.60    6.40
   5   1 -14   19.20    4.60
  -5   1  14   25.10    9.10
   4  -1 -14   13.70    6.80
  -4  -1  14   20.50   11.10
   4  -1 -14   16.20    6.10
  -4  -1  14   26.00   18.30
  -4  -1  14   25.60    6.30
  -4  -1  14   16.10    6.40
   4   1 -14    2.00   12.50
   4   1 -14   22.60    4.90
  -4   1  14   16.90    6.20
   4   1 -14   19.60    8.70
  -4   1  14   22.10   12.00
   4   1 -14    6.70    6.60
  -4   1  14   30.40    9.10
  -3  -1  14   34.60    7.30
  -3  -1  14   36.00    9.40
   3  -1 -14   44.70    9.30
  -3  -1  14   30.80   12.70
   3   1 -14   37.70    6.70
  -3   1  14   33.30    6.80
  -3   1  14   45.90   10.50
   3   1 -14   26.80    7.70
  -3   1  14   29.70   14.10
  -2  -1  14   31.80    6.40
   2  -1 -14   15.10    6.40
  -2  -1  14   15.30    6.50
  -2   1  14   25.70    9.60
  -2   1  14   25.00    6.10
   2   1 -14   23.50    5.10
   2   1 -14    8.70    7.20
  -2   1  14   53.79   13.40
  -1  -1  14   49.00   15.80
  -1  -1  14   81.79   11.30
   1  -1 -14   76.29   11.50
  -1  -1  14   69.19   11.80
   1   1 -14   60.99   12.20
  -1   1  14   48.50   16.00
  -1   1  14   69.39   11.50
   1   1 -14   67.89    9.20
   0  -1  14    2.00   13.50
   0  -1  14    3.10    5.80
   0  -1 -14    5.70    6.00
   0  -1  14    5.10    5.50
   0   1 -14    8.20    4.80
   0   1 -14    1.90    6.40
   0   1  14   -3.20    5.40
   0   1  14    5.90   15.00
  -1  -1 -14  110.19   22.90
   1  -1  14  115.69   14.60
   1  -1  14  109.69   20.60
   1   1  14  123.29   15.00
  -1   1 -14   95.89   13.50
  -2  -1 -14   60.29   21.20
  -2  -1 -14   49.50   10.90
  -2  -1 -14   67.59    9.60
   2  -1  14   64.39   11.90
  -2   1 -14   64.99   10.50
   2   1  14   79.19   12.10
   2   1  14   74.89   20.60
   3  -1  14   59.59   12.10
  -3  -1 -14   76.79    9.40
   3   1  14   57.49   12.60
  -3   1 -14   80.59    9.90
   4  -1  14    8.60    6.10
   4   1  14    6.30    6.00
  -4   1 -14    4.40    5.30
  -4   1 -14    0.90    8.70
   4   1  14    7.40   15.60
   5  -1  14   14.70    6.40
  -5   1 -14    8.20   10.50
   5   1  14   20.70    6.70
  -5   1 -14   13.20    6.10
  -6  -1 -14   11.70    9.00
   6  -1  14   28.70    7.00
  -6   1 -14   24.70   12.50
   6   1  14   28.30    6.90
  -7  -2  14   11.50    6.70
   7  -2 -14   33.50    9.90
  -7   2  14    2.50   13.40
  -6  -2  14    3.30    6.10
   6  -2 -14    6.40    8.90
   6   2 -14    8.30   10.50
  -6   2  14   -0.20   15.60
  -6   2  14   -7.70    5.80
   5  -2 -14   23.90    8.30
  -5  -2  14   19.10    6.30
  -5  -2  14   14.50    7.90
  -5   2  14   23.70   13.80
  -5   2  14   26.50    8.30
   5   2 -14    6.30    5.70
   5   2 -14    8.60   13.80
  -5   2  14   21.20    6.70
   5   2 -14   14.50    8.60
   4  -2 -14   -0.80    8.30
  -4  -2  14   11.00    6.90
  -4  -2  14  -32.40   24.60
  -4  -2  14    7.10    6.30
   4   2 -14   -1.00   13.30
  -4   2  14   12.00    8.10
  -4   2  14    6.80   12.60
  -4   2  14   11.80    6.30
   4   2 -14    2.10    5.40
   4   2 -14   -3.20    8.00
  -3  -2  14   23.50   20.40
  -3  -2  14   29.50    6.80
  -3  -2  14   19.00    6.90
   3  -2 -14   27.30    9.60
   3   2 -14    6.80   15.00
  -3   2  14   30.00    9.00
   3   2 -14   32.90    7.00
  -3   2  14   22.30    6.50
  -3   2  14   25.80   13.20
  -2  -2  14  209.88   22.40
  -2  -2  14  173.68   26.60
  -2   2  14  174.18   25.40
  -2   2  14  150.18   21.70
  -2   2  14  173.68   21.20
  -1  -2  14  255.47   29.30
  -1  -2  14  289.37   41.50
   1  -2 -14  228.58   30.00
  -1   2  14  216.58   29.20
  -1   2  14  260.97   29.20
   1   2 -14  274.77   28.30
   0  -2  14   62.29   12.80
   0   2  14   66.09   13.10
   0   2  14   70.89   12.30
   0   2 -14   79.09   10.50
   1   2  14   13.40   18.70
  -1   2 -14   45.00   12.10
   2  -2  14  116.49   16.00
   2   2  14  140.39   27.70
   2   2  14  134.39   18.30
  -2   2 -14   90.39   14.10
   3  -2  14  202.48   23.10
   3   2  14  207.88   23.50
  -3   2 -14  184.88   21.90
  -3   2 -14  165.58   26.30
   4  -2  14   17.80    6.70
  -4   2 -14   19.40   11.00
  -4   2 -14    6.40    6.30
   4   2  14    8.30   18.50
   4   2  14   14.90    6.60
   4  -3 -14   32.30   11.70
  -4  -3  14   17.50    6.80
   4   3 -14   25.30    6.80
  -4   3  14   23.40   13.80
  -3  -3  14   42.40    8.10
  -3   3  14   20.30    9.00
   3   3 -14   29.00    7.30
  -3   3  14   46.10   14.90
  -2   3  14  139.09   25.50
   2   3 -14  185.08   19.70
   0  -3  14  101.49   15.10
   0   3  14  122.79   14.40
   0   3  14  100.99   15.00
   0   3  14   75.09   21.40
   0   3 -14   83.89   13.10
   1  -3  14   21.80    7.00
   1   3  14   20.00    9.20
   1   3  14   14.10   18.70
   1   3  14   28.10    6.60
  -1   3 -14   16.40    7.00
   2   3  14    1.80   11.20
  -2   3 -14   -3.30    6.70
   2   3  14   -2.30   20.40
  -2   3 -14    6.80   12.70
   2   3  14    6.20    5.90
  -8   0  15  114.39   21.50
  -8   0  15  107.19   15.50
  -7   0  15   25.80    6.30
  -7   0  15   15.60   14.40
   6   0 -15   13.10    3.80
   6   0 -15    8.40    5.30
  -6   0  15   12.50    6.10
   5   0 -15    5.70    3.80
   5   0 -15    1.90    4.90
  -5   0  15    4.30    5.90
  -5   0  15   -0.20   12.20
   4   0 -15   20.80    5.70
   4   0 -15   33.70    5.50
  -4   0  15   22.30    6.70
  -4   0  15   10.80   12.10
  -4   0  15   29.20    7.30
  -3   0  15   -0.60   12.10
   3   0 -15    2.90    4.00
  -3   0  15    4.10    6.40
   3   0 -15    3.10    5.20
  -3   0  15    2.70    6.00
  -2   0  15    1.10   12.60
  -2   0  15    6.60    6.70
   2   0 -15   11.60    5.40
  -2   0  15    2.10    5.70
   2   0 -15   13.00    4.10
  -1   0  15   64.69   12.20
  -1   0  15   79.49   11.70
   1   0 -15   71.19    8.80
   1   0 -15   63.39   10.80
  -1   0  15   51.39   16.50
   0   0 -15   -0.50    3.90
   0   0  15   -1.40    5.30
   0   0  15    0.70    6.10
   0   0  15    1.70   16.60
   0   0 -15    2.30    6.70
  -1   0 -15    2.70    4.20
   1   0  15   -0.10    6.50
   1   0  15   -0.20    6.00
  -1   0 -15  -12.70   20.50
   1   0  15    6.10   15.50
   2   0  15   13.90    5.20
  -2   0 -15    5.40    6.90
   2   0  15   15.10   15.80
  -3   0 -15   87.39   10.90
   3   0  15   70.69   13.40
  -3   0 -15  107.99   29.10
   4   0  15   15.30    6.20
  -4   0 -15   27.90    5.40
  -5   0 -15   -0.60    5.70
  -5   0 -15    6.20    8.40
   5   0  15    4.60    5.90
  -8   1  15  115.89   16.10
  -7  -1  15   75.49   13.60
   7  -1 -15  105.39   14.70
  -7   1  15   79.79   14.30
   7   1 -15  107.59   18.10
  -6  -1  15   74.19   16.70
  -6  -1  15   61.79   11.30
  -6   1  15   72.19   17.70
  -6   1  15   66.69   12.40
  -5  -1  15  180.28   21.60
  -5  -1  15  144.59   24.50
  -5  -1  15  184.98   22.00
  -5   1  15  215.58   22.00
  -5   1  15  145.59   24.20
   5   1 -15  170.08   21.60
   5   1 -15  188.38   20.00
  -4  -1  15   74.89   12.30
  -4  -1  15   75.29   11.90
  -4   1  15   49.10   14.80
   4   1 -15   65.29   12.40
   4   1 -15   75.09    9.40
  -4   1  15   72.89   12.00
  -3  -1  15   26.60   13.70
  -3   1  15   38.70   16.20
   3   1 -15    4.30   14.60
  -2  -1  15   91.39   14.30
  -2   1  15   94.49   13.70
  -1  -1  15  141.29   18.90
  -1  -1  15  167.28   19.30
  -1   1  15  122.49   23.70
   1   1 -15  157.88   17.50
  -1   1  15  161.98   18.90
   0  -1  15    1.80    6.50
   0  -1  15    9.10   14.00
   0   1  15   -4.20   20.80
   0   1  15   -0.40    5.60
   1  -1  15    3.30    5.80
   1  -1  15    6.50   13.40
   1   1  15   16.50    6.40
  -1   1 -15   18.80    5.60
   1   1  15    9.10   18.70
  -2  -1 -15   47.80    7.60
  -2   1 -15   38.50    7.60
   2   1  15   13.10   18.60
  -3  -1 -15   77.19    9.80
   3  -1  15   78.49   12.60
   3   1  15   76.49   13.30
   3   1  15   47.40   19.50
  -3   1 -15   80.69   10.30
  -4  -1 -15   20.40    4.70
   4  -1  15   24.10    6.40
  -4   1 -15   11.70    9.10
   4   1  15   23.40   16.70
  -4   1 -15   12.80    5.70
   4   1  15   16.10    6.20
  -5  -1 -15   40.20    7.20
   5  -1  15   21.10    6.70
   5   1  15   35.70    7.20
  -5   1 -15   29.20   11.50
  -5   1 -15    2.50    6.60
  -6  -2  15   32.90    6.80
  -6   2  15   21.40   14.30
   5  -2 -15   64.49   15.10
  -5  -2  15   59.19   12.30
  -5   2  15   67.59   12.30
  -5   2  15   92.89   12.50
   5   2 -15   63.49   12.30
   4  -2 -15    7.70    8.00
  -4  -2  15    3.60    6.10
   4   2 -15    3.90    5.20
  -4   2  15    6.40   12.60
  -4   2  15    9.40    6.40
   4   2 -15  -18.40   25.00
  -4   2  15    7.90    9.20
  -3  -2  15   10.80    6.80
  -3  -2  15   23.70   18.20
   3  -2 -15  -10.30    9.00
   3   2 -15   -6.80   16.80
   3   2 -15    6.00    5.30
  -3   2  15   18.70    9.20
  -3   2  15   23.90   14.00
  -3   2  15   18.10    6.40
  -2  -2  15   36.00   15.60
  -2  -2  15   61.79   12.20
  -2   2  15   66.69   11.00
   2   2 -15   42.10    9.10
  -2   2  15   71.59   15.60
  -2   2  15   64.19   12.80
  -1  -2  15    5.30    6.60
  -1   2  15   13.50   15.00
  -1   2  15   -6.60    9.80
   1   2 -15   -2.00    5.80
  -1   2  15    4.90    6.10
   0  -2  15  130.89   18.20
   0   2 -15  140.89   16.50
   0   2  15  135.69   18.10
   0   2  15  133.19   18.60
   1  -2  15   93.89   14.20
   1   2  15  108.29   15.30
   1   2  15   81.89   15.40
   2  -2  15  387.96   44.60
   2   2  15  439.56   44.70
  -2   2 -15  371.16   45.60
   3  -2  15  245.08   27.70
  -3   2 -15  237.28   26.70
   3   2  15  260.77   28.10
  -3   2 -15  199.48   30.10
   4   2  15   40.80    7.70
   4   2  15   26.80   19.40
  -4   2 -15   27.70    7.40
  -4   2 -15   29.60   11.50
  -3   3  15    8.00   14.70
  -2  -3  15   24.80    7.50
  -2   3  15   41.80   15.00
  -1   3  15   99.29   23.30
   1   3 -15  129.89   15.20
   0   3 -15   57.59    9.80
   0   3  15   70.29   12.90
   0   3  15   35.90   17.20
  -7   0  16   50.39   13.90
  -7   0  16   38.00    7.70
   6   0 -16   38.40    6.30
  -6   0  16   32.30    7.30
  -6   0  16   27.10   13.60
  -5   0  16    8.50   12.80
  -5   0  16    8.90    6.10
  -4   0  16   18.50    6.30
  -4   0  16    2.20   12.40
  -3   0  16   -1.40   12.70
  -3   0  16   10.90    6.00
  -2   0  16   92.49   19.00
  -2   0  16   70.89   13.60
   1   0 -16  204.08   20.60
  -1   0  16  153.98   22.20
   0   0 -16   14.60    4.40
   0   0  16   14.10    5.60
  -1   0 -16   58.79    7.80
   1   0  16   52.59   11.30
   1   0  16   28.10   17.10
  -2   0 -16    3.00    4.90
   2   0  16   12.10   15.80
   2   0  16    6.50    5.30
  -2   0 -16   32.30   20.30
  -3   0 -16    3.20    4.80
   3   0  16    1.60    5.90
   3   0  16    0.90   15.10
   4   0  16    6.50    6.00
  -4   0 -16    4.30    4.90
  -7  -1  16    5.60    5.50
  -7   1  16    0.60    6.60
  -7   1  16   11.30   13.90
  -6  -1  16  134.39   17.60
  -6  -1  16  144.69   21.40
  -6   1  16  144.49   18.10
  -6   1  16  119.29   21.40
  -5  -1  16   23.30    7.10
  -5  -1  16   49.90   14.20
  -5   1  16   33.50    7.10
  -5   1  16   55.19   13.20
  -4  -1  16   53.59   14.80
  -4  -1  16   51.79   11.70
  -4   1  16   61.59   11.80
  -4   1  16   63.69   15.30
  -3  -1  16   81.19   21.20
  -3  -1  16   96.89   13.60
   3   1 -16   93.19   11.10
  -3   1  16   65.19   18.70
  -2  -1  16   -3.60    5.80
  -2  -1  16   -5.70   15.70
  -2   1  16   -0.80   14.20
  -2   1  16    0.00    8.50
   2   1 -16    7.30    4.40
  -1  -1  16   78.09   12.10
  -1  -1  16   50.89   16.40
  -1   1  16   47.10   16.90
   1   1 -16   60.59    8.80
   0  -1  16    7.50   14.80
   0  -1  16   18.80    6.60
   0   1  16    5.90   18.80
   0   1  16   12.50    6.10
   1  -1  16   26.00    6.90
   1  -1  16   22.40   14.50
  -1  -1 -16   46.10    7.60
   1   1  16   54.59   20.70
   1   1  16   30.30    7.20
  -1   1 -16   39.30    7.50
   2   1  16    9.60   18.40
   3  -1  16   22.70    6.20
  -3  -1 -16   15.80    4.60
   3   1  16    6.30   18.30
   3   1  16   21.20    6.90
  -3   1 -16   15.50    5.30
  -4  -1 -16   10.70    4.70
   4  -1  16    7.90    6.50
  -4   1 -16    0.90    5.60
   4   1  16    5.40   17.00
  -4   1 -16   10.70    8.80
   4   1  16    7.50    6.10
  -6   2  16   47.00   11.50
  -5  -2  16  160.18   20.80
  -5   2  16  189.88   21.70
  -5   2  16  149.39   23.80
  -5   2  16  178.18   21.30
  -4  -2  16  336.67   40.20
  -4   2  16  382.66   40.80
  -3  -2  16  136.49   16.50
   3   2 -16  105.49   14.50
  -3   2  16  136.39   21.00
  -3   2  16  107.29   16.50
  -2  -2  16  239.78   37.10
  -2   2  16  299.37   33.60
   2   2 -16  301.37   31.70
  -1  -2  16   48.90   12.10
   1   2 -16   45.30    8.80
  -1   2  16   43.80   12.20
  -1   2  16   19.50   16.50
  -1   2  16   78.29   17.40
   0  -2  16   13.60    7.00
   0   2  16    6.00   17.50
   0   2  16   17.70   11.20
   0   2 -16   14.80    6.20
   0   2  16   11.40    6.10
  -1   2 -16   44.60    9.10
   1   2  16   33.70   21.40
  -1   2 -16   57.89   13.00
   1   2  16   44.60    8.80
   2  -2  16   16.30    6.70
   2   2  16   38.60   20.70
   2   2  16   22.00    6.90
  -2   2 -16   13.50    6.40
   3   2  16   48.70    8.70
  -3   2 -16   37.00   12.50
   3   2  16   14.20   20.40
  -7   0  17   31.40    7.50
  -7   0  17   20.10   14.30
   6   0 -17   43.00    6.40
  -6   0  17   29.00   14.70
  -6   0  17   46.70   11.10
   5   0 -17    4.40    3.60
  -5   0  17    0.30   12.90
  -5   0  17   -0.30    6.20
  -4   0  17    8.00   13.50
  -4   0  17   17.80    7.00
   4   0 -17   24.60    5.10
  -3   0  17   -0.50    6.40
   3   0 -17    2.10    3.70
  -3   0  17    1.00   13.40
  -2   0  17    7.10   15.40
  -2   0  17   -1.30    6.20
   2   0 -17    7.70    3.80
   1   0 -17  122.99   13.90
  -1   0  17  130.99   16.30
  -1   0  17   89.99   21.90
   0   0  17    3.80    5.50
   0   0 -17   11.00    4.30
   0   0  17   -2.00   16.80
  -1   0 -17   15.40    5.10
   1   0  17   19.70    7.00
   1   0  17    9.60   16.60
  -2   0 -17   11.60    5.00
  -2   0 -17   -5.70   22.80
   2   0  17   -1.20   16.40
   2   0  17    9.60    6.00
  -3   0 -17    6.20    4.80
   3   0  17    4.60    6.10
   3   0  17    7.20   16.40
   4   0  17    0.20    5.90
  -6  -1  17   48.70   19.50
  -6  -1  17   73.89   12.60
  -6   1  17   89.69   12.70
   6   1 -17   68.49    9.60
  -5  -1  17    2.70   14.20
  -5  -1  17    8.00    6.40
   5   1 -17    4.00    4.30
  -5   1  17    7.70    6.20
  -5   1  17    6.00   13.80
  -4  -1  17    6.50   14.60
  -4  -1  17    2.90    6.20
  -4   1  17    4.70    6.70
  -4   1  17   -2.80   13.10
   4   1 -17    6.40    4.20
  -3  -1  17   10.50   15.90
  -3  -1  17    7.50    6.60
  -3   1  17    6.00    6.00
   3   1 -17  -17.40   27.40
   3   1 -17    7.90    4.40
  -3   1  17   12.70   13.90
  -2  -1  17   28.40   15.90
  -2  -1  17   13.60    6.70
  -2   1  17   17.50    7.10
   2   1 -17   13.60    4.90
  -2   1  17   24.00   14.60
  -1  -1  17   45.40   11.00
   1   1 -17   32.50    7.10
  -1   1  17   33.30   16.90
  -1   1  17   38.70    7.20
   0  -1  17   12.40    6.60
   0  -1  17   -6.10   15.20
   0  -1 -17   30.70    6.90
   0   1  17   22.10   19.50
   0   1 -17   22.50    5.60
   0   1  17   17.10    6.70
   1  -1  17   14.60    6.30
   1  -1  17   10.80   14.10
  -1  -1 -17   11.60    5.40
   1   1  17    6.30    5.90
  -1   1 -17   16.30    5.80
   1   1  17   13.00   19.50
  -2  -1 -17    4.00    4.60
   2  -1  17    1.50    5.50
   2   1  17   -4.10    6.20
  -2   1 -17    5.40    5.10
   2   1  17   -2.80   18.90
  -3  -1 -17   14.20    4.50
   3  -1  17   15.90    6.80
   3   1  17   16.40    8.00
  -3   1 -17    8.40    5.20
   3   1  17    2.30   18.60
  -4  -2  17   83.19   13.40
   4   2 -17   62.09   10.70
  -4   2  17   80.89   13.50
  -4   2  17   92.89   15.70
  -3  -2  17    7.70    6.80
  -3   2  17    6.00   12.80
   3   2 -17   -5.50    5.30
  -3   2  17   -0.10    6.00
  -3   2  17   -0.10   14.20
  -2  -2  17    6.00    7.10
  -2   2  17   19.20   12.00
   2   2 -17    6.90    5.70
  -2   2  17    7.40    7.50
  -2   2  17    0.50   15.70
  -1  -2  17  102.49   15.00
  -1   2  17   56.79   19.30
  -1   2  17  122.49   14.80
  -1   2  17  101.89   16.30
   1   2 -17   70.79   13.30
   0  -2  17   31.00    8.00
   0   2  17   32.80   19.90
   0   2 -17   21.30    7.00
   0   2  17   53.09   11.20
   1  -2  17   15.30    6.80
  -1   2 -17    2.20    6.40
   1   2  17   25.80    7.30
   1   2  17   31.40   21.80
  -6   0  18   -1.20    6.50
  -6   0  18   -1.50   13.70
  -5   0  18   -4.60    6.30
   5   0 -18    6.10    3.80
  -5   0  18    5.30   13.40
  -4   0  18    5.40   14.30
  -4   0  18    3.10    6.40
   4   0 -18    6.80    4.00
  -3   0  18    5.00   14.30
  -3   0  18    3.80    6.20
   3   0 -18   10.20    4.00
   2   0 -18   13.10    4.20
  -2   0  18    8.20    6.60
  -2   0  18   -3.90   16.50
   1   0 -18   50.59    7.70
  -1   0  18   59.19   19.20
   0   0 -18   56.99    8.00
   0   0  18   57.29   10.90
   0   0  18   19.60   18.00
  -1   0 -18    5.80    5.00
   1   0  18    2.70   17.50
   1   0  18    2.70    6.30
  -2   0 -18   11.00    5.10
   2   0  18   12.30   16.90
   2   0  18    8.90    6.60
   3   0  18    0.20   16.60
  -5  -1  18   -2.20    6.40
  -5  -1  18    5.60   14.60
  -5   1  18    9.50   13.20
   5   1 -18    6.70    4.30
  -5   1  18   -2.60    7.40
  -4  -1  18   11.10    6.90
  -4  -1  18   13.80   17.00
  -4   1  18    9.10    6.60
  -4   1  18   10.10   13.70
   4   1 -18    5.50    4.40
  -3  -1  18   15.70   17.30
  -3  -1  18    3.00    6.60
  -3   1  18    8.30    6.30
   3   1 -18    9.40    4.50
  -3   1  18   22.50   14.90
  -2  -1  18   28.90   17.20
  -2  -1  18   46.20   11.40
   2  -1 -18   67.49    9.30
  -2   1  18   45.40   11.20
  -2   1  18   28.60   16.50
   2   1 -18   45.40    7.60
   1  -1 -18   59.49    8.60
  -1  -1  18   11.00   16.40
  -1  -1  18   30.30    7.50
  -1   1  18    7.90   18.60
  -1   1  18   42.50   10.40
   1   1 -18   42.20    7.40
   0  -1  18   -0.50    5.70
   0  -1 -18    4.30    6.10
   0  -1  18    2.50   15.30
   0   1  18   -1.80    6.90
   0   1 -18    0.30    5.10
   0   1  18    8.40   20.30
  -1  -1 -18   13.90    5.30
   1  -1  18   17.40    6.50
   1  -1  18    5.40   15.10
  -1   1 -18   10.80    5.70
   1   1  18   20.50    6.00
   1   1  18   21.60   20.20
  -2  -1 -18    7.40    4.50
   2  -1  18    8.50    5.90
  -2   1 -18    9.30    5.20
   2   1  18    6.30    6.40
   2   1  18    5.50   19.50
  -2   2  18   -2.90    6.70
  -2   2  18   -2.70   16.00
  -1   2  18    9.30   17.20
  -1   2  18   21.40    7.00
   4   0 -19    8.50    4.20
  -4   0  19   13.80    6.60
  -4   0  19   -1.80   14.70
  -3   0  19    7.20   16.20
   3   0 -19    6.50    4.20
  -3   0  19   -0.30    6.60
  -2   0  19   11.20    7.30
   2   0 -19    5.90    4.60
  -2   0  19   26.40   18.10
  -1   0  19   63.39   20.40
  -1   0  19   65.99   12.20
   0   0 -19  164.98   18.50
   0   0  19  157.98   20.30
  -1   0 -19    2.00    4.90
   1   0  19    2.30   17.70
   1   0  19   -0.30    5.40
   3  -1 -19    0.50    6.90
  -3  -1  19    4.70    6.50
  -3  -1  19    5.20   17.80
  -3   1  19    0.70    6.20
  -3   1  19   10.60   15.10
   3   1 -19    5.10    4.50
   2  -1 -19   38.20    7.80
  -2  -1  19   18.00    6.80
  -2  -1  19    2.60   16.90
   2   1 -19   25.50    5.50
  -2   1  19    7.20   16.40
  -2   1  19   15.00    6.40
  -1  -1  19    2.10    6.30
  -1  -1  19    7.30   16.50
   1  -1 -19   19.00    6.40
   1   1 -19    7.80    5.20
  -1   1  19   -2.70   19.60
  -1   1  19    8.70    6.60
   0  -1 -19   37.30    7.20
   0  -1  19   10.00   16.40
   0  -1  19   31.70    7.30
   0   1  19   32.50    7.00
   0   1 -19   23.60    6.30
   0   1  19   22.50   21.40

_computing_structure_solution     'SHELXT 2014/4 (Sheldrick, 2014)'
;
_shelx_hkl_checksum              32401
loop_
_space_group_symop_operation_xyz
'x, y, z'
'-x, y+1/2, -z'
loop_
_atom_site_label
_atom_site_type_symbol
_atom_site_fract_x
_atom_site_fract_y
_atom_site_fract_z
_atom_site_U_iso_or_equiv
_atom_site_adp_type
_atom_site_occupancy
_atom_site_site_symmetry_order
_atom_site_calc_flag
_atom_site_refinement_flags_posn
_atom_site_refinement_flags_adp
_atom_site_refinement_flags_occupancy
_atom_site_disorder_assembly
_atom_site_disorder_group
Na1 Na 0.5893(7) -0.306(2) 0.0291(3) 0.040(3) Uani 1 1 d . . . . .
Na2 Na 0.3229(7) 0.723(2) 0.0685(4) 0.048(3) Uani 1 1 d . . . . .
Na4 Na 0.1104(9) 1.170(2) 0.9680(4) 0.064(3) Uani 1 1 d . . . . .
Na3 Na 0.1576(10) 0.776(3) 0.1897(5) 0.079(4) Uani 1 1 d . . . . .
O1 O 0.4875(13) -0.010(3) 0.0722(8) 0.038(5) Uani 1 1 d . . . . .
O11 O 0.2605(13) 0.897(4) 0.9681(8) 0.042(5) Uani 1 1 d . . . . .
O10 O 0.2546(13) 0.475(3) 0.9660(8) 0.044(5) Uani 1 1 d . . . . .
O2 O 0.4678(15) 0.420(4) 0.0770(8) 0.045(5) Uani 1 1 d . . . . .
O4 O 0.2105(16) 0.479(4) 0.1254(9) 0.062(6) Uani 1 1 d . . . . .
N1 N 0.3740(18) 0.316(5) 0.2531(9) 0.052(4) Uani 1 1 d . . . . .
H1 H 0.3855 0.1661 0.2715 0.062 Uiso 1 1 calc R . . . .
O8 O 0.3340(17) 0.730(4) 0.2654(8) 0.067(6) Uani 1 1 d . . . . .
O3 O 0.2533(17) 0.043(4) 0.1315(9) 0.060(6) Uani 1 1 d . . . . .
N2 N 0.2348(18) 0.493(4) 0.7709(10) 0.052(4) Uani 1 1 d . . . . .
H2 H 0.2319 0.6460 0.7541 0.062 Uiso 1 1 calc R . . . .
O12 O 0.0203(16) 1.308(4) 1.0518(8) 0.079(6) Uani 1 1 d . . . . .
H12A H 0.0799 1.3537 1.0871 0.094 Uiso 1 1 calc R . . . .
H12B H -0.0219 1.1612 1.0653 0.094 Uiso 1 1 calc R . . . .
C12 C 0.318(2) 0.402(5) 0.5477(11) 0.057(8) Uani 1 1 d D U . . .
C21 C 0.249(2) 0.701(9) 0.9393(12) 0.064(5) Uani 1 1 d . . . . .
C7 C 0.396(2) 0.282(5) 0.3905(10) 0.046(7) Uani 1 1 d . U . . .
H7 H 0.4395 0.1601 0.3724 0.055 Uiso 1 1 calc R . . . .
C9 C 0.327(2) 0.420(5) 0.4811(11) 0.043(6) Uani 1 1 d . U . . .
C1 C 0.4784(17) 0.208(8) 0.1007(10) 0.031(6) Uani 1 1 d . . . . .
C15 C 0.283(2) 0.345(5) 0.6741(11) 0.055(8) Uani 1 1 d D . . . .
C5 C 0.348(2) 0.511(7) 0.2856(13) 0.050(8) Uani 1 1 d . . . . .
C2 C 0.479(2) 0.184(6) 0.1710(9) 0.046(5) Uani 1 1 d . . . . .
H2A H 0.4709 0.0026 0.1822 0.055 Uiso 1 1 calc R . . . .
H2B H 0.5522 0.2474 0.1939 0.055 Uiso 1 1 calc R . . . .
C6 C 0.344(2) 0.468(6) 0.3537(12) 0.055(8) Uani 1 1 d . U . . .
C20 C 0.225(2) 0.719(6) 0.8685(9) 0.046(5) Uani 1 1 d . . . . .
H20A H 0.2902 0.8066 0.8545 0.055 Uiso 1 1 calc R . . . .
H20B H 0.1580 0.8286 0.8566 0.055 Uiso 1 1 calc R . . . .
C3 C 0.385(2) 0.336(6) 0.1882(11) 0.058(6) Uani 1 1 d . . . . .
H3 H 0.4028 0.5190 0.1810 0.070 Uiso 1 1 calc R . . . .
C18 C 0.266(3) 0.292(8) 0.7374(13) 0.072(9) Uani 1 1 d . U . . .
O9 O 0.308(5) 0.074(11) 0.766(3) 0.080(12) Uani 0.5 1 d . U P A 1
C8 C 0.389(2) 0.259(6) 0.4516(10) 0.061(8) Uani 1 1 d . U . . .
H8 H 0.4298 0.1245 0.4747 0.073 Uiso 1 1 calc R . . . .
O5 O -0.025(2) 0.866(5) 0.1224(11) 0.118(7) Uani 1 1 d . . . . .
C11 C 0.277(2) 0.635(5) 0.3834(11) 0.057(8) Uani 1 1 d . U . . .
H11 H 0.2353 0.7647 0.3594 0.068 Uiso 1 1 calc R . . . .
C4 C 0.270(3) 0.275(8) 0.1433(12) 0.064(5) Uani 1 1 d . . . . .
C10 C 0.270(2) 0.618(6) 0.4450(12) 0.065(8) Uani 1 1 d . U . . .
H10 H 0.2272 0.7401 0.4636 0.078 Uiso 1 1 calc R . . . .
C19 C 0.206(3) 0.466(6) 0.8336(11) 0.058(6) Uani 1 1 d . . . . .
H19 H 0.2468 0.3217 0.8572 0.070 Uiso 1 1 calc R . . . .
O6 O -0.005(3) 0.949(6) 0.2248(12) 0.118(7) Uani 1 1 d . . . . .
C17A C 0.392(5) 0.252(12) 0.589(3) 0.06(2) Uani 0.5 1 d D . P B -1
H17A H 0.4549 0.1712 0.5757 0.078 Uiso 0.5 1 calc R . P B -1
C13A C 0.228(8) 0.522(19) 0.570(4) 0.13(4) Uani 0.5 1 d D . P B -1
H13A H 0.1809 0.6368 0.5438 0.151 Uiso 0.5 1 calc R . P B -1
O7 O 0.085(3) 0.448(9) 0.2541(15) 0.085(14) Uani 0.5 1 d . . P . .
H7A H 0.1077 0.3121 0.2395 0.128 Uiso 0.5 1 calc R . P . .
C14A C 0.206(7) 0.475(16) 0.630(3) 0.09(3) Uani 0.5 1 d D . P B -1
H14A H 0.1375 0.5336 0.6413 0.113 Uiso 0.5 1 calc R . P B -1
C16A C 0.372(9) 0.22(2) 0.650(4) 0.10(4) Uani 0.5 1 d D . P B -1
H16A H 0.4206 0.1147 0.6771 0.116 Uiso 0.5 1 calc R . P B -1
C23 C 0.000(10) 0.38(3) 0.301(5) 0.07(4) Uiso 0.25 1 d . . P . .
H23A H -0.0745 0.4525 0.2860 0.110 Uiso 0.25 1 calc GR . P . .
H23B H 0.0292 0.4525 0.3424 0.110 Uiso 0.25 1 calc GR . P . .
H23C H -0.0060 0.1943 0.3049 0.110 Uiso 0.25 1 calc GR . P . .
C13B C 0.277(10) 0.596(16) 0.582(3) 0.13(4) Uani 0.5 1 d D U P B 1
H13B H 0.2585 0.7539 0.5613 0.151 Uiso 0.5 1 calc R . P B 1
C16B C 0.329(11) 0.149(15) 0.642(4) 0.10(4) Uani 0.5 1 d D U P B 1
H16B H 0.3522 -0.0043 0.6632 0.116 Uiso 0.5 1 calc R . P B 1
C14B C 0.260(8) 0.578(10) 0.644(3) 0.09(3) Uani 0.5 1 d D U P B 1
H14B H 0.2331 0.7201 0.6642 0.113 Uiso 0.5 1 calc R . P B 1
C17B C 0.342(6) 0.169(10) 0.579(3) 0.06(2) Uani 0.5 1 d D U P B 1
H17B H 0.3677 0.0265 0.5580 0.078 Uiso 0.5 1 calc R . P B 1
C22 C -0.071(3) 0.933(6) 0.1739(14) 0.064(5) Uani 1 1 d . . . . .
O20 O 0.246(5) 0.082(12) 0.755(3) 0.080(12) Uani 0.5 1 d . U P A -1
loop_
_atom_site_aniso_label
_atom_site_aniso_U_11
_atom_site_aniso_U_22
_atom_site_aniso_U_33
_atom_site_aniso_U_23
_atom_site_aniso_U_13
_atom_site_aniso_U_12
Na1 0.038(5) 0.041(7) 0.044(5) 0.001(5) 0.014(4) 0.000(6)
Na2 0.045(6) 0.049(7) 0.052(5) 0.007(6) 0.015(4) -0.003(6)
Na4 0.071(7) 0.047(7) 0.080(7) -0.009(7) 0.030(5) 0.005(7)
Na3 0.071(8) 0.082(10) 0.087(7) 0.003(7) 0.025(6) 0.013(7)
O1 0.045(11) 0.026(13) 0.048(10) 0.003(10) 0.019(8) 0.003(10)
O11 0.041(11) 0.027(12) 0.059(11) -0.008(11) 0.011(8) 0.002(9)
O10 0.044(11) 0.029(13) 0.057(11) -0.014(9) 0.005(8) -0.009(9)
O2 0.056(13) 0.024(14) 0.050(12) 0.005(10) 0.000(8) 0.010(10)
O4 0.058(13) 0.043(15) 0.091(14) 0.016(11) 0.029(10) 0.009(12)
N1 0.076(12) 0.033(11) 0.052(10) -0.006(8) 0.023(8) 0.012(9)
O8 0.104(17) 0.036(16) 0.064(12) -0.003(12) 0.018(9) 0.034(13)
O3 0.081(15) 0.026(13) 0.076(13) 0.005(11) 0.024(11) -0.001(11)
N2 0.076(12) 0.033(11) 0.052(10) -0.006(8) 0.023(8) 0.012(9)
O12 0.073(15) 0.076(16) 0.084(13) -0.020(12) 0.001(10) -0.005(13)
C12 0.048(17) 0.09(2) 0.034(13) 0.013(11) 0.008(10) 0.016(15)
C21 0.074(14) 0.056(16) 0.064(12) -0.008(12) 0.021(9) -0.011(13)
C7 0.046(14) 0.048(15) 0.046(10) 0.003(9) 0.015(9) 0.021(12)
C9 0.032(14) 0.045(15) 0.054(11) -0.002(9) 0.012(8) -0.002(11)
C1 0.016(13) 0.03(2) 0.043(16) -0.01(2) 0.005(9) 0.001(15)
C15 0.09(2) 0.05(2) 0.028(17) -0.008(15) 0.015(14) 0.001(17)
C5 0.033(17) 0.04(3) 0.08(2) -0.01(2) 0.007(14) -0.013(17)
C2 0.050(12) 0.048(13) 0.042(11) -0.009(10) 0.014(7) 0.013(11)
C6 0.059(17) 0.059(16) 0.049(12) 0.011(10) 0.013(9) 0.025(13)
C20 0.050(12) 0.048(13) 0.042(11) -0.009(10) 0.014(7) 0.013(11)
C3 0.095(17) 0.043(14) 0.039(11) 0.005(10) 0.018(10) 0.007(12)
C18 0.11(3) 0.062(18) 0.05(2) 0.006(14) 0.022(15) 0.01(2)
O9 0.14(4) 0.066(17) 0.043(19) 0.006(14) 0.04(2) 0.02(2)
C8 0.068(16) 0.069(17) 0.048(10) 0.008(10) 0.016(9) 0.028(14)
O5 0.141(16) 0.113(16) 0.096(12) -0.008(11) 0.005(12) 0.025(13)
C11 0.060(16) 0.052(16) 0.061(11) 0.008(10) 0.019(9) 0.020(13)
C4 0.074(14) 0.056(16) 0.064(12) -0.008(12) 0.021(9) -0.011(13)
C10 0.069(17) 0.067(17) 0.060(11) 0.005(10) 0.019(10) 0.020(14)
C19 0.095(17) 0.043(14) 0.039(11) 0.005(10) 0.018(10) 0.007(12)
O6 0.141(16) 0.113(16) 0.096(12) -0.008(11) 0.005(12) 0.025(13)
C17A 0.06(5) 0.10(2) 0.042(18) 0.015(18) 0.01(3) 0.02(3)
C13A 0.23(10) 0.11(3) 0.04(2) 0.038(19) 0.06(4) 0.09(4)
O7 0.10(3) 0.10(4) 0.05(2) 0.04(2) 0.002(19) -0.01(3)
C14A 0.13(8) 0.12(5) 0.041(18) 0.02(2) 0.03(3) 0.05(5)
C16A 0.14(9) 0.11(4) 0.05(2) 0.03(3) 0.03(4) 0.04(6)
C13B 0.23(10) 0.11(3) 0.04(2) 0.038(19) 0.06(4) 0.09(4)
C16B 0.14(9) 0.11(4) 0.05(2) 0.03(3) 0.03(4) 0.04(6)
C14B 0.13(8) 0.12(5) 0.041(18) 0.02(2) 0.03(3) 0.05(5)
C17B 0.06(5) 0.10(2) 0.042(18) 0.015(18) 0.01(3) 0.02(3)
C22 0.074(14) 0.056(16) 0.064(12) -0.008(12) 0.021(9) -0.011(13)
O20 0.14(4) 0.066(17) 0.043(19) 0.006(14) 0.04(2) 0.02(2)
loop_
_atom_type_symbol
_atom_type_description
_atom_type_scat_dispersion_real
_atom_type_scat_dispersion_imag
_atom_type_scat_source
C C 0.0080 0.0040 'Calculated using XDISP in WinGX (Farrugia, 1999)'
H H 0.0000 0.0000 'Calculated using XDISP in WinGX (Farrugia, 1999)'
N N 0.0150 0.0080 'Calculated using XDISP in WinGX (Farrugia, 1999)'
O O 0.0240 0.0140 'Calculated using XDISP in WinGX (Farrugia, 1999)'
Na Na 0.0730 0.0550 'Calculated using XDISP in WinGX (Farrugia, 1999)'
loop_
_geom_angle_atom_site_label_1
_geom_angle_atom_site_label_2
_geom_angle_atom_site_label_3
_geom_angle
_geom_angle_site_symmetry_1
_geom_angle_site_symmetry_3
Na1 Na1 Na1 97.2(4) 2_645 2_655
Na1 Na1 Na2 58.7(2) 2_645 2_635
Na1 Na1 Na2 122.0(4) 2_655 2_635
Na1 Na1 Na4 126.0(3) 2_655 2_636
Na1 Na1 Na4 122.3(3) 2_645 2_636
Na2 Na1 Na1 65.4(3) 1_545 2_645
Na2 Na1 Na1 61.2(3) 1_545 2_655
Na2 Na1 Na2 124.1(3) 1_545 2_635
Na2 Na1 Na4 65.8(3) 2_635 2_636
Na2 Na1 Na4 164.8(3) 1_545 2_636
O1 Na1 Na1 108.9(6) . 2_645
O1 Na1 Na1 40.4(5) 2_645 2_645
O1 Na1 Na1 45.5(4) . 2_655
O1 Na1 Na1 83.3(5) 2_645 2_655
O1 Na1 Na2 90.8(5) 2_645 1_545
O1 Na1 Na2 44.2(5) . 1_545
O1 Na1 Na2 163.8(6) . 2_635
O1 Na1 Na2 43.0(4) 2_645 2_635
O1 Na1 Na4 128.5(6) . 2_636
O1 Na1 Na4 103.1(5) 2_645 2_636
O1 Na1 O1 120.9(5) . 2_645
O1 Na1 O11 153.4(6) . 2_636
O1 Na1 O10 91.8(7) . 2_646
O1 Na1 O2 79.8(6) . 1_545
O1 Na1 O2 88.6(7) . 2_645
O1 Na1 O2 53.0(5) 2_645 2_645
O1 Na1 C1 108.2(8) . 2_645
O1 Na1 C1 27.8(8) 2_645 2_645
O11 Na1 Na1 86.3(4) 2_636 2_645
O11 Na1 Na1 156.9(6) 2_636 2_655
O11 Na1 Na2 138.9(6) 2_636 1_545
O11 Na1 Na2 42.1(4) 2_636 2_635
O11 Na1 Na4 39.0(5) 2_636 2_636
O11 Na1 O1 84.9(6) 2_636 2_645
O11 Na1 O2 114.4(6) 2_636 2_645
O11 Na1 O2 96.2(7) 2_636 1_545
O11 Na1 C1 97.8(8) 2_636 2_645
O10 Na1 Na1 156.4(6) 2_646 2_645
O10 Na1 Na1 89.1(4) 2_646 2_655
O10 Na1 Na2 98.7(5) 2_646 2_635
O10 Na1 Na2 136.0(6) 2_646 1_545
O10 Na1 Na4 40.5(5) 2_646 2_636
O10 Na1 O1 118.8(6) 2_646 2_645
O10 Na1 O11 79.4(6) 2_646 2_636
O10 Na1 O2 81.4(6) 2_646 2_645
O10 Na1 O2 151.9(6) 2_646 1_545
O10 Na1 C1 97.3(8) 2_646 2_645
O2 Na1 Na1 47.9(4) 1_545 2_645
O2 Na1 Na1 103.1(6) 1_545 2_655
O2 Na1 Na1 43.4(5) 2_645 2_655
O2 Na1 Na1 87.7(6) 2_645 2_645
O2 Na1 Na2 42.7(5) 1_545 1_545
O2 Na1 Na2 96.0(6) 1_545 2_635
O2 Na1 Na2 80.9(5) 2_645 2_635
O2 Na1 Na2 94.6(5) 2_645 1_545
O2 Na1 Na4 130.4(6) 1_545 2_636
O2 Na1 Na4 98.7(5) 2_645 2_636
O2 Na1 O1 88.0(7) 1_545 2_645
O2 Na1 O2 124.7(5) 1_545 2_645
O2 Na1 C1 110.8(8) 1_545 2_645
O2 Na1 C1 25.7(7) 2_645 2_645
C1 Na1 Na1 66.0(8) 2_645 2_645
C1 Na1 Na1 63.6(7) 2_645 2_655
C1 Na1 Na2 58.5(7) 2_645 2_635
C1 Na1 Na2 96.9(5) 2_645 1_545
C1 Na1 Na4 98.3(5) 2_645 2_636
Na1 Na2 Na1 57.9(2) 1_565 2_655
Na1 Na2 Na1 92.1(3) 2_665 2_655
Na1 Na2 Na1 60.1(2) 1_565 2_665
Na1 Na2 Na3 147.0(3) 1_565 .
Na1 Na2 Na3 130.5(4) 2_665 .
Na3 Na2 Na1 136.1(4) . 2_655
O1 Na2 Na1 98.3(5) 1_565 2_655
O1 Na2 Na1 45.0(4) 1_565 2_665
O1 Na2 Na1 41.0(5) 1_565 1_565
O1 Na2 Na3 118.7(6) 1_565 .
O1 Na2 O10 117.5(6) 1_565 1_554
O1 Na2 C21 100.4(9) 1_565 1_554
O1 Na2 C4 133.0(8) 1_565 .
O11 Na2 Na1 87.4(5) 1_554 1_565
O11 Na2 Na1 80.5(5) 1_554 2_655
O11 Na2 Na1 42.0(5) 1_554 2_665
O11 Na2 Na3 121.6(5) 1_554 .
O11 Na2 O1 86.7(6) 1_554 1_565
O11 Na2 O10 52.5(6) 1_554 1_554
O11 Na2 O3 100.0(7) 1_554 1_565
O11 Na2 C21 25.0(9) 1_554 1_554
O11 Na2 C4 137.9(8) 1_554 .
O10 Na2 Na1 85.1(5) 1_554 2_665
O10 Na2 Na1 38.8(4) 1_554 2_655
O10 Na2 Na1 86.5(4) 1_554 1_565
O10 Na2 Na3 122.8(5) 1_554 .
O10 Na2 C21 27.7(9) 1_554 1_554
O10 Na2 C4 90.7(8) 1_554 .
O2 Na2 Na1 43.1(4) . 2_655
O2 Na2 Na1 44.1(6) . 1_565
O2 Na2 Na1 103.4(6) . 2_665
O2 Na2 Na3 119.3(6) . .
O2 Na2 O1 78.2(6) . 1_565
O2 Na2 O11 116.9(7) . 1_554
O2 Na2 O10 81.7(6) . 1_554
O2 Na2 O4 94.0(8) . .
O2 Na2 O3 138.7(7) . 1_565
O2 Na2 C21 99.2(10) . 1_554
O2 Na2 C4 69.0(9) . .
O4 Na2 Na1 97.7(6) . 2_655
O4 Na2 Na1 162.0(6) . 2_665
O4 Na2 Na1 137.8(6) . 1_565
O4 Na2 Na3 38.4(5) . .
O4 Na2 O1 146.5(7) . 1_565
O4 Na2 O11 124.9(7) . 1_554
O4 Na2 O10 93.1(7) . 1_554
O4 Na2 O3 78.3(7) . 1_565
O4 Na2 C21 113.0(10) . 1_554
O4 Na2 C4 25.0(7) . .
O3 Na2 Na1 91.3(6) 1_565 2_665
O3 Na2 Na1 126.6(6) 1_565 1_565
O3 Na2 Na1 175.5(6) 1_565 2_655
O3 Na2 Na3 40.0(5) 1_565 .
O3 Na2 O1 86.3(7) 1_565 1_565
O3 Na2 O10 138.6(7) 1_565 1_554
O3 Na2 C21 121.3(11) 1_565 1_554
O3 Na2 C4 96.5(7) 1_565 .
C21 Na2 Na1 84.4(6) 1_554 1_565
C21 Na2 Na1 60.1(9) 1_554 2_665
C21 Na2 Na1 58.2(9) 1_554 2_655
C21 Na2 Na3 128.6(7) 1_554 .
C21 Na2 C4 117.0(12) 1_554 .
C4 Na2 Na1 112.8(7) . 1_565
C4 Na2 Na1 171.9(8) . 2_665
C4 Na2 Na1 80.3(7) . 2_655
C4 Na2 Na3 57.6(8) . .
Na1 Na4 Na2 56.3(2) 2_666 1_556
Na1 Na4 Na4 135.5(4) 2_666 2_547
Na1 Na4 Na4 131.9(3) 2_666 2_557
Na2 Na4 Na4 79.9(3) 1_556 2_547
Na2 Na4 Na4 126.4(4) 1_556 2_557
Na4 Na4 Na4 78.9(3) 2_557 2_547
O11 Na4 Na1 40.5(5) . 2_666
O11 Na4 Na2 34.8(4) . 1_556
O11 Na4 Na4 98.6(5) . 2_547
O11 Na4 Na4 160.1(7) . 2_557
O11 Na4 O10 81.1(7) . 1_565
O11 Na4 O12 129.8(8) . .
O11 Na4 O12 89.8(7) . 2_547
O11 Na4 C21 19.6(6) . .
O11 Na4 O5 121.2(9) . 2_556
O10 Na4 Na1 40.6(5) 1_565 2_666
O10 Na4 Na2 90.1(6) 1_565 1_556
O10 Na4 Na4 161.6(6) 1_565 2_547
O10 Na4 Na4 95.1(4) 1_565 2_557
O10 Na4 O12 165.7(7) 1_565 2_547
O10 Na4 O12 103.5(7) 1_565 .
O10 Na4 C21 96.6(8) 1_565 .
O12 Na4 Na1 123.6(6) . 2_666
O12 Na4 Na1 129.8(6) 2_547 2_666
O12 Na4 Na2 88.6(6) 2_547 1_556
O12 Na4 Na2 95.0(6) . 1_556
O12 Na4 Na4 30.9(4) 2_547 2_547
O12 Na4 Na4 32.0(5) . 2_557
O12 Na4 Na4 62.5(6) . 2_547
O12 Na4 Na4 97.1(6) 2_547 2_557
O12 Na4 O12 90.8(6) . 2_547
O12 Na4 C21 136.3(9) . .
O12 Na4 C21 72.4(9) 2_547 .
C21 Na4 Na1 57.4(7) . 2_666
C21 Na4 Na2 46.1(5) . 1_556
C21 Na4 Na4 166.0(7) . 2_557
C21 Na4 Na4 87.7(7) . 2_547
O5 Na4 Na1 107.7(8) 2_556 2_666
O5 Na4 Na2 156.0(8) 2_556 1_556
O5 Na4 Na4 110.5(8) 2_556 2_547
O5 Na4 Na4 77.6(8) 2_556 2_557
O5 Na4 O10 84.8(9) 2_556 1_565
O5 Na4 O12 90.6(9) 2_556 2_547
O5 Na4 O12 109.0(10) 2_556 .
O5 Na4 C21 111.1(9) 2_556 .
O4 Na3 Na2 40.4(5) . .
O4 Na3 O8 92.9(8) . .
O4 Na3 O3 82.1(7) . 1_565
O4 Na3 O5 94.2(9) . .
O4 Na3 O6 142.0(11) . .
O4 Na3 O7 91.8(13) . .
O4 Na3 C22 119.3(9) . .
O8 Na3 Na2 88.3(5) . .
O8 Na3 C22 144.7(9) . .
O3 Na3 Na2 41.9(6) 1_565 .
O3 Na3 O8 88.8(8) 1_565 .
O3 Na3 O5 91.6(9) 1_565 .
O3 Na3 O6 116.8(10) 1_565 .
O3 Na3 O7 170.2(12) 1_565 .
O3 Na3 C22 108.3(9) 1_565 .
O5 Na3 Na2 96.8(7) . .
O5 Na3 O8 172.8(9) . .
O5 Na3 C22 29.1(8) . .
O6 Na3 Na2 148.2(8) . .
O6 Na3 O8 118.6(9) . .
O6 Na3 O5 55.1(9) . .
O6 Na3 O7 72.5(13) . .
O6 Na3 C22 26.1(8) . .
O7 Na3 Na2 131.1(12) . .
O7 Na3 O8 83.9(11) . .
O7 Na3 O5 96.4(11) . .
O7 Na3 C22 81.3(12) . .
C22 Na3 Na2 125.2(7) . .
Na1 O1 Na1 94.2(7) . 2_655
Na1 O1 Na2 94.8(8) . 1_545
Na2 O1 Na1 92.0(6) 1_545 2_655
C1 O1 Na1 151.8(14) . .
C1 O1 Na1 89.9(14) . 2_655
C1 O1 Na2 112.9(13) . 1_545
Na1 O11 Na2 95.9(7) 2_666 1_556
Na4 O11 Na1 100.5(8) . 2_666
Na4 O11 Na2 111.7(7) . 1_556
C21 O11 Na1 126.6(18) . 2_666
C21 O11 Na2 98.5(18) . 1_556
C21 O11 Na4 120.5(18) . .
Na1 O10 Na2 97.8(6) 2_656 1_556
Na4 O10 Na1 98.9(7) 1_545 2_656
Na4 O10 Na2 116.9(7) 1_545 1_556
C21 O10 Na1 124.1(17) . 2_656
C21 O10 Na2 85.3(15) . 1_556
C21 O10 Na4 129.2(17) . 1_545
Na1 O2 Na1 88.7(6) 1_565 2_655
Na2 O2 Na1 93.2(8) . 1_565
Na2 O2 Na1 98.8(7) . 2_655
C1 O2 Na1 134.3(16) . 1_565
C1 O2 Na1 87.5(14) . 2_655
C1 O2 Na2 132.4(17) . .
Na3 O4 Na2 101.2(9) . .
C4 O4 Na2 105.6(17) . .
C4 O4 Na3 125.0(18) . .
C5 N1 H1 118.7 . .
C5 N1 C3 123(2) . .
C3 N1 H1 118.7 . .
C5 O8 Na3 112.4(18) . .
Na3 O3 Na2 98.1(8) 1_545 1_545
C4 O3 Na2 137.3(19) . 1_545
C4 O3 Na3 123.5(19) . 1_545
C18 N2 H2 118.3 . .
C18 N2 C19 123(2) . .
C19 N2 H2 118.3 . .
Na4 O12 Na4 117.0(8) . 2_557
Na4 O12 H12A 108.0 2_557 .
Na4 O12 H12A 108.0 . .
Na4 O12 H12B 108.0 2_557 .
Na4 O12 H12B 108.0 . .
H12A O12 H12B 107.3 . .
C17A C12 C9 122(3) . .
C17A C12 C13A 118(5) . .
C17A C12 C13B 108(5) . .
C17A C12 C17B 31(4) . .
C13A C12 C9 120(4) . .
C13A C12 C17B 110(5) . .
C13B C12 C9 124(4) . .
C13B C12 C13A 30(9) . .
C13B C12 C17B 116(5) . .
C17B C12 C9 119(4) . .
Na2 C21 Na4 81.7(10) 1_556 .
O11 C21 Na2 56.6(13) . 1_556
O11 C21 Na4 39.9(15) . .
O11 C21 O10 123(2) . .
O11 C21 C20 118(3) . .
O10 C21 Na2 67.0(13) . 1_556
O10 C21 Na4 128.0(17) . .
O10 C21 C20 120(3) . .
C20 C21 Na2 170(2) . 1_556
C20 C21 Na4 98(2) . .
C6 C7 H7 118.1 . .
C6 C7 C8 124(2) . .
C8 C7 H7 118.1 . .
C8 C9 C12 124(2) . .
C8 C9 C10 117(2) . .
C10 C9 C12 119(2) . .
O1 C1 Na1 62.3(11) . 2_655
O1 C1 C2 114(3) . .
O2 C1 Na1 66.7(13) . 2_655
O2 C1 O1 127(2) . .
O2 C1 C2 119(3) . .
C2 C1 Na1 162.8(16) . 2_655
C14A C15 C18 125(4) . .
C14A C15 C16A 115(5) . .
C14A C15 C16B 106(5) . .
C14A C15 C14B 35(6) . .
C16A C15 C18 120(4) . .
C16A C15 C16B 26(10) . .
C16B C15 C18 118(4) . .
C14B C15 C18 125(4) . .
C14B C15 C16A 109(5) . .
C14B C15 C16B 118(5) . .
N1 C5 C6 118(3) . .
O8 C5 N1 124(3) . .
O8 C5 C6 118(3) . .
C1 C2 H2A 109.9 . .
C1 C2 H2B 109.9 . .
H2A C2 H2B 108.3 . .
C3 C2 C1 109(2) . .
C3 C2 H2A 109.9 . .
C3 C2 H2B 109.9 . .
C7 C6 C5 127(3) . .
C7 C6 C11 115(2) . .
C11 C6 C5 118(2) . .
C21 C20 H20A 108.3 . .
C21 C20 H20B 108.3 . .
C21 C20 C19 116(3) . .
H20A C20 H20B 107.4 . .
C19 C20 H20A 108.3 . .
C19 C20 H20B 108.3 . .
N1 C3 C2 114(2) . .
N1 C3 H3 106.4 . .
N1 C3 C4 113(2) . .
C2 C3 H3 106.4 . .
C2 C3 C4 111(2) . .
C4 C3 H3 106.4 . .
N2 C18 C15 117(3) . .
O9 C18 N2 121(3) . .
O9 C18 C15 120(4) . .
O20 C18 N2 116(4) . .
O20 C18 C15 123(4) . .
O20 C18 O9 33(4) . .
O20 O9 C18 62(7) . .
C7 C8 C9 122(2) . .
C7 C8 H8 118.9 . .
C9 C8 H8 118.9 . .
Na4 O5 Na3 130.5(12) 2_546 .
C22 O5 Na4 129(2) . 2_546
C22 O5 Na3 90.0(18) . .
C6 C11 H11 118.5 . .
C10 C11 C6 123(2) . .
C10 C11 H11 118.5 . .
O4 C4 Na2 49.4(14) . .
O4 C4 C3 113(3) . .
O3 C4 Na2 134(2) . .
O3 C4 O4 132(3) . .
O3 C4 C3 115(3) . .
C3 C4 Na2 86.6(18) . .
C9 C10 H10 120.2 . .
C11 C10 C9 120(3) . .
C11 C10 H10 120.2 . .
N2 C19 C20 110(2) . .
N2 C19 H19 112.1 . .
N2 C19 C22 108(2) . 2_546
C20 C19 H19 112.1 . .
C20 C19 C22 103(2) . 2_546
C22 C19 H19 112.1 2_546 .
C22 O6 Na3 97(2) . .
C12 C17A H17A 120.5 . .
C12 C17A C16A 119(7) . .
C12 C17A C16B 110(4) . .
C16A C17A H17A 120.5 . .
C16A C17A C16B 24(10) . .
C16B C17A H17A 124.6 . .
C17B C17A C12 75(3) . .
C17B C17A H17A 106.7 . .
C17B C17A C16A 88(10) . .
C17B C17A C16B 64(9) . .
C12 C13A H13A 119.5 . .
C12 C13A C14B 111(6) . .
C14A C13A C12 121(7) . .
C14A C13A H13A 119.5 . .
C14A C13A C14B 32(6) . .
C13B C13A C12 75(5) . .
C13B C13A H13A 104.3 . .
C13B C13A C14A 91(10) . .
C13B C13A C14B 59(9) . .
C14B C13A H13A 120.2 . .
Na3 O7 H7A 102.2 . .
C23 O7 Na3 147(5) . .
C23 O7 H7A 109.5 . .
C15 C14A H14A 119.1 . .
C15 C14A C13B 107(6) . .
C13A C14A C15 122(7) . .
C13A C14A H14A 119.1 . .
C13A C14A C13B 27(8) . .
C13B C14A H14A 128.4 . .
C14B C14A C15 72(3) . .
C14B C14A C13A 88(10) . .
C14B C14A H14A 110.0 . .
C14B C14A C13B 62(9) . .
C15 C16A H16A 117.9 . .
C15 C16A C17B 113(6) . .
C17A C16A C15 124(7) . .
C17A C16A H16A 117.9 . .
C17A C16A C17B 28(5) . .
C16B C16A C15 77(6) . .
C16B C16A C17A 92(10) . .
C16B C16A H16A 101.5 . .
C16B C16A C17B 64(10) . .
C17B C16A H16A 121.5 . .
O7 C23 H23A 109.5 . .
O7 C23 H23B 109.5 . .
O7 C23 H23C 109.5 . .
H23A C23 H23B 109.5 . .
H23A C23 H23C 109.5 . .
H23B C23 H23C 109.5 . .
C12 C13B C14A 110(7) . .
C12 C13B H13B 117.1 . .
C13A C13B C12 75(5) . .
C13A C13B C14A 62(10) . .
C13A C13B H13B 100.9 . .
C13A C13B C14B 95(10) . .
C14A C13B H13B 123.8 . .
C14B C13B C12 126(7) . .
C14B C13B C14A 33(5) . .
C14B C13B H13B 117.1 . .
C15 C16B C17A 113(6) . .
C15 C16B H16B 118.3 . .
C15 C16B C17B 123(7) . .
C17A C16B H16B 121.2 . .
C16A C16B C15 77(6) . .
C16A C16B C17A 63(10) . .
C16A C16B H16B 102.4 . .
C16A C16B C17B 92(10) . .
C17B C16B C17A 28(4) . .
C17B C16B H16B 118.3 . .
C15 C14B C13A 108(4) . .
C15 C14B H14B 121.1 . .
C13A C14B H14B 124.7 . .
C14A C14B C15 72(3) . .
C14A C14B C13A 60(7) . .
C14A C14B C13B 86(10) . .
C14A C14B H14B 111.6 . .
C13B C14B C15 118(6) . .
C13B C14B C13A 26(8) . .
C13B C14B H14B 121.1 . .
C12 C17B C16A 109(5) . .
C12 C17B C16B 119(6) . .
C12 C17B H17B 120.4 . .
C17A C17B C12 74(3) . .
C17A C17B C16A 64(10) . .
C17A C17B C16B 88(10) . .
C17A C17B H17B 107.6 . .
C16A C17B H17B 125.8 . .
C16B C17B C16A 24(9) . .
C16B C17B H17B 120.4 . .
O5 C22 Na3 60.9(16) . .
O5 C22 C19 118(2) . 2_556
C19 C22 Na3 169(2) 2_556 .
O6 C22 Na3 56.9(18) . .
O6 C22 O5 117(3) . .
O6 C22 C19 124(3) . 2_556
O9 O20 C18 85(9) . .
loop_
_geom_bond_atom_site_label_1
_geom_bond_atom_site_label_2
_geom_bond_distance
_geom_bond_site_symmetry_2
Na1 Na1 3.488(11) 2_645
Na1 Na1 3.488(11) 2_655
Na1 Na2 3.440(11) 1_545
Na1 Na2 3.526(12) 2_635
Na1 Na4 3.590(12) 2_636
Na1 O1 2.26(2) .
Na1 O1 2.493(18) 2_645
Na1 O11 2.37(2) 2_636
Na1 O10 2.367(19) 2_646
Na1 O2 2.589(18) 2_645
Na1 O2 2.40(2) 1_545
Na1 C1 2.82(2) 2_645
Na2 Na1 3.526(12) 2_665
Na2 Na1 3.440(12) 1_565
Na2 Na1 3.744(13) 2_655
Na2 Na3 3.558(13) .
Na2 O1 2.407(19) 1_565
Na2 O11 2.375(18) 1_554
Na2 O10 2.599(17) 1_554
Na2 O2 2.34(2) .
Na2 O4 2.35(2) .
Na2 O3 2.40(2) 1_565
Na2 C21 2.81(3) 1_554
Na2 C4 2.98(4) .
Na4 Na1 3.590(13) 2_666
Na4 Na2 3.866(15) 1_556
Na4 Na4 4.120(15) 2_557
Na4 Na4 4.120(15) 2_547
Na4 O11 2.297(19) .
Na4 O10 2.36(2) 1_565
Na4 O12 2.45(2) 2_547
Na4 O12 2.38(2) .
Na4 C21 3.09(4) .
Na4 O5 2.31(3) 2_556
Na3 O4 2.25(2) .
Na3 O8 2.47(2) .
Na3 O3 2.31(2) 1_565
Na3 O5 2.47(3) .
Na3 O6 2.39(3) .
Na3 O7 2.47(4) .
Na3 C22 2.83(3) .
O1 Na1 2.493(18) 2_655
O1 Na2 2.407(18) 1_545
O1 C1 1.31(3) .
O11 Na1 2.37(2) 2_666
O11 Na2 2.375(18) 1_556
O11 C21 1.20(4) .
O10 Na1 2.367(19) 2_656
O10 Na2 2.599(17) 1_556
O10 Na4 2.36(2) 1_545
O10 C21 1.31(4) .
O2 Na1 2.589(18) 2_655
O2 Na1 2.40(2) 1_565
O2 C1 1.22(3) .
O4 C4 1.31(4) .
N1 H1 0.8800 .
N1 C5 1.31(3) .
N1 C3 1.44(3) .
O8 C5 1.23(3) .
O3 Na2 2.40(2) 1_545
O3 Na3 2.31(2) 1_545
O3 C4 1.25(4) .
N2 H2 0.8800 .
N2 C18 1.37(4) .
N2 C19 1.47(3) .
O12 Na4 2.45(2) 2_557
O12 H12A 0.9900 .
O12 H12B 0.9900 .
C12 C9 1.48(3) .
C12 C17A 1.39(3) .
C12 C13A 1.40(3) .
C12 C13B 1.40(3) .
C12 C17B 1.40(3) .
C21 Na2 2.81(3) 1_556
C21 C20 1.53(3) .
C7 H7 0.9500 .
C7 C6 1.35(3) .
C7 C8 1.35(3) .
C9 C8 1.36(4) .
C9 C10 1.41(4) .
C1 Na1 2.82(2) 2_655
C1 C2 1.54(3) .
C15 C18 1.45(4) .
C15 C14A 1.40(3) .
C15 C16A 1.40(3) .
C15 C16B 1.40(3) .
C15 C14B 1.40(3) .
C5 C6 1.51(4) .
C2 H2A 0.9900 .
C2 H2B 0.9900 .
C2 C3 1.48(4) .
C6 C11 1.41(4) .
C20 H20A 0.9900 .
C20 H20B 0.9900 .
C20 C19 1.53(4) .
C3 H3 1.0000 .
C3 C4 1.58(4) .
C18 O9 1.36(6) .
C18 O20 1.20(7) .
O9 O20 0.75(8) .
C8 H8 0.9500 .
O5 Na4 2.31(3) 2_546
O5 C22 1.38(4) .
C11 H11 0.9500 .
C11 C10 1.36(3) .
C10 H10 0.9500 .
C19 H19 1.0000 .
C19 C22 1.60(4) 2_546
O6 C22 1.26(4) .
C17A H17A 0.9500 .
C17A C16A 1.40(3) .
C17A C16B 1.57(13) .
C17A C17B 0.74(11) .
C13A H13A 0.9500 .
C13A C14A 1.40(3) .
C13A C13B 0.7(2) .
C13A C14B 1.62(13) .
O7 H7A 0.8400 .
O7 C23 1.60(12) .
C14A H14A 0.9500 .
C14A C13B 1.58(16) .
C14A C14B 0.85(14) .
C16A H16A 0.9500 .
C16A C16B 0.6(3) .
C16A C17B 1.56(16) .
C23 H23A 0.9800 .
C23 H23B 0.9800 .
C23 H23C 0.9800 .
C13B H13B 0.9500 .
C13B C14B 1.39(3) .
C16B H16B 0.9500 .
C16B C17B 1.40(3) .
C14B H14B 0.9500 .
C17B H17B 0.9500 .
C22 C19 1.60(4) 2_556
loop_
_geom_torsion_atom_site_label_1
_geom_torsion_atom_site_label_2
_geom_torsion_atom_site_label_3
_geom_torsion_atom_site_label_4
_geom_torsion
_geom_torsion_site_symmetry_1
_geom_torsion_site_symmetry_4
Na1 O1 C1 Na1 99(3) . 2_655
Na1 O1 C1 O2 -18(2) 2_655 .
Na1 O1 C1 O2 81(4) . .
Na1 O1 C1 C2 -100(3) . .
Na1 O1 C1 C2 161.2(16) 2_655 .
Na1 O11 C21 Na2 104.0(18) 2_666 1_556
Na1 O11 C21 Na4 -135(3) 2_666 .
Na1 O11 C21 O10 114(3) 2_666 .
Na1 O11 C21 C20 -67(3) 2_666 .
Na1 O10 C21 Na2 -96.2(14) 2_656 1_556
Na1 O10 C21 Na4 -154.1(12) 2_656 .
Na1 O10 C21 O11 -105(3) 2_656 .
Na1 O10 C21 C20 76(3) 2_656 .
Na1 O2 C1 Na1 -85.7(18) 1_565 2_655
Na1 O2 C1 O1 -69(3) 1_565 .
Na1 O2 C1 O1 17(2) 2_655 .
Na1 O2 C1 C2 113(2) 1_565 .
Na1 O2 C1 C2 -161.8(17) 2_655 .
Na1 C1 C2 C3 -57(10) 2_655 .
Na2 O1 C1 Na1 -92.2(10) 1_545 2_655
Na2 O1 C1 O2 -110(2) 1_545 .
Na2 O1 C1 C2 69.0(19) 1_545 .
Na2 O11 C21 Na4 121.4(17) 1_556 .
Na2 O11 C21 O10 10(3) 1_556 .
Na2 O11 C21 C20 -171.2(19) 1_556 .
Na2 O10 C21 Na4 -58(2) 1_556 .
Na2 O10 C21 O11 -9(3) 1_556 .
Na2 O10 C21 C20 172(2) 1_556 .
Na2 O2 C1 Na1 99.7(17) . 2_655
Na2 O2 C1 O1 117(2) . .
Na2 O2 C1 C2 -62(3) . .
Na2 O4 C4 O3 -117(3) . .
Na2 O4 C4 C3 63(2) . .
Na2 O3 C4 Na2 36(5) 1_545 .
Na2 O3 C4 O4 105(4) 1_545 .
Na2 O3 C4 C3 -75(3) 1_545 .
Na4 O11 C21 Na2 -121.4(17) . 1_556
Na4 O11 C21 O10 -112(3) . .
Na4 O11 C21 C20 67(3) . .
Na4 O10 C21 Na2 121.2(17) 1_545 1_556
Na4 O10 C21 Na4 63(3) 1_545 .
Na4 O10 C21 O11 112(3) 1_545 .
Na4 O10 C21 C20 -67(3) 1_545 .
Na4 C21 C20 C19 -140(2) . .
Na4 O5 C22 Na3 146(3) 2_546 .
Na4 O5 C22 C19 -21(4) 2_546 2_556
Na4 O5 C22 O6 154(2) 2_546 .
Na3 O4 C4 Na2 -116(2) . .
Na3 O4 C4 O3 127(3) . .
Na3 O4 C4 C3 -53(3) . .
Na3 O8 C5 N1 71(3) . .
Na3 O8 C5 C6 -114(2) . .
Na3 O3 C4 Na2 -158.7(15) 1_545 .
Na3 O3 C4 O4 -89(3) 1_545 .
Na3 O3 C4 C3 91(3) 1_545 .
Na3 O5 C22 C19 -168(2) . 2_556
Na3 O5 C22 O6 8(3) . .
Na3 O6 C22 O5 -8(3) . .
Na3 O6 C22 C19 167(3) . 2_556
O1 C1 C2 C3 -132(2) . .
O11 C21 C20 C19 -177(2) . .
O10 C21 C20 C19 2(4) . .
O2 C1 C2 C3 47(3) . .
N1 C5 C6 C7 22(4) . .
N1 C5 C6 C11 -156(2) . .
N1 C3 C4 Na2 137(2) . .
N1 C3 C4 O4 95(3) . .
N1 C3 C4 O3 -85(3) . .
O8 C5 C6 C7 -153(3) . .
O8 C5 C6 C11 28(4) . .
N2 C18 O9 O20 92(10) . .
N2 C18 O20 O9 -106(9) . .
C12 C9 C8 C7 -180(3) . .
C12 C9 C10 C11 -179(3) . .
C12 C17A C16A C15 -3(16) . .
C12 C17A C16A C16B 73(10) . .
C12 C17A C16A C17B 72(8) . .
C12 C17A C16B C15 -57(12) . .
C12 C17A C16B C16A -117(12) . .
C12 C17A C16B C17B 62(6) . .
C12 C17A C17B C16A -121(4) . .
C12 C17A C17B C16B -121(4) . .
C12 C13A C14A C15 11(15) . .
C12 C13A C14A C13B 73(11) . .
C12 C13A C14A C14B 79(12) . .
C12 C13A C13B C14A -122(4) . .
C12 C13A C13B C14B -126(5) . .
C12 C13A C14B C15 -60(11) . .
C12 C13A C14B C14A -116(11) . .
C12 C13A C14B C13B 57(8) . .
C12 C13B C14B C15 -2(16) . .
C12 C13B C14B C13A -75(12) . .
C12 C13B C14B C14A -69(13) . .
C21 C20 C19 N2 -154(2) . .
C21 C20 C19 C22 91(3) . 2_546
C7 C6 C11 C10 3(4) . .
C9 C12 C17A C16A -174(7) . .
C9 C12 C17A C16B -149(5) . .
C9 C12 C17A C17B -94(11) . .
C9 C12 C13A C14A 170(8) . .
C9 C12 C13A C13B -109(11) . .
C9 C12 C13A C14B -157(5) . .
C9 C12 C13B C13A 90(13) . .
C9 C12 C13B C14A 143(4) . .
C9 C12 C13B C14B 175(8) . .
C9 C12 C17B C17A 104(10) . .
C9 C12 C17B C16A 159(4) . .
C9 C12 C17B C16B -177(7) . .
C1 C2 C3 N1 177(2) . .
C1 C2 C3 C4 49(3) . .
C15 C18 O9 O20 -105(10) . .
C15 C18 O20 O9 96(10) . .
C15 C14A C13B C12 68(9) . .
C15 C14A C13B C13A 129(10) . .
C15 C14A C13B C14B -59(6) . .
C15 C14A C14B C13A 124(4) . .
C15 C14A C14B C13B 121(4) . .
C15 C16A C16B C17A 125(4) . .
C15 C16A C16B C17B 124(5) . .
C15 C16A C17B C12 59(10) . .
C15 C16A C17B C17A 120(10) . .
C15 C16A C17B C16B -61(11) . .
C15 C16B C17B C12 5(15) . .
C15 C16B C17B C17A 76(14) . .
C15 C16B C17B C16A 75(10) . .
C5 N1 C3 C2 141(3) . .
C5 N1 C3 C4 -92(3) . .
C5 C6 C11 C10 -178(3) . .
C2 C3 C4 Na2 -94(2) . .
C2 C3 C4 O4 -137(2) . .
C2 C3 C4 O3 43(3) . .
C6 C7 C8 C9 2(5) . .
C6 C11 C10 C9 -3(4) . .
C3 N1 C5 O8 -3(4) . .
C3 N1 C5 C6 -178(2) . .
C18 N2 C19 C20 155(3) . .
C18 N2 C19 C22 -94(3) . 2_546
C18 C15 C14A C13A 180(7) . .
C18 C15 C14A C13B 155(4) . .
C18 C15 C14A C14B 103(10) . .
C18 C15 C16A C17A 177(8) . .
C18 C15 C16A C16B 93(15) . .
C18 C15 C16A C17B 147(5) . .
C18 C15 C16B C17A -155(6) . .
C18 C15 C16B C16A -102(12) . .
C18 C15 C16B C17B 175(8) . .
C18 C15 C14B C13A -151(5) . .
C18 C15 C14B C14A -102(9) . .
C18 C15 C14B C13B -178(7) . .
C8 C7 C6 C5 179(3) . .
C8 C7 C6 C11 -2(4) . .
C8 C9 C10 C11 2(4) . .
C10 C9 C8 C7 -1(4) . .
C19 N2 C18 C15 175(3) . .
C19 N2 C18 O9 -22(5) . .
C19 N2 C18 O20 16(5) . .
C17A C12 C9 C8 14(5) . .
C17A C12 C9 C10 -164(4) . .
C17A C12 C13A C14A -6(13) . .
C17A C12 C13A C13B 76(13) . .
C17A C12 C13A C14B 28(10) . .
C17A C12 C13B C13A -116(12) . .
C17A C12 C13B C14A -63(9) . .
C17A C12 C13B C14B -31(14) . .
C17A C12 C17B C16A 55(11) . .
C17A C12 C17B C16B 79(11) . .
C17A C16A C16B C15 -125(4) . .
C17A C16A C16B C17B -1(7) . .
C17A C16A C17B C12 -61(6) . .
C17A C16A C17B C16B 179(15) . .
C17A C16B C17B C12 -71(6) . .
C17A C16B C17B C16A -1(13) . .
C13A C12 C9 C8 -161(6) . .
C13A C12 C9 C10 21(7) . .
C13A C12 C17A C16A 2(11) . .
C13A C12 C17A C16B 26(10) . .
C13A C12 C17A C17B 81(12) . .
C13A C12 C13B C14A 53(12) . .
C13A C12 C13B C14B 85(15) . .
C13A C12 C17B C17A -113(12) . .
C13A C12 C17B C16A -58(8) . .
C13A C12 C17B C16B -34(10) . .
C13A C14A C13B C12 -61(8) . .
C13A C14A C13B C14B 173(13) . .
C13A C14A C14B C15 -124(4) . .
C13A C14A C14B C13B -3(6) . .
C13A C13B C14B C15 74(12) . .
C13A C13B C14B C14A 6(12) . .
C14A C15 C18 N2 -50(7) . .
C14A C15 C18 O9 147(6) . .
C14A C15 C18 O20 108(7) . .
C14A C15 C16A C17A 8(15) . .
C14A C15 C16A C16B -76(14) . .
C14A C15 C16A C17B -22(11) . .
C14A C15 C16B C17A 60(11) . .
C14A C15 C16B C16A 113(14) . .
C14A C15 C16B C17B 31(14) . .
C14A C15 C14B C13A -49(7) . .
C14A C15 C14B C13B -75(10) . .
C14A C13A C13B C12 122(4) . .
C14A C13A C13B C14B -4(7) . .
C14A C13A C14B C15 56(5) . .
C14A C13A C14B C13B 173(14) . .
C14A C13B C14B C15 67(6) . .
C14A C13B C14B C13A -6(12) . .
C16A C15 C18 N2 142(7) . .
C16A C15 C18 O9 -21(9) . .
C16A C15 C18 O20 -60(9) . .
C16A C15 C14A C13A -12(13) . .
C16A C15 C14A C13B -36(10) . .
C16A C15 C14A C14B -88(11) . .
C16A C15 C16B C17A -53(11) . .
C16A C15 C16B C17B -83(14) . .
C16A C15 C14B C13A 58(10) . .
C16A C15 C14B C14A 106(12) . .
C16A C15 C14B C13B 31(11) . .
C16A C17A C16B C15 61(8) . .
C16A C17A C16B C17B 179(15) . .
C16A C17A C17B C12 121(4) . .
C16A C17A C17B C16B 0(6) . .
C16A C16B C17B C12 -70(12) . .
C16A C16B C17B C17A 1(13) . .
C13B C12 C9 C8 164(7) . .
C13B C12 C9 C10 -14(8) . .
C13B C12 C17A C16A 32(11) . .
C13B C12 C17A C16B 56(10) . .
C13B C12 C17A C17B 111(13) . .
C13B C12 C13A C14A -82(16) . .
C13B C12 C13A C14B -48(10) . .
C13B C12 C17B C17A -81(13) . .
C13B C12 C17B C16A -27(9) . .
C13B C12 C17B C16B -3(12) . .
C13B C13A C14A C15 -62(10) . .
C13B C13A C14A C14B 6(12) . .
C13B C13A C14B C15 -117(13) . .
C13B C13A C14B C14A -173(14) . .
C13B C14A C14B C15 -121(4) . .
C13B C14A C14B C13A 3(6) . .
C16B C15 C18 N2 172(7) . .
C16B C15 C18 O9 9(8) . .
C16B C15 C18 O20 -30(9) . .
C16B C15 C14A C13A -39(11) . .
C16B C15 C14A C13B -63(9) . .
C16B C15 C14A C14B -115(10) . .
C16B C15 C16A C17A 84(19) . .
C16B C15 C16A C17B 54(15) . .
C16B C15 C14B C13A 30(11) . .
C16B C15 C14B C14A 79(12) . .
C16B C15 C14B C13B 4(13) . .
C16B C17A C16A C15 -76(15) . .
C16B C17A C16A C17B -1(14) . .
C16B C17A C17B C12 121(4) . .
C16B C17A C17B C16A 0(6) . .
C16B C16A C17B C12 120(11) . .
C16B C16A C17B C17A -179(15) . .
C14B C15 C18 N2 -6(6) . .
C14B C15 C18 O9 -170(6) . .
C14B C15 C18 O20 151(7) . .
C14B C15 C14A C13A 77(13) . .
C14B C15 C14A C13B 52(10) . .
C14B C15 C16A C17A -30(14) . .
C14B C15 C16A C16B -114(13) . .
C14B C15 C16A C17B -60(10) . .
C14B C15 C16B C17A 24(12) . .
C14B C15 C16B C16A 77(15) . .
C14B C15 C16B C17B -6(15) . .
C14B C13A C14A C15 -68(9) . .
C14B C13A C14A C13B -6(12) . .
C14B C13A C13B C12 126(5) . .
C14B C13A C13B C14A 4(7) . .
C14B C14A C13B C12 127(11) . .
C14B C14A C13B C13A -173(13) . .
C17B C12 C9 C8 -22(5) . .
C17B C12 C9 C10 160(4) . .
C17B C12 C17A C16A -79(14) . .
C17B C12 C17A C16B -55(9) . .
C17B C12 C13A C14A 26(12) . .
C17B C12 C13A C13B 108(12) . .
C17B C12 C13A C14B 60(9) . .
C17B C12 C13B C13A -84(13) . .
C17B C12 C13B C14A -31(10) . .
C17B C12 C13B C14B 1(15) . .
C17B C17A C16A C15 -75(12) . .
C17B C17A C16A C16B 1(13) . .
C17B C17A C16B C15 -118(13) . .
C17B C17A C16B C16A -179(15) . .
C17B C16A C16B C15 -124(5) . .
C17B C16A C16B C17A 1(7) . .
