#------------------------------------------------------------------------------
#$Date: 2018-10-05 15:19:55 +0300 (Fri, 05 Oct 2018) $
#$Revision: 211332 $
#$URL: file:///home/coder/svn-repositories/cod/cif/7/11/81/7118126.cif $
#------------------------------------------------------------------------------
#
# This file is available in the Crystallography Open Database (COD),
# http://www.crystallography.net/
#
# All data on this site have been placed in the public domain by the
# contributors.
#
data_7118126
loop_
_publ_author_name
'Siman, Peter'
'Trickett, Christopher A.'
'Furukawa, Hiroyasu'
'Yaghi, Omar M.'
_publ_section_title
;
 l-Aspartate links for stable sodium metal-organic frameworks.
;
_journal_issue                   98
_journal_name_full
'Chemical communications (Cambridge, England)'
_journal_page_first              17463
_journal_page_last               17466
_journal_paper_doi               10.1039/c5cc07578e
_journal_volume                  51
_journal_year                    2015
_chemical_absolute_configuration rm
_chemical_formula_moiety         'C17 H18 N2 Na4 O12'
_chemical_formula_sum            'C17 H18 N2 Na4 O12'
_chemical_formula_weight         534.29
_chemical_name_common            'MOF-705 as-synthesized'
_space_group_crystal_system      monoclinic
_space_group_IT_number           4
_space_group_name_Hall           'P 2yb'
_space_group_name_H-M_alt        'P 1 21 1'
_symmetry_space_group_name_Hall  'P 2yb'
_symmetry_space_group_name_H-M   'P 1 21 1'
_atom_sites_solution_hydrogens   geom
_atom_sites_solution_primary     'intrinsic phasing'
_atom_sites_solution_secondary   difmap
_audit_creation_date             2015-08-18
_audit_creation_method
;
(compiled 2015.01.26 svn.r3150 for OlexSys, GUI svn.r4998)
;
_audit_update_record
;
2015-08-24 deposited with the CCDC.
2015-09-30 downloaded from the CCDC.
;
_cell_angle_alpha                90
_cell_angle_beta                 97.279(2)
_cell_angle_gamma                90
_cell_formula_units_Z            2
_cell_length_a                   11.8894(4)
_cell_length_b                   5.2299(2)
_cell_length_c                   17.4663(5)
_cell_measurement_temperature    100(2)
_cell_volume                     1077.31(6)
_computing_cell_refinement       'SAINT V8.34A Bruker-AXS, Madison WI'
_computing_data_collection       'Bruker APEX2 Bruker-AXS, Madison WI'
_computing_data_reduction        'SAINT V8.34A Bruker-AXS, Madison WI'
_computing_molecular_graphics
;
Bruker SHELXTL Bruker-AXS, Madison WI
Diamond - Crystal and Molecular Structure Visualization
Crystal Impact - Dr. H. Putz & Dr. K. Brandenburg GbR, Kreuzherrenstr. 
102, 53227 Bonn, Germany
http://www.crystalimpact.com/diamond
and local programs
;
_computing_publication_material  'Bruker SHELXTL Bruker-AXS, Madison WI'
_computing_structure_refinement  'SHELXL-2014/7 (Sheldrick, 2013)'
_computing_structure_solution    'SHELXT 2014/4 Bruker-AXS, Madison WI'
_diffrn_ambient_temperature      100(2)
_diffrn_measured_fraction_theta_full 1.000
_diffrn_measured_fraction_theta_max 1.000
_diffrn_measurement_device_type  'Bruker APEX-II CCD diffractometer'
_diffrn_measurement_method       'phi and omega scans'
_diffrn_radiation_type           CuK\a
_diffrn_radiation_wavelength     1.54178
_diffrn_reflns_av_R_equivalents  0.0889
_diffrn_reflns_av_unetI/netI     0.0535
_diffrn_reflns_Laue_measured_fraction_full 1.000
_diffrn_reflns_Laue_measured_fraction_max 1.000
_diffrn_reflns_limit_h_max       14
_diffrn_reflns_limit_h_min       -14
_diffrn_reflns_limit_k_max       6
_diffrn_reflns_limit_k_min       -6
_diffrn_reflns_limit_l_max       21
_diffrn_reflns_limit_l_min       -21
_diffrn_reflns_number            23262
_diffrn_reflns_point_group_measured_fraction_full 1.000
_diffrn_reflns_point_group_measured_fraction_max 0.998
_diffrn_reflns_theta_full        67.679
_diffrn_reflns_theta_max         74.515
_diffrn_reflns_theta_min         2.550
_exptl_absorpt_coefficient_mu    1.874
_exptl_absorpt_correction_T_max  0.982
_exptl_absorpt_correction_T_min  0.838
_exptl_absorpt_correction_type   multi-scan
_exptl_absorpt_process_details
;
SADABS-2014/4 (Bruker,2014/4) was used for absorption correction.
wR2(int) was 0.1455 before and 0.0831 after correction.
The Ratio of minimum to maximum transmission is 0.8538.
The \l/2 correction factor is 0.00150.
;
_exptl_crystal_colour            Colorless
_exptl_crystal_density_diffrn    1.647
_exptl_crystal_description       Needle
_exptl_crystal_F_000             548
_exptl_crystal_size_max          0.04
_exptl_crystal_size_mid          0.01
_exptl_crystal_size_min          0.01
_refine_diff_density_max         0.366
_refine_diff_density_min         -0.241
_refine_diff_density_rms         0.063
_refine_ls_abs_structure_details
;
 Flack x determined using 1530 quotients [(I+)-(I-)]/[(I+)+(I-)]
 (Parsons, Flack and Wagner, Acta Cryst. B69 (2013) 249-259).
;
_refine_ls_abs_structure_Flack   0.13(5)
_refine_ls_extinction_method     none
_refine_ls_goodness_of_fit_ref   1.037
_refine_ls_hydrogen_treatment    constr
_refine_ls_matrix_type           full
_refine_ls_number_parameters     334
_refine_ls_number_reflns         4415
_refine_ls_number_restraints     34
_refine_ls_restrained_S_all      1.033
_refine_ls_R_factor_all          0.0504
_refine_ls_R_factor_gt           0.0415
_refine_ls_shift/su_max          0.000
_refine_ls_shift/su_mean         0.000
_refine_ls_structure_factor_coef Fsqd
_refine_ls_weighting_details
'w=1/[\s^2^(Fo^2^)+(0.0454P)^2^+0.3307P] where P=(Fo^2^+2Fc^2^)/3'
_refine_ls_weighting_scheme      calc
_refine_ls_wR_factor_gt          0.0926
_refine_ls_wR_factor_ref         0.0965
_reflns_Friedel_coverage         0.793
_reflns_Friedel_fraction_full    1.000
_reflns_Friedel_fraction_max     0.996
_reflns_number_gt                3891
_reflns_number_total             4415
_reflns_threshold_expression     'I > 2\s(I)'
_cod_data_source_file            c5cc07578e2.cif
_cod_data_source_block           MOF-705_as
_cod_database_code               7118126
_shelxl_version_number           2014/6
_shelx_space_group_comment
;
The symmetry employed for this shelxl refinement is uniquely defined
by the following loop, which should always be used as a source of
symmetry information in preference to the above space-group names.
They are only intended as comments.
;
_shelx_estimated_absorpt_t_max   0.982
_shelx_estimated_absorpt_t_min   0.929
_olex2_refinement_description
;
1. Fixed Uiso
 At 1.2 times of:
  All C(H) groups, All C(H,H) groups, All N(H) groups, All O(H) groups, All
  O(H,H) groups
 At 1.5 times of:
  All C(H,H,H) groups
2. Shared sites
{C2A, C2B}
{C5A, C5B}
3. Restrained distances
 C2B-C3B \\sim C3B-C4B \\sim C4B-C5B \\sim C5B-C6B \\sim C6B-C7B \\sim C7B-C2B
 with sigma of 0.01
 C2B-C4B \\sim C4B-C6B \\sim C6B-C2B \\sim C3B-C5B \\sim C5B-C7B \\sim C7B-C3B
 with sigma of 0.02
4. Restrained planarity
 C2B, C3B, C4B, C5B, C6B, C7B
 with sigma of 0.01
5. Uiso/Uaniso restraints and constraints
Uanis(C2A) = Uanis(C2B)
Uanis(C5A) = Uanis(C5B)
6. Others
 Sof(C2B)=Sof(C3B)=Sof(H3B)=Sof(C4B)=Sof(H4B)=Sof(C5B)=Sof(C6B)=Sof(H6B)=
 Sof(C7B)=Sof(H7B)=1-FVAR(1)
 Sof(C2A)=Sof(C3A)=Sof(H3A)=Sof(C4A)=Sof(H4A)=Sof(C5A)=Sof(C6A)=Sof(H6A)=
 Sof(C7A)=Sof(H7A)=FVAR(1)
7.a Riding coordinates:
 O10(H10A,H10B), O5(H5)
7.b Ternary CH refined with riding coordinates:
 C15(H15), C10(H10)
7.c Secondary CH2 refined with riding coordinates:
 C14(H14A,H14B), C11(H11A,H11B)
7.d Aromatic/amide H refined with riding coordinates:
 N2(H2), N1(H1), C3A(H3A), C4A(H4A), C6A(H6A), C7A(H7A), C3B(H3B), C4B(H4B),
 C6B(H6B), C7B(H7B)
7.e Idealised Me refined as rotating group:
 C17(H17A,H17B,H17C)
;
_shelx_res_file
;
TITL MOF-705.res in P2(1)
CELL 1.54178 11.8894 5.2299 17.4663 90 97.279 90
ZERR 2 0.0004 0.0002 0.0005 0 0.002 0
LATT -1
SYMM -X,0.5+Y,-Z
SFAC C H N O Na
UNIT 34 36 4 24 8
SADI 0.01 C2B C3B C3B C4B C4B C5B C5B C6B C6B C7B C7B C2B
SADI C2B C4B C4B C6B C6B C2B C3B C5B C5B C7B C7B C3B
FLAT 0.01 C2B > C7B
EADP C2A C2B
EADP C5A C5B
EXYZ C2A C2B
EXYZ C5A C5B

L.S. 20
PLAN  40
SIZE 0.01 0.01 0.04
TEMP -173
BOND $H
LIST 4
WPDB -2
MORE -1
CONF
fmap 2
acta
MERG 2
REM <olex2.extras>
REM <HklSrc "%.\\NaMOF.hkl">
REM </olex2.extras>

WGHT    0.045400    0.330700
FVAR       0.81747   0.89416
NA1   5    0.589909   -0.101194    0.033305    11.00000    0.01479    0.00789 =
         0.01272   -0.00024    0.00446    0.00130
NA2   5    0.321419    0.931984    1.091614    11.00000    0.01828    0.01021 =
         0.01284    0.00119    0.00489    0.00042
NA3   5    0.106917    0.364821    0.958887    11.00000    0.01565    0.01110 =
         0.01878    0.00034    0.00683    0.00090
NA4   5    0.147407    0.972431    0.240336    11.00000    0.01695    0.01581 =
         0.02358    0.00025    0.00621    0.00248
O2    4    0.469230    0.620943    0.096431    11.00000    0.01681    0.01095 =
         0.01445    0.00090    0.00608    0.00017
O11   4    0.251350    0.677502    0.960752    11.00000    0.01688    0.00939 =
         0.01326    0.00278    0.00384    0.00031
O12   4    0.263880    1.099521    0.969160    11.00000    0.01363    0.01076 =
         0.01533   -0.00155    0.00447    0.00058
O4    4    0.207504    0.662587    0.160744    11.00000    0.01648    0.01318 =
         0.01746    0.00169    0.00314    0.00118
O1    4    0.489819    0.200148    0.091048    11.00000    0.01913    0.00920 =
         0.01577   -0.00223    0.00832    0.00310
O6    4    0.330565    0.938367    0.335573    11.00000    0.02975    0.01150 =
         0.01508    0.00054    0.00919    0.00296
O10   4    0.021897    0.500128    1.066897    11.00000    0.01368    0.01697 =
         0.02025    0.00032    0.00366   -0.00107
AFIX   3
H10A  2    0.015417    0.363768    1.092457    11.00000   -1.20000
H10B  2    0.085297    0.545038    1.091207    11.00000   -1.20000
AFIX   0
O3    4    0.251889    0.247289    0.172042    11.00000    0.01927    0.01077 =
         0.01852   -0.00077    0.00629   -0.00027
O9    4    0.033292    0.552124    0.845989    11.00000    0.02194    0.02068 =
         0.01837    0.00396    0.00718   -0.00431
O7    4    0.273078    0.300064    0.701521    11.00000    0.04684    0.01547 =
         0.01723    0.00009    0.01366    0.00063
O8    4    0.011621    0.710730    0.726859    11.00000    0.02441    0.02776 =
         0.02058    0.00591    0.00225   -0.00147
N2    3    0.368853    0.517969    0.318612    11.00000    0.01872    0.01239 =
         0.00869    0.00236    0.00209    0.00115
AFIX  43
H2    2    0.377500    0.365602    0.339922    11.00000   -1.20000
AFIX   0
N1    3    0.240535    0.722100    0.719533    11.00000    0.02159    0.01431 =
         0.01133    0.00134    0.00640   -0.00099
AFIX  43
H1    2    0.245575    0.877640    0.701052    11.00000   -1.20000
AFIX   0
O5    4    0.083054    0.662305    0.323980    11.00000    0.03703    0.02952 =
         0.03220    0.00107    0.01190   -0.00966
AFIX   3
H5    2    0.057664    0.516625    0.308660    11.00000   -1.20000
AFIX   0
C13   1    0.481104    0.403901    0.127389    11.00000    0.00946    0.01193 =
         0.01235    0.00047    0.00422    0.00012
C16   1    0.270792    0.477522    0.185720    11.00000    0.01444    0.01275 =
         0.00923    0.00047    0.00645    0.00029
C12   1    0.248344    0.894578    0.931050    11.00000    0.00818    0.01174 =
         0.01349   -0.00152    0.00450    0.00133
C8    1    0.269062    0.523492    0.677705    11.00000    0.01958    0.01688 =
         0.01466   -0.00224    0.00447   -0.00178
C14   1    0.480175    0.388371    0.215237    11.00000    0.01504    0.01333 =
         0.01271    0.00181    0.00554    0.00225
AFIX  23
H14A  2    0.470974    0.208424    0.230903    11.00000   -1.20000
H14B  2    0.552811    0.453257    0.242233    11.00000   -1.20000
AFIX   0
C1    1    0.343732    0.717799    0.361488    11.00000    0.01748    0.01762 =
         0.01434    0.00256    0.00492    0.00090
C15   1    0.382123    0.549161    0.236958    11.00000    0.01747    0.01121 =
         0.00990    0.00085    0.00498    0.00074
AFIX  13
H15   2    0.399060    0.733041    0.227664    11.00000   -1.20000
AFIX   0
C10   1    0.201219    0.689154    0.795022    11.00000    0.02283    0.01411 =
         0.01239    0.00132    0.00723    0.00125
AFIX  13
H10   2    0.240842    0.539312    0.821871    11.00000   -1.20000
AFIX   0
C11   1    0.228382    0.929256    0.843682    11.00000    0.01508    0.00915 =
         0.01576    0.00132    0.00601    0.00009
AFIX  23
H11A  2    0.296958    1.009112    0.827306    11.00000   -1.20000
H11B  2    0.165076    1.051515    0.831486    11.00000   -1.20000
AFIX   0
PART 1
C2A   1    0.332672    0.665149    0.444826    21.00000    0.01646    0.01414 =
         0.01205   -0.00156    0.00318   -0.00061
C3A   1    0.382555    0.458559    0.486149    21.00000    0.02054    0.01308 =
         0.01559   -0.00423    0.00659    0.00481
AFIX  43
H3A   2    0.429626    0.344013    0.462428    21.00000   -1.20000
AFIX   0
C4A   1    0.363597    0.419556    0.562108    21.00000    0.02132    0.01505 =
         0.01629   -0.00023    0.00419    0.00512
AFIX  43
H4A   2    0.398237    0.278212    0.589996    21.00000   -1.20000
AFIX   0
C5A   1    0.295004    0.583386    0.597871    21.00000    0.02299    0.01759 =
         0.01138   -0.00231    0.00793   -0.00176
C6A   1    0.247827    0.797441    0.557462    21.00000    0.02357    0.01695 =
         0.01791   -0.00246    0.00907    0.00519
AFIX  43
H6A   2    0.202832    0.914673    0.581920    21.00000   -1.20000
AFIX   0
C7A   1    0.267054    0.837790    0.481462    21.00000    0.02761    0.01097 =
         0.01497    0.00191    0.00648    0.00593
AFIX  43
H7A   2    0.235441    0.983477    0.454246    21.00000   -1.20000
AFIX   0
PART 0
PART 2
C2B   1    0.332672    0.665149    0.444826   -21.00000    0.01646    0.01414 =
         0.01205   -0.00156    0.00318   -0.00061
C3B   1    0.269451    0.452978    0.463544   -21.00000    0.02711
AFIX  43
H3B   2    0.239390    0.336983    0.424345   -21.00000   -1.20000
AFIX   0
C4B   1    0.250761    0.412538    0.539998   -21.00000    0.03781
AFIX  43
H4B   2    0.207943    0.268823    0.552759   -21.00000   -1.20000
AFIX   0
C5B   1    0.295004    0.583386    0.597871   -21.00000    0.02299    0.01759 =
         0.01138   -0.00231    0.00793   -0.00176
C6B   1    0.357811    0.794259    0.579301   -21.00000    0.04750
AFIX  43
H6B   2    0.387787    0.910446    0.618469   -21.00000   -1.20000
AFIX   0
C7B   1    0.376543    0.834209    0.502848   -21.00000    0.04586
AFIX  43
H7B   2    0.419550    0.977816    0.490247   -21.00000   -1.20000
AFIX   0
PART 0
C9    1    0.071902    0.645119    0.787193    11.00000    0.02159    0.01598 =
         0.01651   -0.00248    0.00425   -0.00114
C17   1    0.013512    0.723227    0.383539    11.00000    0.03539    0.04956 =
         0.04362    0.00118    0.01106   -0.00300
AFIX 137
H17A  2    0.033507    0.893601    0.404325    11.00000   -1.50000
H17B  2    0.026405    0.596439    0.425037    11.00000   -1.50000
H17C  2   -0.066571    0.720987    0.361674    11.00000   -1.50000
AFIX   0
HKLF 4

REM  MOF-705.res in P2(1)
REM R1 =  0.0415 for    3891 Fo > 4sig(Fo)  and  0.0504 for all    4415 data
REM    334 parameters refined using     34 restraints

END

WGHT      0.0454      0.3277

REM Highest difference peak  0.366,  deepest hole -0.241,  1-sigma level  0.063
Q1    1   0.2396  0.9110  0.8931  11.00000  0.05    0.37
Q2    1   0.1872  0.3116  0.6888  11.00000  0.05    0.31
Q3    1   0.4834  0.3715  0.1706  11.00000  0.05    0.29
Q4    1  -0.0208  0.8546  0.7790  11.00000  0.05    0.29
Q5    1   0.3369  0.3684  0.3335  11.00000  0.05    0.26
Q6    1   0.2433  1.0297  0.9400  11.00000  0.05    0.25
Q7    1   0.4684  0.6387  0.0568  11.00000  0.05    0.24
Q8    1   0.4153  0.9236  0.3520  11.00000  0.05    0.24
Q9    1   0.3371  0.7685  0.4803  11.00000  0.05    0.24
Q10   1   0.4554  0.5222  0.1020  11.00000  0.05    0.24
Q11   1   0.5212  0.0089  0.0623  11.00000  0.05    0.23
Q12   1   0.0169  0.2374  1.1285  11.00000  0.05    0.22
Q13   1   0.4937  0.6263  0.1096  11.00000  0.05    0.22
Q14   1   0.4918  0.2169  0.1269  11.00000  0.05    0.22
Q15   1  -0.0279  0.7947  0.4393  11.00000  0.05    0.22
Q16   1   0.2933  0.3915  0.4691  11.00000  0.05    0.22
Q17   1   0.3604  0.5358  0.5877  11.00000  0.05    0.22
Q18   1   0.1965  0.2522  0.1179  11.00000  0.05    0.22
Q19   1   0.2165  0.8187  0.8213  11.00000  0.05    0.22
Q20   1   0.5990 -0.1077  0.0735  11.00000  0.05    0.21
Q21   1   0.2205  1.2062  0.9665  11.00000  0.05    0.21
Q22   1  -0.0075  0.5372  0.7921  11.00000  0.05    0.21
Q23   1   0.0453  0.4074  0.8935  11.00000  0.05    0.21
Q24   1   0.3451  0.6776  0.4031  11.00000  0.05    0.21
Q25   1   0.2839  0.8139  0.9409  11.00000  0.05    0.21
Q26   1   0.0471  0.2652  0.4558  11.00000  0.05    0.20
Q27   1   0.2185  0.8071  0.9468  11.00000  0.05    0.20
Q28   1   0.3403  0.3630  0.2193  11.00000  0.05    0.20
Q29   1   0.2847  0.2207  0.4195  11.00000  0.05    0.20
Q30   1   0.3604  0.5424  0.4579  11.00000  0.05    0.19
Q31   1   0.1635  0.8151  0.5615  11.00000  0.05    0.19
Q32   1   0.4491  0.6749  0.1024  11.00000  0.05    0.19
Q33   1   0.1992  0.6298  0.6933  11.00000  0.05    0.19
Q34   1   0.0188  0.5442  1.0172  11.00000  0.05    0.19
Q35   1   0.4607  0.1737  0.1077  11.00000  0.05    0.19
Q36   1   0.1519  0.9446  0.2999  11.00000  0.05    0.19
Q37   1   0.4262  0.7240  0.2483  11.00000  0.05    0.19
Q38   1   0.4697  0.3006  0.0761  11.00000  0.05    0.18
Q39   1   0.1981  0.3441  0.1562  11.00000  0.05    0.18
Q40   1   0.4431  0.8657  0.2098  11.00000  0.05    0.18
;
_shelx_res_checksum              2951
_shelx_hkl_file
;
   1   0   0  304.97   14.80
   1   0   0  350.46   13.20
  -1   0   0  349.57   13.10
  -1   0   0  309.67   14.70
   2   0   0 2997.70  120.39
  -2   0   0 3089.39  117.39
   2   0   0 3242.88  117.19
  -2   0   0 2999.50  120.19
   3   0   0 3157.68  109.99
   3   0   0 2668.83  115.19
   3   0   0 2786.92  115.69
   3   0   0 2989.40  109.89
  -3   0   0 2967.20  110.99
  -3   0   0 2818.02  115.09
  -4   0   0 5404.76  197.88
   4   0   0 5178.78  203.68
   4   0   0 4959.70  204.28
  -5   0   0  181.08   14.40
   5   0   0  186.48   28.10
  -6   0   0  126.69   17.40
  -6   0   0  124.39   24.00
  -7   0   0   25.30   15.80
  -7   0   0   23.10   14.70
  -8   0   0 1846.72   85.49
   8   0   0 1742.83   93.09
  -8   0   0 1733.13   81.59
   8   0   0 1860.41   89.89
   8   0   0 1997.60   86.39
   8   0   0 1837.12   85.99
   9   0   0   10.40   28.60
  -9   0   0   16.90   33.20
   9   0   0   60.59   26.10
   9   0   0   10.80   20.60
  -9   0   0   -1.80   13.00
   9   0   0   20.70   36.50
   9   0   0   14.30   20.20
  10   0   0   87.49   38.80
  10   0   0   21.60   20.10
  10   0   0   17.40   25.90
 -10   0   0    7.90   26.80
  10   0   0   15.70   25.10
 -10   0   0   33.30   14.80
  10   0   0   -3.90   21.30
 -11   0   0    2.10   23.40
  11   0   0   25.00   20.90
  11   0   0   23.20   21.80
  11   0   0   56.79   39.20
 -11   0   0   10.30   15.20
  11   0   0   25.70   24.50
  11   0   0   35.80   22.40
  12   0   0  243.88   35.30
  12   0   0  267.57   33.00
  12   0   0  232.78   38.00
 -12   0   0  279.07   28.50
  12   0   0  212.28   27.20
  13   0   0   35.20   17.40
 -13   0   0    1.00   15.90
  13   0   0    4.40   16.90
 -13   0   0    5.60   14.30
  13   0   0    1.60   18.30
 -14   0   0   94.99   15.20
  14   0   0   89.79   17.20
 -14   0   0  102.99   24.30
 -14   0   0   97.39   14.50
  14   0   0  105.69   17.20
   0  -1   0    2.80    4.20
   0  -1   0   -0.40    5.80
   0  -1   0   -2.60    5.00
   0  -1   0   -1.50    5.10
   0   1   0    1.90    4.00
  -1  -1   0 3801.32  142.69
  -1  -1   0 3704.23  139.89
   1  -1   0 3732.93  141.89
   1  -1   0 3691.73  140.59
   1  -1   0 3249.48  150.58
  -1  -1   0 3764.72  139.49
   1  -1   0 3646.44  143.79
  -1   1   0 3350.46  141.89
  -1   1   0 3906.61  139.59
   1   1   0 3732.53  142.29
  -2  -1   0  520.75   25.40
   2  -1   0  516.85   29.70
   2  -1   0  512.95   31.00
  -2   1   0  515.05   24.50
  -2   1   0  528.75   22.50
   3  -1   0 4789.12  168.08
   3  -1   0 4209.98  174.58
  -3  -1   0 4148.38  170.38
   3  -1   0 4153.58  175.78
  -3   1   0 4349.36  168.68
  -3   1   0 4488.05  167.08
  -4  -1   0  365.76   23.90
   4  -1   0  289.87   16.90
   4  -1   0  284.87   29.50
  -4   1   0  275.07   16.30
  -4   1   0  343.67   18.60
   5  -1   0 1170.78   49.99
  -5  -1   0 1226.28   59.69
   5  -1   0 1248.08   66.99
   5   1   0 1274.07   51.89
  -5   1   0 1249.18   52.99
  -5   1   0 1195.18   51.09
  -6  -1   0 1374.16   74.99
   6  -1   0 1440.66   79.29
   6  -1   0 1356.76   55.39
  -6   1   0 1437.56   60.59
  -6   1   0 1351.86   58.19
  -6   1   0 1275.27   59.49
   7  -1   0  521.35   73.09
   7  -1   0  600.14   26.30
  -7   1   0  563.54   33.10
  -7   1   0  625.94   33.10
   8  -1   0  220.98   32.40
   8  -1   0  194.88   31.10
   8  -1   0  198.58   34.40
   8  -1   0  199.88   29.80
   8  -1   0  189.98   32.10
  -8   1   0  194.78   25.70
  -8   1   0  208.18   22.30
  -8   1   0  184.38   34.40
  -8   1   0  241.88   39.60
   8   1   0  174.48   32.80
   8   1   0  234.78   34.60
   8   1   0  342.97   48.70
   9  -1   0   20.50   26.80
   9  -1   0   14.00   24.10
   9  -1   0   29.00   27.30
   9  -1   0   31.30   27.30
   9  -1   0    7.40   35.90
  -9   1   0   18.40   14.20
  -9   1   0    7.00   20.50
   9   1   0   15.40   29.10
   9   1   0    9.90   28.50
  -9   1   0   34.00   26.50
  -9   1   0   60.59   19.70
   9   1   0   14.10   26.50
   9   1   0   44.20   24.70
 -10  -1   0  364.76   34.90
  10  -1   0  304.87   47.80
  10  -1   0  490.85   51.29
  10  -1   0  450.35   37.00
  10  -1   0  355.26   48.20
  10  -1   0  504.95   44.00
  10   1   0  496.45   49.40
  10   1   0  388.06   48.90
 -10   1   0  414.26   32.50
  10   1   0  367.56   38.60
 -10   1   0  390.06   54.99
 -10   1   0  373.46   39.00
 -10   1   0  344.87   50.89
 -11  -1   0  820.62   49.40
  11  -1   0  802.92   52.09
  11  -1   0  902.41   51.49
  11  -1   0  913.71   61.39
  11  -1   0  883.11   56.49
 -11   1   0  818.12   62.99
  11   1   0  913.61   51.29
 -11   1   0  896.71   53.19
  11   1   0  828.72   58.59
 -11   1   0  883.51   48.60
  11   1   0  901.51   58.39
 -11   1   0  652.53   84.09
  12  -1   0  165.08   25.20
 -12  -1   0  178.48   28.70
  12  -1   0  274.87   35.80
 -12  -1   0  224.38   34.20
  12  -1   0  183.78   33.60
  12   1   0  253.77   40.90
  12   1   0  232.38   36.90
  12   1   0  207.48   28.70
 -12   1   0  198.18   37.40
 -12   1   0  198.88   28.10
  13  -1   0    9.50   17.80
  13  -1   0   34.80   21.00
 -13  -1   0   15.10   19.90
 -13  -1   0   34.40   19.80
  13  -1   0   11.20   14.70
  13  -1   0   15.50   15.50
  13   1   0   -6.30   17.90
 -13   1   0   39.00   15.80
 -13   1   0   14.60   13.90
  13   1   0   15.90   13.70
 -13   1   0   21.50   14.00
  14  -1   0   40.40   15.50
 -14  -1   0   60.99   15.60
 -14  -1   0   48.90   15.80
  14  -1   0   47.50   13.80
 -14   1   0   64.39   14.20
  14   1   0   50.59   17.60
 -14   1   0   75.29   17.50
 -14   1   0   44.00   11.70
  14   1   0   79.69   14.70
   0  -2   0  350.26   22.80
   0  -2   0  296.47   23.90
   0  -2   0  346.27   24.60
   0  -2   0  340.47   32.00
   0   2   0  319.97   22.70
  -1  -2   0  691.83   36.60
  -1  -2   0  657.43   31.30
  -1  -2   0  706.33   38.90
   1  -2   0  700.43   37.70
   1  -2   0  664.83   36.20
   1  -2   0  669.03   33.90
   1  -2   0  664.23   48.10
  -1   2   0  682.33   28.20
  -1   2   0  694.33   27.20
  -1   2   0  688.13   35.30
   1   2   0  694.73   35.40
  -2  -2   0  104.39   15.80
  -2  -2   0  137.49   10.50
   2  -2   0  141.29   15.50
   2  -2   0  117.19   18.10
   2  -2   0   96.19   29.20
  -2  -2   0  135.69   13.60
   2  -2   0  152.18   21.80
   2   2   0  134.89   17.00
  -2   2   0  160.88   10.50
  -2   2   0  128.59   17.30
   3  -2   0  516.45   26.90
   3  -2   0  441.26   35.70
  -3   2   0  532.25   23.80
  -3   2   0  469.05   30.50
   4  -2   0 2621.04  119.29
   4  -2   0 2690.63  105.89
  -4   2   0 2531.65  110.09
  -4   2   0 2703.23  104.49
   5  -2   0   68.39   11.10
   5  -2   0   70.99   11.80
  -5   2   0   65.19   17.50
  -5   2   0   53.79    8.60
  -5   2   0   87.79   15.90
   6  -2   0  369.86   47.40
   6  -2   0  291.47   43.80
   6  -2   0  329.47   21.70
   6  -2   0  425.86   62.99
   6  -2   0  293.57   23.10
  -6   2   0  330.67   26.50
  -6   2   0  285.87   42.30
  -6   2   0  281.57   39.20
  -6   2   0  353.26   22.80
   7  -2   0  457.55   40.00
   7  -2   0  372.46   24.40
   7  -2   0  405.56   31.60
   7  -2   0  550.64   78.69
   7  -2   0  363.26   61.49
   7  -2   0  380.06   39.50
   7  -2   0  412.16   57.99
  -7   2   0  357.66   41.00
  -7   2   0  401.96   38.70
  -7   2   0  375.66   27.20
  -7   2   0  476.55   77.99
   7   2   0  346.17   41.20
   7   2   0  365.66   53.39
   7   2   0  298.87   54.79
  -7   2   0  428.76   29.80
   8  -2   0   51.09   35.10
   8  -2   0   89.89   39.80
   8  -2   0   42.90   31.00
   8  -2   0  104.89   22.40
   8  -2   0   66.09   12.30
   8  -2   0   88.89   22.10
  -8   2   0   77.79   16.80
  -8   2   0   69.79   17.00
  -8   2   0   46.70   20.00
   8   2   0  105.99   42.30
  -8   2   0   70.39   24.90
  -8   2   0  109.89   56.29
   8   2   0   31.10   25.90
   8   2   0   79.49   22.80
   9  -2   0  185.38   25.20
   9  -2   0  208.58   36.40
   9  -2   0  188.48   32.60
   9  -2   0  135.29   36.50
   9  -2   0  197.38   36.50
   9   2   0  170.58   30.40
  -9   2   0  186.08   26.70
   9   2   0  246.68   41.50
  -9   2   0  137.69   25.90
  -9   2   0  139.39   24.40
  -9   2   0  147.99   23.50
   9   2   0  175.98   27.10
  10  -2   0   23.30   21.40
  10  -2   0  -12.40   24.90
  10  -2   0   45.60   19.10
 -10   2   0   43.70   21.80
  10   2   0   32.20   22.10
 -10   2   0   19.00   26.90
 -10   2   0   37.90   20.20
 -10   2   0   32.60   19.50
  10   2   0   19.50   20.30
  11  -2   0  195.88   38.10
  11  -2   0  203.28   29.10
  11  -2   0  180.78   28.60
  11   2   0  199.68   30.80
 -11   2   0  191.68   36.60
 -11   2   0  139.79   22.60
  11   2   0  175.78   23.40
 -11   2   0  189.58   24.50
 -12  -2   0  176.18   28.00
  12  -2   0  127.19   20.00
  12  -2   0  183.58   26.70
  12  -2   0  159.58   23.50
 -12   2   0  185.68   29.00
  12   2   0  142.39   20.70
  12   2   0  148.69   23.70
 -12   2   0  172.78   21.40
 -12   2   0  185.18   26.40
 -12   2   0  207.98   24.00
  13  -2   0    5.90   14.20
  13  -2   0   -3.40   25.50
 -13  -2   0   38.40   22.70
  13  -2   0   33.50   16.00
  13  -2   0   61.09   14.40
  13   2   0   50.39   14.10
  13   2   0   37.70   18.40
 -13   2   0   35.00   13.20
 -13   2   0   53.19   12.70
  14  -2   0    9.30   13.40
  14  -2   0   38.80   11.60
  14   2   0   16.40    9.80
 -14   2   0   41.50   11.40
   0  -3   0   -8.90   16.30
   0   3   0    6.80   16.40
   1  -3   0 1146.29   57.79
   1  -3   0 1162.58   61.99
  -1  -3   0 1147.09   54.79
   1  -3   0 1086.49   50.09
  -1   3   0 1165.58   63.49
   1   3   0 1112.79   62.19
   2  -3   0  507.85   27.80
   2  -3   0  504.75   34.90
   2  -3   0  550.94   48.20
  -2   3   0  546.45   46.10
   3  -3   0  422.46   51.39
   3  -3   0  373.16   30.40
   3  -3   0  342.37   22.60
  -3   3   0  449.16   75.09
  -3   3   0  416.46   21.60
  -3   3   0  446.56   47.20
   4  -3   0  368.46   50.29
   4  -3   0  353.86   29.30
   4  -3   0  349.37   27.50
   4  -3   0  320.47   21.30
   4  -3   0  311.57   52.89
  -4   3   0  334.87   37.90
  -4   3   0  247.38   41.20
   4   3   0  377.56   46.10
  -4   3   0  348.27   56.39
  -4   3   0  371.46   22.90
  -4   3   0  332.67   40.80
   5  -3   0   79.89   11.30
   5  -3   0   99.99   30.00
   5  -3   0  101.49   29.90
   5  -3   0   98.49   58.29
   5  -3   0   62.79   68.59
   5  -3   0   83.79   15.60
   5  -3   0  131.49   20.60
   5   3   0  105.79   22.30
   5   3   0   85.99   31.80
  -5   3   0  104.49   32.90
  -5   3   0   74.59   13.50
  -5   3   0   69.79   24.70
   5   3   0   67.69   33.10
  -5   3   0  131.89   40.50
   6  -3   0  197.88   18.20
   6  -3   0  174.58   24.20
   6  -3   0  241.78   32.90
   6  -3   0  145.89   26.50
   6  -3   0  194.98   22.00
   6  -3   0  229.38   52.79
   6  -3   0  211.08   32.10
  -6   3   0  176.28   24.40
  -6   3   0  173.08   26.00
   6   3   0  131.29   34.40
  -6   3   0  229.78   32.80
  -6   3   0  189.68   35.40
   6   3   0  198.78   28.60
   7  -3   0  390.36   41.80
   7  -3   0  373.86   26.90
   7  -3   0  409.36   26.10
   7  -3   0  387.16   49.60
   7  -3   0  397.56   39.00
   7  -3   0  428.86   33.00
   7  -3   0  430.46   68.09
  -7   3   0  430.76   55.59
  -7   3   0  457.95   46.80
  -7   3   0  484.55   58.19
   7   3   0  381.06   55.19
  -7   3   0  426.86   35.00
  -7   3   0  359.66   39.30
   7   3   0  479.65   43.90
   8  -3   0  414.76   60.39
   8  -3   0  366.36   49.00
   8  -3   0  333.97   29.90
   8  -3   0  328.77   33.80
   8  -3   0  400.66   39.70
   8  -3   0  426.16   37.90
  -8   3   0  363.36   39.80
   8   3   0  389.56   40.50
  -8   3   0  361.36   40.30
  -8   3   0  430.96   42.70
  -8   3   0  416.76   47.90
   8   3   0  401.06   51.69
  -8   3   0  435.56   44.10
   9  -3   0  177.28   43.00
   9  -3   0  161.48   30.90
   9  -3   0  140.59   34.90
   9  -3   0  154.58   26.30
   9  -3   0  131.99   22.10
   9   3   0  186.58   25.40
  -9   3   0  126.19   24.80
  -9   3   0  175.48   38.30
   9   3   0   75.69   27.40
  -9   3   0  164.08   31.10
  -9   3   0  113.79   22.90
  -9   3   0  135.29   23.00
  10  -3   0  129.49   29.40
  10  -3   0  105.29   30.70
 -10   3   0  134.69   22.80
  10   3   0  158.88   32.90
 -10   3   0  101.59   30.10
  10   3   0  188.68   42.00
  11  -3   0   41.60   21.30
  11  -3   0   13.90   16.30
  11  -3   0   35.60   18.10
  11   3   0   72.49   23.00
  11   3   0   11.60   16.40
 -11   3   0   16.20   17.40
 -11   3   0   38.40   17.20
  12  -3   0  140.29   20.60
  12  -3   0  125.49   20.60
  12  -3   0   94.09   17.40
 -12   3   0  179.78   25.00
  12   3   0  141.19   17.30
  12   3   0  149.49   28.80
 -12   3   0  122.69   23.90
  13  -3   0   39.00   14.20
  13  -3   0   11.20   14.10
  13  -3   0   15.10   15.90
  13   3   0   42.50   13.00
 -13   3   0   29.30   11.20
   0  -4   0 1653.23   71.49
   0   4   0 1596.34   76.89
   0   4   0 1680.03   82.39
   0   4   0 1736.33   83.69
   0   4   0 1652.83   87.69
   0   4   0 1756.42   89.79
   1  -4   0  261.67   48.50
   1  -4   0  270.77   46.30
   1  -4   0  229.88   21.30
  -1  -4   0  308.67   28.00
  -1   4   0  194.28   28.60
  -1   4   0  223.88   40.60
  -1   4   0  286.87   44.10
   1   4   0  196.78   31.60
   2  -4   0   64.19   12.40
   2  -4   0  109.89   27.70
   2  -4   0  101.29   22.40
   2  -4   0  101.19   35.80
   2   4   0   80.29   25.20
  -2   4   0   68.59   21.50
  -2   4   0   77.59   23.50
   2   4   0   90.79   20.10
  -2   4   0  114.69   29.10
   3  -4   0  224.38   57.89
   3  -4   0  159.98   26.60
   3  -4   0  227.18   29.10
   3  -4   0  205.68   19.30
  -3   4   0  148.99   26.50
   3   4   0  172.88   32.30
  -3   4   0  233.38   37.80
   4  -4   0   43.80   23.50
   4  -4   0   58.49   14.60
   4  -4   0   46.80   27.40
   4  -4   0   51.29   11.10
   4   4   0   31.40   17.50
   4   4   0   29.90   27.10
  -4   4   0   22.30   22.30
  -4   4   0   12.00   21.50
   5  -4   0  278.57   42.00
   5  -4   0  254.57   23.30
   5  -4   0  297.17   33.80
   5  -4   0  226.98   20.40
   5  -4   0  309.07   47.40
  -5   4   0  282.87   40.90
  -5   4   0  271.47   32.00
   5   4   0  261.47   45.80
   5   4   0  258.57   29.80
   6  -4   0  436.76   46.40
   6  -4   0  452.55   27.50
   6  -4   0  456.15   46.40
   6  -4   0  426.26   38.10
   6  -4   0  401.96   44.30
   6   4   0  427.36   49.70
   6   4   0  347.57   34.40
  -6   4   0  465.45   46.60
  -6   4   0  440.26   40.00
   6   4   0  378.06   55.79
   7  -4   0  274.67   31.60
   7  -4   0  269.37   29.10
   7  -4   0  276.97   32.30
   7  -4   0  285.97   52.49
   7  -4   0  285.67   42.70
   7  -4   0  277.17   26.00
   7  -4   0  285.37   21.00
   7   4   0  240.78   32.90
  -7   4   0  286.87   36.20
   7   4   0  225.28   33.30
  -7   4   0  252.17   33.10
  -7   4   0  230.98   35.20
   8  -4   0   73.49   38.60
   8  -4   0  124.29   26.60
   8  -4   0  136.29   21.10
   8  -4   0  116.59   23.10
   8  -4   0  109.59   18.70
  -8   4   0  109.69   28.30
  -8   4   0   91.29   20.00
   8   4   0  104.59   26.20
   8   4   0  105.59   26.50
  -8   4   0  136.19   34.60
   9  -4   0  211.68   34.90
   9  -4   0  210.88   34.10
   9  -4   0  210.88   27.30
   9   4   0  222.08   27.30
  -9   4   0  247.08   27.10
   9   4   0  248.58   39.40
  -9   4   0  217.88   30.10
  10  -4   0  158.38   26.80
  10  -4   0  188.28   25.30
  10  -4   0  140.99   21.80
  10  -4   0   96.19   25.30
  10   4   0  134.49   25.30
 -10   4   0  169.38   21.90
  10   4   0  150.38   23.30
 -10   4   0  146.79   19.20
  11  -4   0  154.88   23.10
  11  -4   0  197.58   24.90
 -11   4   0  200.68   32.50
  11   4   0  204.18   30.80
 -11   4   0  205.58   24.80
   0  -5   0  -30.90   19.70
   0  -5   0   25.00   13.30
   0   5   0  -15.40   17.90
   0   5   0  -26.10   25.30
   0   5   0   -6.40   15.20
  -1  -5   0  307.57   27.20
   1  -5   0  284.57   23.70
   1  -5   0  278.47   41.10
   1  -5   0  256.47   31.80
  -1   5   0  185.38   25.60
  -1   5   0  241.58   39.20
   1   5   0  250.37   26.30
  -1   5   0  245.78   28.30
   1   5   0  202.98   27.30
   2  -5   0    2.40   10.90
   2  -5   0   27.50   29.30
   2  -5   0   30.30   13.90
  -2  -5   0   20.70   18.00
  -2   5   0   14.00   15.00
  -2   5   0   -0.30   22.00
   2   5   0   18.50   14.30
  -2   5   0   12.00   16.50
   2   5   0  -21.70   19.00
   3  -5   0  738.93   37.00
   3  -5   0  688.03   34.90
   3  -5   0  582.44   57.39
   3   5   0  662.93   49.90
  -3   5   0  640.44   46.30
   3   5   0  674.13   38.30
  -3   5   0  671.83   41.30
   4  -5   0  334.87   23.90
   4  -5   0  326.67   32.70
   4  -5   0  286.17   45.90
   4  -5   0  310.87   22.20
  -4   5   0  332.87   30.20
   4   5   0  304.57   40.50
   4   5   0  298.87   47.90
  -4   5   0  337.47   34.80
   5  -5   0  241.98   20.70
   5  -5   0  273.17   21.50
   5  -5   0  220.98   28.70
   5  -5   0  283.57   43.00
  -5   5   0  228.18   27.80
  -5   5   0  226.38   32.50
   5   5   0  307.67   26.20
   5   5   0  306.37   41.20
   6  -5   0  168.58   25.30
   6  -5   0  208.58   35.80
   6  -5   0  127.09   15.10
   6  -5   0  167.88   19.80
  -6   5   0  163.08   25.70
   6   5   0  156.38   17.80
  -6   5   0  204.88   28.60
   7  -5   0   42.80    9.20
   7  -5   0   23.50   16.90
   7  -5   0   41.80   13.90
  -7   5   0   18.20   13.40
   7   5   0   75.19   27.60
  -7   5   0   35.10   16.20
   8  -5   0   39.70   28.90
   8  -5   0    9.20   11.60
   8  -5   0   18.40   14.40
  -8   5   0   -6.80   13.30
  -8   5   0   10.60   14.70
   9  -5   0   33.40   13.40
   9  -5   0   26.90   11.70
  -9   5   0   17.50   11.30
   0  -6   0   83.89   11.90
   0  -6   0  122.49   34.40
   0  -6   0   78.09   11.40
   0   6   0   75.19   11.40
   1  -6   0  210.48   18.20
  -1  -6   0  184.18   21.60
  -1  -6   0  194.18   19.30
   1  -6   0  216.38   18.30
   1  -6   0  205.68   34.40
  -1   6   0  219.08   18.80
   1   6   0  192.98   18.00
   2  -6   0  160.98   15.90
   2  -6   0  173.28   32.90
  -2  -6   0  105.69   14.90
   2  -6   0  112.79   14.60
   2  -6   0  124.69   29.10
  -2   6   0  111.39   15.40
   2   6   0  156.68   16.60
   3  -6   0   24.90   27.40
   3  -6   0   58.59    9.30
   3  -6   0   33.50    7.40
  -3   6   0   94.59   21.20
  -3   6   0   35.40    9.40
   3   6   0   48.50   13.60
   4  -6   0    2.80    5.90
   4  -6   0    3.30   12.90
   4  -6   0   18.10   18.40
   4  -6   0   17.70    9.10
  -4   6   0   18.30    8.50
   4   6   0   13.80   11.50
  -4   6   0    5.60   18.20
   5  -6   0   53.49   13.20
   5  -6   0   49.40   15.60
   5  -6   0   37.50    6.90
  -5   6   0   22.30    7.90
  -5   6   0   58.99   16.30
  14   0  -1  345.57   29.70
 -14   0   1  303.67   26.20
  14   0  -1  269.17   31.30
 -14   0   1  286.27   25.80
  14   0  -1  316.97   27.60
 -14   0   1  259.07   25.10
  13   0  -1   -3.10   17.30
 -13   0   1   18.70   14.50
 -13   0   1   -8.40   16.40
  13   0  -1   20.30   16.00
  13   0  -1  -15.50   18.00
  12   0  -1   11.80   25.00
  12   0  -1   -5.90   19.30
  12   0  -1   -0.10   17.40
  12   0  -1   11.30   20.70
 -12   0   1   12.90   33.70
 -12   0   1    9.70   15.50
  11   0  -1  156.38   26.20
  11   0  -1  206.18   28.00
 -11   0   1  178.48   28.30
  11   0  -1  191.98   28.60
  11   0  -1  153.98   31.40
  11   0  -1  166.58   24.40
  10   0  -1   52.79   26.80
  10   0  -1   27.50   19.50
  10   0  -1   52.69   22.10
 -10   0   1   13.80   14.10
  10   0  -1   34.10   25.60
 -10   0   1   54.49   29.00
   9   0  -1  221.88   36.10
   9   0  -1  311.37   36.30
   9   0  -1  254.47   35.10
  -9   0   1  257.17   26.10
   9   0  -1  229.78   31.80
  -8   0   1   67.69   23.10
   8   0  -1   74.29   28.30
   8   0  -1   60.79   32.60
   8   0  -1   49.20   24.10
   8   0  -1   80.39   25.20
  -8   0   1   71.19   16.50
  -7   0   1  983.90   48.70
  -7   0   1  936.91   47.60
  -6   0   1  739.53   38.00
  -6   0   1  861.31   38.00
   6   0  -1  798.62   51.19
  -5   0   1 2881.21  111.59
  -5   0   1 2808.62  111.49
   5   0  -1 2887.41  117.89
   4   0  -1 1466.05   66.89
  -4   0   1 1486.05   59.49
  -4   0   1 1513.05   59.49
   4   0  -1 1551.94   64.79
  -3   0   1   34.30    6.50
   3   0  -1   47.20    3.50
   3   0  -1   52.59    9.10
   3   0  -1   43.10    3.30
   3   0  -1   51.99   10.10
   2   0  -1   49.60    3.60
  -2   0   1   50.09    3.60
   2   0  -1   46.70    6.60
  -2   0   1   45.90    7.50
   2   0  -1   32.50    6.50
  -2   0   1   40.70    4.70
   1   0  -1  236.48   11.00
  -1   0   1  230.38   11.10
   1   0  -1  248.58    9.50
  -1   0   1  223.38    9.70
   0   0   1 4159.48  153.28
   0   0  -1 3890.71  151.98
   1   0   1  163.08   10.80
   1   0   1  161.38    8.00
  -1   0  -1  174.68    7.10
  -1   0  -1  157.48   10.40
   2   0   1 3071.69  121.19
  -2   0  -1 3078.09  117.29
   2   0   1 3069.59  117.39
  -2   0  -1 3120.49  120.99
  -3   0  -1 9986.50  366.86
   3   0   1 9999.00  366.16
  -3   0  -1 9592.24  371.66
   3   0   1 9188.08  371.96
  -4   0  -1 2177.68   94.09
  -4   0  -1 2395.46   87.59
   4   0   1 2170.78   95.89
   5   0   1 1058.89   58.49
  -5   0  -1 1082.99   53.69
  -6   0  -1   46.60   11.00
   6   0   1   35.50   24.60
  -7   0  -1  344.77   27.90
  -7   0  -1  323.57   29.60
   8   0   1  644.14   50.69
   8   0   1  553.84   66.39
  -8   0  -1  611.74   35.50
  -8   0  -1  654.53   49.70
   8   0   1  554.94   46.10
   8   0   1  686.53   46.90
   8   0   1  614.24   58.39
  -9   0  -1   14.60   13.60
   9   0   1   63.59   22.70
   9   0   1   14.50   26.10
  -9   0  -1   33.10   31.10
   9   0   1   19.70   32.90
   9   0   1   54.99   23.60
   9   0   1   46.60   27.60
 -10   0  -1  297.07   28.60
  10   0   1  338.97   59.29
  10   0   1  334.27   43.80
  10   0   1  312.27   38.50
 -10   0  -1  325.27   46.10
  10   0   1  331.47   38.70
  11   0   1  181.58   27.90
  11   0   1  230.18   27.40
  11   0   1  182.18   27.80
  11   0   1  275.17   39.50
 -11   0  -1  216.78   28.70
  11   0   1  235.88   39.40
 -11   0  -1  180.68   28.50
  12   0   1  296.17   54.89
 -12   0  -1  432.36   41.00
  12   0   1  484.75   49.50
  12   0   1  285.07   43.70
  12   0   1  265.87   40.00
  12   0   1  515.95   53.69
 -12   0  -1  417.46   32.80
 -13   0  -1  127.59   17.30
  13   0   1  110.89   20.70
 -13   0  -1  114.69   17.60
 -13   0  -1  145.99   19.80
  13   0   1  100.89   18.90
  13   0   1   73.29   18.20
  14   0   1   52.29   15.50
  14   0   1   70.69   16.00
 -14   0  -1   54.39   14.90
 -14   0  -1   53.29   13.00
 -14   0  -1   81.79   16.00
  14   0   1   84.99   17.10
  14  -1  -1   17.80   13.30
 -14  -1   1   43.70   14.40
  14  -1  -1   16.90   20.90
 -14  -1   1   53.79   16.20
  14  -1  -1   20.50   15.40
 -14   1   1   46.90   13.30
 -14   1   1   36.30   11.60
  14   1  -1   18.10   17.40
  14   1  -1   41.30   12.20
 -14   1   1   57.09   17.70
 -13  -1   1  106.79   18.10
 -13  -1   1  121.99   23.40
  13  -1  -1   49.70   17.30
  13  -1  -1   73.29   16.40
  13  -1  -1  102.59   19.90
  13  -1  -1   87.49   19.70
 -13   1   1   89.49   16.60
  13   1  -1   67.39   23.40
 -13   1   1   80.29   16.50
  13   1  -1   95.19   16.80
  13   1  -1   76.79   20.90
 -12  -1   1  107.49   19.10
  12  -1  -1  102.39   22.70
 -12  -1   1  149.39   33.30
  12  -1  -1   69.09   35.00
  12  -1  -1   77.09   29.20
 -12   1   1   68.19   30.60
 -12   1   1  106.59   18.10
  12   1  -1  134.69   29.10
  12   1  -1   83.09   24.90
  12   1  -1  131.39   34.90
 -11  -1   1   22.10   17.90
  11  -1  -1   21.40   17.80
  11  -1  -1   32.80   30.70
  11  -1  -1   54.89   24.50
  11  -1  -1   16.20   21.90
  11  -1  -1  -16.70   24.70
 -11   1   1   10.50   17.90
  11   1  -1   65.89   23.50
  11   1  -1   61.99   27.80
  11   1  -1   30.60   17.80
 -11   1   1    4.80   16.40
 -11   1   1  -44.20   40.30
 -11   1   1   32.50   26.80
 -10  -1   1   47.50   18.40
  10  -1  -1   43.90   23.90
  10  -1  -1   58.69   26.20
  10  -1  -1   13.50   19.00
  10  -1  -1   53.79   29.10
  10  -1  -1   40.40   25.40
  10   1  -1    4.50   28.90
  10   1  -1   59.49   21.00
 -10   1   1   49.10   25.10
 -10   1   1   26.00   27.70
 -10   1   1   38.00   16.80
  10   1  -1   28.00   24.60
 -10   1   1   57.19   19.90
   9  -1  -1  -16.00   26.80
   9  -1  -1   -9.40   26.50
   9  -1  -1   13.50   26.40
  -9  -1   1   -4.90   19.80
   9  -1  -1    2.80   23.60
   9  -1  -1  -12.80   17.70
   9   1  -1   32.80   20.40
  -9   1   1   20.00   20.90
   9   1  -1   20.40   26.60
  -9   1   1    0.90   13.50
  -9   1   1   40.50   25.30
   9   1  -1  -23.20   28.20
   9   1  -1   80.09   29.60
  -9   1   1   -3.40   18.10
   8  -1  -1  197.18   33.10
   8  -1  -1  203.28   32.80
   8  -1  -1  226.38   31.00
   8  -1  -1  245.88   36.20
  -8   1   1  251.07   25.50
  -8   1   1  310.17   44.00
   8   1  -1  323.17   51.89
  -8   1   1  215.68   23.30
   8   1  -1  284.77   36.50
   8   1  -1  240.68   38.00
  -8   1   1  195.68   27.70
   8   1  -1  307.67   35.40
   7  -1  -1  615.64   71.89
   7  -1  -1  560.64   25.30
  -7   1   1  572.64   33.40
  -7   1   1  585.04   32.80
   6  -1  -1  277.97   44.80
   6  -1  -1  262.57   15.00
  -6  -1   1  279.97   40.60
  -6   1   1  267.97   23.30
  -6   1   1  277.37   19.10
  -6   1   1  237.48   19.30
   5  -1  -1  139.49   10.90
  -5  -1   1  178.08   24.80
   5  -1  -1  186.08   28.50
  -5   1   1  133.49   13.30
   4  -1  -1 2066.69   92.49
  -4  -1   1 2143.49   87.19
   4  -1  -1 2279.67   83.19
  -4   1   1 1859.51   86.09
  -4   1   1 2180.38   83.29
  -3  -1   1 3060.79  119.69
   3  -1  -1 3160.98  116.99
   3  -1  -1 2947.71  122.99
   3  -1  -1 2877.91  124.59
  -3   1   1 3102.29  117.49
  -3   1   1 2921.11  116.49
   2  -1  -1  237.18   19.30
   2  -1  -1  234.98   13.60
   2  -1  -1  225.58   20.40
   2  -1  -1  261.17   19.80
  -2  -1   1  233.98   14.90
  -2   1   1  239.38   12.60
  -2   1   1  231.88   13.30
   2   1  -1  219.08   14.70
  -1  -1   1  341.87   16.40
   1  -1  -1  316.57   19.50
  -1  -1   1  352.96   18.00
   1  -1  -1  325.07   16.60
   1  -1  -1  344.77   17.30
   1   1  -1  341.47   18.20
  -1   1   1  324.47   15.20
   0  -1  -1   92.39    8.90
   0  -1  -1  109.09    9.20
   0  -1  -1   91.49   10.80
   0  -1   1   95.09    9.50
   0  -1   1  101.09   10.10
   0  -1   1   99.49   12.50
   0   1  -1  101.59   11.70
   0   1   1  117.99   11.60
   0   1   1  119.79    9.70
   0   1  -1  116.19   10.70
   1  -1   1 2934.51  110.49
  -1  -1  -1 2895.31  109.79
  -1  -1  -1 2760.22  112.19
   1  -1   1 2847.81  114.39
  -1   1  -1 2860.71  108.89
  -1   1  -1 2856.51  113.69
  -1   1  -1 2790.92  111.59
   1   1   1 2842.32  109.89
   2  -1   1 1757.82   80.49
  -2  -1  -1 1818.82   77.09
   2  -1   1 2005.40   75.39
  -2  -1  -1 1875.61   74.09
  -2   1  -1 2029.90   76.49
   2   1   1 1935.51   72.99
  -2   1  -1 1780.52   79.79
  -2   1  -1 1900.51   73.69
   3  -1   1  413.36   22.30
  -3  -1  -1  442.86   24.90
   3  -1   1  470.25   33.20
  -3   1  -1  459.25   21.10
  -3   1  -1  501.75   32.60
  -3   1  -1  476.95   24.20
   3   1   1  507.05   20.80
  -4  -1  -1 3735.73  148.49
  -4  -1  -1 3617.74  143.89
   4  -1   1 3712.53  143.29
   4   1   1 3638.64  142.69
  -4   1  -1 3859.81  153.48
   4   1   1 3796.52  143.29
  -4   1  -1 3469.35  142.69
  -4   1  -1 3737.53  145.69
  -5  -1  -1 1300.07   64.69
   5  -1   1 1323.87   53.29
   5  -1   1 1242.98   69.19
  -5   1  -1 1322.77   54.19
  -5   1  -1 1311.47   57.69
   5   1   1 1327.47   60.29
   5   1   1 1250.17   55.79
   6  -1   1  490.85   22.70
   6  -1   1  424.16   57.09
  -6   1  -1  430.36   28.10
  -6   1  -1  499.05   26.50
  -6   1  -1  439.66   31.60
   7  -1   1  518.35   45.20
   7  -1   1  680.53   78.69
   7  -1   1  488.85   57.89
   7  -1   1  603.34   26.40
   7   1   1  595.04   41.70
  -7   1  -1  639.74   39.60
  -7   1  -1  573.34   32.50
   7   1   1  521.25   89.79
   8  -1   1  450.65   47.30
   8  -1   1  561.64   56.09
   8  -1   1  422.36   55.99
   8  -1   1  507.45   52.69
   8  -1   1  497.55   38.60
   8   1   1  457.05   80.59
   8   1   1  543.85   53.39
   8   1   1  513.35   54.99
   8   1   1  507.95   43.10
  -8   1  -1  535.55   34.00
  -8   1  -1  523.95   43.60
  -8   1  -1  588.24   54.89
  -8   1  -1  471.55   32.00
   9  -1   1   11.20   30.40
   9  -1   1   35.10   32.60
   9  -1   1   18.50   23.00
   9  -1   1   67.09   26.70
  -9  -1  -1   11.00   17.90
   9   1   1   50.29   44.10
  -9   1  -1   19.40   19.70
  -9   1  -1    1.30   13.40
  -9   1  -1  -15.10   29.40
   9   1   1    7.10   26.00
  10  -1   1  124.09   26.20
 -10  -1  -1  161.18   21.70
  10  -1   1  186.48   29.30
  10  -1   1  158.38   24.90
  10  -1   1  143.99   30.30
 -10   1  -1  169.48   48.10
  10   1   1  134.89   26.90
  10   1   1  155.48   28.70
 -10   1  -1  117.89   23.80
 -10   1  -1  137.39   19.50
  10   1   1  187.78   26.60
 -10   1  -1   77.89   34.50
  10   1   1  127.59   47.10
  11  -1   1  381.86   49.70
  11  -1   1  417.36   44.10
  11  -1   1  437.96   40.40
 -11  -1  -1  393.86   35.30
  11  -1   1  374.66   41.50
  11   1   1  426.16   37.50
 -11   1  -1  484.25   40.30
 -11   1  -1  466.15   36.00
 -11   1  -1  334.57   51.29
  11   1   1  533.85   47.30
  11   1   1  443.46   46.90
  12  -1   1   95.99   21.70
 -12  -1  -1  103.69   27.90
  12  -1   1  104.69   23.00
 -12  -1  -1  111.39   18.80
  12  -1   1   74.29   20.50
  12  -1   1   96.99   21.60
  12  -1   1   60.49   28.40
  12   1   1   99.09   20.70
 -12   1  -1  105.99   17.70
  12   1   1   97.79   24.90
  12   1   1   82.29   18.70
 -12   1  -1  145.99   21.50
  13  -1   1  188.38   28.40
  13  -1   1  139.59   31.00
  13  -1   1  162.18   22.10
 -13  -1  -1  235.18   25.90
  13  -1   1  242.88   28.90
 -13  -1  -1  181.88   23.20
  13  -1   1  248.98   38.80
 -13   1  -1  230.28   26.30
  13   1   1  181.78   25.40
  13   1   1  199.88   31.60
 -13   1  -1  153.78   25.20
 -13   1  -1  192.18   27.30
  14  -1   1   80.29   20.70
  14  -1   1  107.19   18.10
 -14  -1  -1   90.99   16.00
 -14  -1  -1   96.69   16.20
  14   1   1   92.09   14.80
 -14   1  -1  101.59   15.80
 -14   1  -1  100.79   14.40
  14   1   1   85.39   17.10
  14  -2  -1   72.79   15.30
  14  -2  -1   33.60   12.80
 -14   2   1   63.29   11.80
  14   2  -1   39.20   12.00
  13  -2  -1   -0.80   14.80
  13  -2  -1  -43.20   33.30
  13  -2  -1    6.20   13.60
  13  -2  -1   20.40   15.40
 -13  -2   1   14.10   22.90
 -13   2   1   10.60   12.20
 -13   2   1   41.60   28.00
  13   2  -1   27.10   12.20
  13   2  -1   27.10   19.60
 -13   2   1   32.50   33.80
 -13   2   1   26.10   13.00
 -12  -2   1   51.89   35.40
  12  -2  -1   16.70   23.70
  12  -2  -1   12.60   15.40
  12  -2  -1    5.70   18.70
 -12   2   1   38.90   20.10
 -12   2   1   27.70   15.40
 -12   2   1    0.80   15.00
  12   2  -1  -15.60   20.60
 -12   2   1   19.00   21.00
  12   2  -1    6.40   15.90
  11  -2  -1  310.57   41.40
  11  -2  -1  205.58   39.10
  11  -2  -1  239.28   28.40
  11  -2  -1  272.87   42.40
  11   2  -1  146.79   23.30
 -11   2   1  169.98   22.50
  11   2  -1  220.98   33.00
 -11   2   1  228.58   34.30
 -11   2   1  252.67   35.20
  10  -2  -1  294.87   39.20
  10  -2  -1  289.07   39.70
  10  -2  -1  282.47   34.70
  10  -2  -1  373.96   47.40
  10  -2  -1  279.57   33.90
 -10   2   1  264.97   36.20
 -10   2   1  286.57   38.10
  10   2  -1  362.96   49.60
 -10   2   1  324.47   46.40
  10   2  -1  281.17   35.70
 -10   2   1  252.37   40.30
   9  -2  -1  524.65   43.90
   9  -2  -1  539.15   61.89
   9  -2  -1  475.45   39.60
   9  -2  -1  564.44   52.69
   9  -2  -1  445.66   56.19
   9  -2  -1  548.75   55.39
  -9   2   1  556.84   36.50
  -9   2   1  430.56   42.20
  -9   2   1  520.15   41.60
   9   2  -1  540.95   76.29
   9   2  -1  485.85   52.59
  -9   2   1  434.96   40.80
   9   2  -1  544.65   43.20
   8  -2  -1    5.20   10.10
   8  -2  -1   22.80   21.00
   8  -2  -1    5.10   31.00
   8  -2  -1   22.10   19.60
   8  -2  -1    2.50   33.00
   8  -2  -1  -29.30   33.20
  -8   2   1  -11.10   18.60
  -8   2   1   32.70   23.90
   8   2  -1  -87.69   48.50
  -8   2   1   43.80   55.19
   8   2  -1  -12.70   27.30
   8   2  -1    2.30   20.80
  -8   2   1   -7.10   14.10
  -8   2   1   16.80   14.50
   7  -2  -1  704.63   40.90
   7  -2  -1  721.53   44.90
   7  -2  -1  658.13   74.99
   7  -2  -1  733.83   51.39
   7  -2  -1  706.43   69.09
   7  -2  -1  747.03   65.59
   7  -2  -1  803.02  108.19
   7  -2  -1  749.92   35.50
  -7   2   1  784.72   40.80
  -7   2   1  742.23   47.10
  -7   2   1  619.24   96.09
   7   2  -1  713.03   52.59
  -7   2   1  769.02   38.80
   7   2  -1  600.44   64.09
  -7   2   1  720.53   46.80
   6  -2  -1   94.29   37.80
   6  -2  -1  108.89   13.80
   6  -2  -1  100.49   14.50
  -6   2   1   79.89   12.40
  -6   2   1  111.79   17.10
  -6   2   1   63.19   27.10
  -6   2   1  128.19   23.90
   5  -2  -1  331.47   44.80
   5  -2  -1  318.97   21.40
   5  -2  -1  331.47   20.00
  -5   2   1  309.47   27.80
  -5   2   1  317.37   30.70
  -5   2   1  349.47   19.90
   4  -2  -1  518.65   40.60
   4  -2  -1  550.14   27.40
  -4   2   1  521.45   32.70
  -4   2   1  511.85   26.10
   3  -2  -1  762.12   45.40
   3  -2  -1  737.73   34.70
  -3   2   1  740.63   38.20
  -3   2   1  731.93   32.60
   2  -2  -1  220.88   24.30
   2  -2  -1  226.68   23.70
  -2  -2   1  219.38   11.80
  -2  -2   1  217.08   14.60
  -2  -2   1  210.58   25.00
   2  -2  -1  199.78   16.90
   2  -2  -1  265.17   35.90
   2   2  -1  227.98   19.40
  -2   2   1  230.38   19.60
  -2   2   1  194.38   12.90
   1  -2  -1 1710.93   74.99
  -1  -2   1 1746.73   71.59
   1  -2  -1 1680.23   82.29
  -1  -2   1 1706.03   76.39
   1  -2  -1 1766.22   75.99
  -1  -2   1 1784.82   74.69
  -1   2   1 1791.82   67.99
  -1   2   1 1805.52   67.09
   1   2  -1 1712.23   75.09
  -1   2   1 1703.93   74.29
   0  -2  -1  372.86   31.00
   0  -2  -1  336.97   23.90
   0  -2  -1  387.66   23.20
   0  -2   1  314.07   32.50
   0  -2   1  357.26   27.10
   0  -2   1  373.66   26.00
   0  -2   1  349.27   24.70
   0  -2  -1  370.96   26.50
   0   2  -1  363.26   23.80
   0   2   1  385.96   23.80
   1  -2   1   87.19   24.40
   1  -2   1   62.79   15.00
  -1  -2  -1   61.29   17.40
  -1  -2  -1   72.89    9.70
  -1  -2  -1   72.19   14.90
   1  -2   1   90.69   17.50
  -1  -2  -1   74.29   13.40
   1   2   1   80.19   14.60
  -1   2  -1   85.69   15.40
  -1   2  -1   67.49    6.20
  -1   2  -1   74.09    9.50
   2  -2   1  247.38   19.30
   2  -2   1  255.77   28.70
   2  -2   1  280.97   44.90
  -2  -2  -1  240.88   16.30
  -2  -2  -1  259.87   19.60
  -2   2  -1  240.68   21.20
  -2   2  -1  240.18   13.70
   3  -2   1  479.65   38.00
   3  -2   1  510.65   27.40
  -3   2  -1  517.15   32.10
  -3   2  -1  500.25   23.70
   4  -2   1 2306.37   92.99
   4  -2   1 2307.27  109.49
  -4   2  -1 2286.17   98.49
  -4   2  -1 2239.28   90.99
   5  -2   1  446.86   58.79
   5  -2   1  510.25   26.00
  -5   2  -1  517.75   40.20
  -5   2  -1  496.15   31.80
   6  -2   1  109.39   44.40
   6  -2   1  141.89   22.90
   6  -2   1  110.59   18.40
   6  -2   1   80.39   33.70
   6  -2   1  104.89   16.80
   6  -2   1  185.28   49.70
  -6   2  -1   86.19   23.40
  -6   2  -1   94.39   15.10
  -6   2  -1   98.69   29.00
  -6   2  -1  110.79   16.50
   6   2   1   81.99   26.20
   6   2   1   86.39   31.60
   7  -2   1  279.47   82.79
   7  -2   1  216.38   38.00
   7  -2   1  218.18   33.10
   7  -2   1  223.88   41.00
   7  -2   1  161.38   25.70
   7  -2   1  169.08   27.90
   7  -2   1  177.48   19.10
  -7   2  -1  157.48   20.60
  -7   2  -1  124.29   51.79
   7   2   1  154.68   26.30
  -7   2  -1  168.18   23.40
  -7   2  -1  151.28   23.30
  -7   2  -1  186.68   29.10
   7   2   1  211.98   46.00
   7   2   1  132.19   29.60
   8  -2   1  490.45   57.69
   8  -2   1  460.95   41.00
   8  -2   1  388.06   42.50
   8  -2   1  467.15   71.39
   8  -2   1  404.36   66.19
   8  -2   1  461.65   27.40
   8   2   1  498.95   66.99
   8   2   1  446.66   49.70
  -8   2  -1  474.05   42.20
  -8   2  -1  422.16   33.30
  -8   2  -1  342.47   56.69
   8   2   1  410.66   44.00
  -8   2  -1  456.25   33.10
  -8   2  -1  387.26   43.20
   9  -2   1  117.79   30.00
   9  -2   1   70.29   34.30
   9  -2   1  118.99   24.30
   9  -2   1  119.19   23.10
  -9   2  -1  133.19   26.50
  -9   2  -1  121.79   22.40
  -9   2  -1  132.49   20.70
   9   2   1  127.39   36.00
   9   2   1   75.69   24.70
   9   2   1   88.29   22.60
  10  -2   1  213.38   36.90
  10  -2   1  196.38   31.90
  10  -2   1  190.18   25.10
  10   2   1  183.88   25.60
  10   2   1  188.38   30.40
 -10   2  -1  215.88   32.50
 -10   2  -1  153.58   23.60
 -10   2  -1  148.89   25.50
 -10   2  -1  221.68   33.40
  11  -2   1  149.79   26.10
 -11  -2  -1  151.68   27.60
  11  -2   1  121.09   21.30
  11  -2   1  122.69   25.90
 -11   2  -1  117.19   20.00
 -11   2  -1   93.89   25.70
  11   2   1   79.39   23.70
 -11   2  -1  107.89   20.00
 -11   2  -1  114.79   21.80
  11   2   1  134.49   22.10
 -12  -2  -1  245.18   36.30
  12  -2   1  265.57   39.00
  12  -2   1  176.28   24.40
  12  -2   1  175.78   23.10
 -12   2  -1  225.58   26.50
 -12   2  -1  227.08   29.10
  12   2   1  189.98   26.50
  12   2   1  197.48   33.90
 -12   2  -1  223.78   30.70
 -12   2  -1  244.58   29.20
  13  -2   1   11.20   13.20
 -13  -2  -1   44.80   28.30
  13  -2   1   -1.00   14.60
  13  -2   1  -23.10   23.10
  13  -2   1    0.60   15.30
  13   2   1  -10.10   12.20
 -13   2  -1   17.40   12.70
 -13   2  -1    9.00   12.60
  13   2   1   11.40   16.00
  13  -3  -1    9.10   13.80
  13  -3  -1    9.80   13.40
  13  -3  -1   33.30   13.90
 -13   3   1   21.40   12.10
  13   3  -1   21.90   13.00
  12  -3  -1   94.19   16.30
  12  -3  -1  121.49   21.20
  12  -3  -1  116.59   19.70
 -12   3   1  102.49   16.70
 -12   3   1   93.79   18.20
  12   3  -1  106.69   25.90
  12   3  -1   75.79   16.70
  11  -3  -1   80.99   17.10
  11  -3  -1   98.69   20.50
  11  -3  -1   84.19   23.40
  11   3  -1  129.89   26.30
  11   3  -1  139.59   20.70
 -11   3   1  131.39   22.30
 -11   3   1  109.49   19.50
  10  -3  -1   47.90   22.20
  10  -3  -1   35.80   29.60
  10  -3  -1   64.19   27.80
  10  -3  -1   -1.90   23.60
  10   3  -1   45.30   31.80
 -10   3   1   22.40   21.50
 -10   3   1   16.80   31.90
  10   3  -1   21.40   28.20
 -10   3   1   24.60   20.70
   9  -3  -1  120.99   30.30
   9  -3  -1  114.49   33.10
   9  -3  -1  115.19   24.30
   9  -3  -1  104.39   28.70
  -9   3   1   59.49   20.10
   9   3  -1   76.99   31.40
  -9   3   1  133.79   25.30
  -9   3   1   81.79   33.60
  -9   3   1  130.89   22.30
   9   3  -1   97.89   22.80
  -9   3   1  119.79   29.00
   8  -3  -1  297.87   35.00
   8  -3  -1  203.98   29.00
   8  -3  -1  261.57   33.90
   8  -3  -1  232.98   25.30
   8  -3  -1  312.77   43.60
   8  -3  -1  215.08   32.40
  -8   3   1  260.67   28.50
   8   3  -1  251.27   29.90
  -8   3   1  276.57   37.20
  -8   3   1  304.97   42.60
  -8   3   1  297.07   36.80
  -8   3   1  240.48   42.80
   8   3  -1  242.78   38.30
   7  -3  -1  437.96   38.40
   7  -3  -1  509.65   52.89
   7  -3  -1  396.46   31.90
   7  -3  -1  483.25   28.80
   7  -3  -1  417.16   29.10
   7  -3  -1  466.35   68.39
   7  -3  -1  426.66   39.10
   7   3  -1  421.96   39.60
   7   3  -1  369.26   61.19
   7   3  -1  493.45   47.20
  -7   3   1  455.05   40.80
  -7   3   1  446.16   34.90
  -7   3   1  405.86   58.59
  -7   3   1  435.26   52.89
   6  -3  -1  352.06   25.60
   6  -3  -1  360.16   52.59
   6  -3  -1  301.67   48.50
   6  -3  -1  325.17   27.60
   6  -3  -1  309.37   40.30
   6  -3  -1  378.26   36.00
   6  -3  -1  313.97   22.70
  -6   3   1  363.56   54.89
   6   3  -1  344.47   43.00
  -6   3   1  305.87   37.70
  -6   3   1  391.96   54.99
  -6   3   1  358.66   28.00
   6   3  -1  355.16   48.90
   6   3  -1  227.68   34.70
   5  -3  -1   95.39   15.40
   5  -3  -1   95.69   15.30
   5  -3  -1  138.59   28.50
   5  -3  -1  131.99   31.80
   5  -3  -1   99.49   51.89
   5  -3  -1   91.29   15.00
   5  -3  -1   19.70   70.09
   5   3  -1  164.38   36.40
  -5   3   1  171.58   33.70
   5   3  -1  142.59   22.60
  -5   3   1  229.08   47.30
   5   3  -1   68.09   35.90
  -5   3   1  109.39   23.80
  -5   3   1  103.09   14.30
   4  -3  -1  340.37   52.09
   4  -3  -1  372.36   27.20
   4  -3  -1  374.96   50.19
   4  -3  -1  320.67   22.20
   4  -3  -1  364.76   30.70
   4   3  -1  355.46   38.00
  -4   3   1  370.36   49.40
  -4   3   1  402.46   54.69
  -4   3   1  288.77   36.70
  -4   3   1  373.36   23.10
  -4   3   1  413.66   44.90
   3  -3  -1  313.87   48.10
   3  -3  -1  266.37   20.00
   3  -3  -1  323.87   27.80
  -3   3   1  306.77   19.70
  -3   3   1  289.97   43.00
   2  -3  -1   56.89   10.90
   2  -3  -1   49.90   15.30
   2  -3  -1   58.49   22.90
  -2   3   1   71.69   23.30
   2   3  -1   26.30   19.00
  -1  -3   1  240.28   28.60
   1  -3  -1  221.68   35.50
   1  -3  -1  251.67   30.60
   1  -3  -1  262.37   22.40
   1   3  -1  272.87   33.90
  -1   3   1  272.47   33.30
   0  -3  -1  421.36   35.50
   0  -3   1  422.76   35.50
   0  -3   1  425.76   37.70
   0  -3  -1  360.06   32.70
   0   3  -1  365.16   38.20
   1  -3   1  445.16   41.50
   1  -3   1  431.16   26.60
   1  -3   1  457.25   38.90
  -1  -3  -1  439.76   33.30
  -1   3  -1  450.85   41.70
   2  -3   1  171.58   17.10
  -2  -3  -1  169.18   25.20
   2  -3   1  121.69   19.60
   2  -3   1  146.19   29.70
  -2   3  -1  134.79   24.80
   3  -3   1  218.78   26.60
   3  -3   1  170.08   16.50
   3  -3   1  192.78   37.10
  -3   3  -1  181.78   32.30
  -3   3  -1  172.08   34.40
  -3   3  -1  187.58   31.50
  -3   3  -1  190.38   15.90
   4  -3   1  436.86   54.79
   4  -3   1  432.56   23.00
   4  -3   1  349.07   29.20
   4  -3   1  346.47   30.30
   4  -3   1  426.56   54.69
   4   3   1  426.06   61.79
  -4   3  -1  397.56   62.99
  -4   3  -1  367.76   43.80
  -4   3  -1  433.86   24.60
  -4   3  -1  297.57   41.90
   5  -3   1    3.40    8.60
   5  -3   1   61.99   29.40
   5  -3   1   -2.80   32.80
   5  -3   1   10.80   12.90
   5  -3   1   -0.10   72.39
   5  -3   1   89.99   66.89
   5  -3   1   23.00   12.10
   5  -3   1   34.40   18.90
   5   3   1   -8.90   28.50
  -5   3  -1   44.80   31.60
  -5   3  -1   -7.40   34.10
  -5   3  -1   17.10   11.80
   5   3   1   18.30   28.90
  -5   3  -1   11.70   21.20
   6  -3   1  226.08   33.40
   6  -3   1  212.48   19.20
   6  -3   1  307.97   45.00
   6  -3   1  252.97   45.00
   6  -3   1  251.97   27.40
   6  -3   1  212.28   22.40
   6  -3   1  267.37   54.29
   6   3   1  253.47   31.20
   6   3   1  221.38   36.10
  -6   3  -1  279.17   40.20
  -6   3  -1  272.17   35.90
  -6   3  -1  256.87   25.90
  -6   3  -1  230.28   36.20
   7  -3   1  546.15   61.29
   7  -3   1  474.85   35.10
   7  -3   1  448.96   30.00
   7  -3   1  494.05   51.49
   7  -3   1  497.45   45.00
   7  -3   1  480.35   39.00
   7  -3   1  514.95   28.30
  -7   3  -1  496.05   47.10
  -7   3  -1  400.96   56.69
  -7   3  -1  431.06   50.29
  -7   3  -1  450.85   42.50
   7   3   1  501.35   44.60
   7   3   1  467.35   54.69
  -7   3  -1  508.85   36.20
   8  -3   1  213.58   32.00
   8  -3   1  169.48   22.70
   8  -3   1  196.18   39.70
   8  -3   1  192.88   24.00
   8  -3   1  252.97   36.40
   8  -3   1  238.98   32.60
  -8   3  -1  254.17   39.90
   8   3   1  188.68   26.30
  -8   3  -1  213.18   34.60
   8   3   1  289.87   48.00
  -8   3  -1  237.28   30.70
  -8   3  -1  236.68   38.00
  -8   3  -1  291.67   40.00
   9  -3   1  289.17   35.50
   9  -3   1  348.17   35.50
   9  -3   1  349.77   44.70
   9  -3   1  344.77   52.09
  -9   3  -1  313.17   39.30
  -9   3  -1  341.37   36.70
  -9   3  -1  348.97   39.80
  -9   3  -1  299.37   35.30
   9   3   1  297.47   47.40
   9   3   1  297.77   37.50
  10  -3   1  119.29   28.80
  10  -3   1  131.69   40.30
  10  -3   1  150.48   22.10
 -10   3  -1  122.49   23.80
  10   3   1  127.79   33.80
 -10   3  -1   82.39   28.50
 -10   3  -1  129.39   24.40
  10   3   1  113.39   27.50
  11  -3   1   64.09   18.40
  11  -3   1   47.30   18.80
  11  -3   1   55.89   21.40
  11   3   1   78.09   21.60
 -11   3  -1   64.99   17.60
  11   3   1   40.90   15.80
 -11   3  -1   84.49   20.10
  12  -3   1   -9.60   15.50
  12  -3   1    5.50   14.80
  12  -3   1  -12.40   15.20
  12   3   1   -6.70   12.20
 -12   3  -1    5.60   13.10
 -12   3  -1    1.10   18.50
  12   3   1    5.80   21.00
  11  -4  -1  143.39   24.50
  11  -4  -1  120.29   22.60
  11   4  -1  258.17   38.70
 -11   4   1  140.29   19.20
  10  -4  -1   -0.40   16.40
  10  -4  -1    1.30   22.40
  10  -4  -1   31.60   20.80
  10   4  -1   18.20   22.00
 -10   4   1  -17.50   27.00
 -10   4   1   26.50   14.60
 -10   4   1   -3.50   25.50
   9  -4  -1   11.20   14.80
   9  -4  -1  -46.30   29.30
   9  -4  -1   -7.30   19.00
   9  -4  -1   35.90   18.50
   9   4  -1   24.00   22.20
   9   4  -1   20.20   24.60
  -9   4   1   15.80   17.00
  -9   4   1   40.40   25.10
   8  -4  -1   40.80   11.80
   8  -4  -1   38.60   40.30
   8  -4  -1   -1.10   20.30
   8  -4  -1   47.00   20.70
   8  -4  -1   40.20   17.00
  -8   4   1   -4.90   29.40
   8   4  -1   50.49   25.00
   8   4  -1   28.90   26.40
  -8   4   1   11.80   25.10
  -8   4   1   27.50   17.90
   7  -4  -1  271.77   44.50
   7  -4  -1  320.67   26.90
   7  -4  -1  355.66   22.00
   7  -4  -1  327.57   35.50
   7  -4  -1  323.77   56.29
   7  -4  -1  291.97   43.50
   7  -4  -1  345.37   38.20
  -7   4   1  353.86   35.80
   7   4  -1  257.97   46.60
   7   4  -1  331.47   30.60
   7   4  -1  362.36   52.29
  -7   4   1  272.27   45.30
   6  -4  -1  686.33   51.89
   6  -4  -1  707.23   41.20
   6  -4  -1  613.54   46.90
   6  -4  -1  688.63   35.70
   6  -4  -1  690.13   56.69
   6  -4  -1  687.63   44.50
  -6   4   1  593.74   53.19
  -6   4   1  684.53   48.60
   6   4  -1  591.34   38.90
   6   4  -1  627.14   56.29
   5  -4  -1  169.08   21.10
   5  -4  -1  144.99   27.70
   5  -4  -1   92.09   27.40
   5  -4  -1  133.29   28.60
   5   4  -1  166.98   20.10
   5   4  -1  144.49   30.40
  -5   4   1  130.69   24.50
  -5   4   1  140.39   29.40
   4  -4  -1  967.50   56.29
   4  -4  -1  856.61   66.69
   4  -4  -1  915.31   46.80
   4  -4  -1  976.30   44.30
   4   4  -1  849.72   66.59
  -4   4   1  910.61   54.39
   4   4  -1  945.91   49.00
  -4   4   1 1005.40   60.19
  -4   4   1  907.81   59.09
   3  -4  -1  277.27   57.59
   3  -4  -1  237.88   40.50
   3  -4  -1  255.07   34.50
   3  -4  -1  204.88   20.10
  -3   4   1  166.58   28.90
  -3   4   1  236.98   40.60
   3   4  -1  219.58   33.60
   3   4  -1  245.68   30.30
   2  -4  -1  149.49   18.20
   2  -4  -1  187.38   25.10
   2  -4  -1  164.08   28.70
   2  -4  -1  212.78   39.90
  -2   4   1  175.78   27.10
  -2   4   1  167.78   34.70
  -2   4   1  107.59   26.10
   2   4  -1  171.98   23.00
   2   4  -1  177.18   32.10
  -2   4   1  188.58   31.80
   1  -4  -1  304.07   50.89
   1  -4  -1  387.86   25.10
   1  -4  -1  337.47   34.80
  -1  -4   1  370.56   29.40
  -1   4   1  295.27   41.80
  -1   4   1  352.26   39.50
  -1   4   1  417.06   41.60
   1   4  -1  330.57   51.19
   1   4  -1  422.86   34.60
   1   4  -1  308.67   45.10
  -1   4   1  297.97   51.49
   0  -4  -1  839.42   40.60
   0  -4   1  769.72   39.50
   0   4   1  807.12   73.19
   0   4   1  723.23   51.99
   0   4  -1  734.43   56.89
   0   4   1  756.82   55.19
   0   4  -1  781.02   54.89
   0   4  -1  858.11   48.40
   0   4   1  810.52   64.09
   1  -4   1  838.02   79.79
   1  -4   1  749.42   37.60
   1  -4   1  788.02   55.69
  -1  -4  -1  786.42   42.30
  -1   4  -1  731.33   50.49
  -1   4  -1  708.73   55.09
  -1   4  -1  728.13   45.90
   1   4   1  723.83   59.29
   1   4   1  735.73   52.89
   1   4   1  753.52   48.20
  -1   4  -1  739.13   52.29
   2  -4   1  146.29   17.70
   2  -4   1  169.08   29.60
   2  -4   1  156.18   36.20
   2  -4   1  148.49   21.00
   2   4   1  173.18   37.00
   2   4   1  154.58   26.80
  -2   4  -1  158.68   28.40
  -2   4  -1  184.38   27.00
  -2   4  -1  161.18   26.20
   2   4   1  157.88   22.00
   3  -4   1   39.20   10.50
   3  -4   1   72.99   33.60
   3  -4   1   47.70   24.80
   3  -4   1   30.50   14.60
  -3   4  -1   32.20   21.90
  -3   4  -1   51.79   23.30
   4  -4   1   56.39   27.80
   4  -4   1   17.80   11.40
   4  -4   1   38.70   23.90
   4  -4   1    7.00   10.00
  -4   4  -1   12.80   22.40
   4   4   1   -4.00   17.10
  -4   4  -1   27.50   23.50
   4   4   1    6.90   22.70
   5  -4   1  113.29   20.40
   5  -4   1  107.99   14.50
   5  -4   1   73.59   24.90
   5  -4   1  102.49   28.80
   5  -4   1   96.79   15.60
  -5   4  -1   91.29   22.20
  -5   4  -1   68.69   23.90
   5   4   1  112.59   20.70
   5   4   1   52.79   24.60
   5   4   1  137.79   33.60
   6  -4   1  189.88   31.40
   6  -4   1  111.49   25.30
   6  -4   1  196.08   19.70
   6  -4   1  128.99   26.70
  -6   4  -1  176.38   25.90
  -6   4  -1  201.68   30.00
   6   4   1  187.38   32.60
   6   4   1  154.08   29.60
  -6   4  -1  195.28   35.80
   7  -4   1  246.28   31.50
   7  -4   1  166.38   26.70
   7  -4   1  186.78   24.00
   7  -4   1  126.69   42.90
   7  -4   1  252.67   49.40
   7  -4   1  215.68   19.20
   7  -4   1  171.58   31.80
  -7   4  -1  131.89   29.80
   7   4   1  201.68   30.80
  -7   4  -1  154.58   23.90
   7   4   1  200.48   30.70
  -7   4  -1  204.58   29.40
   8  -4   1  252.67   23.40
   8  -4   1  189.68   41.30
   8  -4   1  221.08   30.10
   8  -4   1  257.37   49.20
  -8   4  -1  266.17   44.70
  -8   4  -1  276.17   41.50
   8   4   1  284.37   39.40
   8   4   1  255.27   43.90
   9  -4   1   20.80   24.40
   9  -4   1   32.80   30.60
   9  -4   1   68.89   19.10
   9  -4   1   83.79   18.60
  -9   4  -1   65.19   18.70
  -9   4  -1   54.69   33.70
  -9   4  -1   59.89   22.10
   9   4   1   75.29   20.80
   9   4   1   92.29   23.90
  10  -4   1   35.20   17.90
  10  -4   1  -21.10   22.00
  10  -4   1   26.20   13.80
  10   4   1   31.00   18.40
 -10   4  -1   44.90   14.70
  10   4   1    4.00   19.10
 -10   4  -1   27.10   17.90
  11  -4   1   88.59   20.20
  11  -4   1  141.19   25.00
  11   4   1  149.49   32.80
  11   4   1   93.19   17.70
 -11   4  -1   92.09   15.40
 -11   4  -1   90.59   19.80
   9  -5  -1    9.10   13.70
   9  -5  -1    7.30   11.00
  -9   5   1    4.00   11.80
   8  -5  -1  151.18   21.10
   8  -5  -1  150.48   25.60
  -8   5   1  129.99   20.60
  -8   5   1  144.39   23.00
   7  -5  -1   -3.80   16.00
   7  -5  -1    6.60   12.10
   7  -5  -1    8.80    8.10
  -7   5   1    2.40   15.30
  -7   5   1    2.60   14.30
   6  -5  -1  237.48   38.20
   6  -5  -1  176.58   17.10
   6  -5  -1  252.47   27.40
   6  -5  -1  242.08   21.50
  -6   5   1  228.48   30.90
  -6   5   1  165.08   25.90
   6   5  -1  181.68   22.90
   5  -5  -1   71.49   24.50
   5  -5  -1   56.99   11.70
   5  -5  -1   50.09   15.00
   5  -5  -1   42.70   10.40
  -5   5   1   50.49   19.50
  -5   5   1   32.80   16.60
  -5   5   1   56.79   20.30
   5   5  -1   62.59   13.60
   5   5  -1   17.00   27.30
   4  -5  -1 1218.28   56.09
   4  -5  -1 1316.47   74.79
   4  -5  -1 1322.77   55.39
   4  -5  -1 1304.47   62.69
   4   5  -1 1245.68   58.69
  -4   5   1 1337.37   64.79
  -4   5   1 1226.08   67.69
  -4   5   1 1183.98   61.69
   4   5  -1 1168.58   72.79
   3  -5  -1 1615.54   88.89
   3  -5  -1 1704.93   72.29
   3  -5  -1 1727.33   70.89
  -3   5   1 1669.83   78.29
  -3   5   1 1658.13   79.89
  -3   5   1 1498.85   75.89
   3   5  -1 1697.03   84.49
   3   5  -1 1704.23   73.09
   2  -5  -1   28.60   13.80
  -2  -5   1   57.99   18.30
   2  -5  -1   35.80   31.70
   2  -5  -1   46.10   12.60
  -2   5   1   36.60   17.30
   2   5  -1   24.30   13.90
  -2   5   1   13.50   16.70
  -2   5   1   36.00   23.40
   2   5  -1   -7.70   23.40
   1  -5  -1  177.48   21.50
   1  -5  -1  223.88   41.90
  -1  -5   1  181.28   23.90
   1  -5  -1  151.88   20.90
   1   5  -1  149.49   26.60
  -1   5   1  104.39   28.00
  -1   5   1  132.09   23.30
   1   5  -1   83.89   28.40
  -1   5   1  106.39   18.50
   1   5  -1  157.38   24.80
   0  -5   1   35.80   20.30
   0  -5  -1   88.49   22.10
   0  -5  -1   81.49   15.10
   0  -5   1   76.29   13.80
   0   5   1   58.19   16.40
   0   5   1   60.79   21.40
   0   5  -1   77.49   22.80
   0   5  -1   86.19   18.70
   0   5  -1   92.49   25.10
  -1  -5  -1   53.69   16.40
   1  -5   1   93.09   16.60
   1  -5   1   51.19   12.80
   1  -5   1   50.19   34.70
   1   5   1   43.60   20.90
  -1   5  -1  110.19   23.40
  -1   5  -1   45.60   15.00
  -1   5  -1   47.40   20.20
   1   5   1   67.29   17.20
   2  -5   1   41.60   11.90
   2  -5   1    3.70   27.00
  -2  -5  -1   64.09   18.20
   2  -5   1   65.79   12.90
   2   5   1   25.90   15.80
  -2   5  -1   30.30   20.30
   2   5   1   55.69   21.50
  -2   5  -1   37.20   17.00
   3  -5   1  287.87   46.20
   3  -5   1  308.57   32.40
   3  -5   1  251.27   21.10
   3  -5   1  268.07   23.40
  -3   5  -1  227.28   27.70
   3   5   1  209.28   26.00
   3   5   1  219.88   39.10
  -3   5  -1  289.37   34.80
   4  -5   1  121.29   16.20
   4  -5   1  123.39   18.40
   4  -5   1  225.38   47.40
   4  -5   1   75.19   24.60
  -4   5  -1  127.49   19.10
   4   5   1  123.89   18.20
  -4   5  -1  108.09   24.40
   5  -5   1  107.09   16.00
   5  -5   1  188.38   28.10
   5  -5   1  155.58   18.00
   5  -5   1  123.29   24.70
  -5   5  -1  118.19   21.20
   5   5   1  140.59   22.80
  -5   5  -1  166.88   25.20
   6  -5   1  106.39   18.10
   6  -5   1  129.29   18.80
   6  -5   1  105.49   20.30
   6  -5   1   96.19   13.70
   6   5   1  121.39   21.50
  -6   5  -1   85.69   17.00
  -6   5  -1   86.19   15.70
   7  -5   1   26.10    8.90
   7  -5   1   41.80   14.70
   7  -5   1   20.90   15.70
   7   5   1   81.69   21.30
  -7   5  -1   13.00   14.90
  -7   5  -1   35.10   14.10
   8  -5   1   45.20   13.50
   8  -5   1   59.79   20.20
   8  -5   1   48.30   14.40
  -8   5  -1   57.99   13.60
  -8   5  -1   57.59   14.80
   8   5   1   89.29   27.70
   9  -5   1  143.09   19.20
   9  -5   1  157.88   21.50
  -9   5  -1  145.79   18.20
   5  -6  -1    9.20    5.90
   5  -6  -1    1.40   12.20
   5  -6  -1   12.30   15.40
  -5   6   1    4.60    7.70
  -5   6   1   -4.90   22.40
   4  -6  -1   15.40   15.60
   4  -6  -1   16.80    6.40
   4  -6  -1   40.20   18.60
   4  -6  -1   27.10    9.30
  -4   6   1   13.90   21.10
  -4   6   1   38.50    9.20
   4   6  -1   16.10   10.10
   3  -6  -1   18.90    8.60
   3  -6  -1   30.50   14.50
   3  -6  -1   -3.90   33.50
   3  -6  -1    5.10    6.50
  -3   6   1    6.30    9.00
   3   6  -1   15.30    9.20
   2  -6  -1   85.19   16.50
  -2  -6   1   84.69   12.90
   2  -6  -1   51.29    9.80
   2  -6  -1   21.20   28.90
   2  -6  -1   60.89    9.20
  -2   6   1   69.79   11.60
   2   6  -1   53.59   10.20
  -1  -6   1  173.38   18.70
   1  -6  -1  144.69   16.90
   1  -6  -1  173.18   27.70
  -1  -6   1  154.68   21.80
   1  -6  -1  152.88   17.40
  -1   6   1  160.18   18.10
   1   6  -1  148.09   16.70
   0  -6   1  109.39   16.40
   0  -6  -1   80.79   27.90
   0  -6  -1  111.69   13.40
   0  -6   1  132.89   18.60
   0  -6  -1  138.39   16.00
   0   6   1  107.49   16.40
   0   6  -1  107.99   15.20
   1  -6   1   96.69   15.10
   1  -6   1   61.29    9.90
   1   6   1   55.39   10.60
  -1   6  -1   48.70    9.60
   2  -6   1  101.59   14.20
   2  -6   1  141.69   15.40
   2  -6   1  104.29   21.00
   2  -6   1  146.69   27.50
   2   6   1   62.19   21.90
   2   6   1  132.89   17.40
  -2   6  -1  114.99   21.50
  -2   6  -1  122.89   15.30
   3  -6   1   39.50   16.20
   3  -6   1   63.99   23.80
   3  -6   1   49.90    7.70
   3  -6   1   49.70    9.10
  -3   6  -1   29.60    8.30
   4  -6   1   23.70   17.10
   4  -6   1   25.20    6.40
   4  -6   1   24.10    9.60
   4  -6   1   29.10   15.20
  -4   6  -1   10.00   15.20
  -4   6  -1   23.00    8.60
   5  -6   1    5.60   14.20
   5  -6   1   26.30   14.80
   5  -6   1    1.00    6.10
  -5   6  -1    8.70   14.40
  -5   6  -1    5.90    7.30
  14   0  -2  370.46   29.00
 -14   0   2  396.16   29.70
 -14   0   2  377.86   30.10
  14   0  -2  394.86   32.60
  14   0  -2  362.86   32.20
 -13   0   2  167.48   22.30
 -13   0   2  143.99   18.60
  13   0  -2   77.69   19.70
  13   0  -2  121.99   18.80
  13   0  -2  100.39   20.10
  12   0  -2   14.20   19.50
 -12   0   2   -7.00   15.60
  12   0  -2   24.80   27.80
  12   0  -2   13.40   18.50
  12   0  -2   47.20   20.10
 -12   0   2   -6.30   20.60
  11   0  -2  138.19   27.10
  11   0  -2  145.39   23.90
  11   0  -2   73.69   23.90
  11   0  -2  117.89   25.60
 -11   0   2  116.89   26.60
 -11   0   2   98.39   31.90
  11   0  -2   99.69   27.40
  10   0  -2   11.60   21.00
  10   0  -2   -0.30   20.50
 -10   0   2   74.79   29.30
  10   0  -2   -9.30   25.20
  10   0  -2  -32.80   26.90
 -10   0   2   22.00   14.30
   9   0  -2  244.78   28.10
   9   0  -2  273.77   38.70
   9   0  -2  251.77   33.00
  -9   0   2  233.98   26.00
   9   0  -2  280.37   35.10
  -9   0   2  367.76   56.89
   8   0  -2   38.50   23.00
  -8   0   2   40.70   15.30
  -8   0   2   46.00   25.30
   8   0  -2   82.09   29.80
   8   0  -2   25.20   24.00
   8   0  -2   28.50   32.30
  -7   0   2  778.62   42.20
  -7   0   2  806.52   43.40
  -6   0   2 2476.45  100.49
   6   0  -2 2553.34  109.49
   5   0  -2   79.39   15.60
  -5   0   2   79.99   10.20
   4   0  -2  625.14   36.60
   4   0  -2  703.73   33.60
  -4   0   2  636.34   28.50
  -3   0   2  418.96   24.30
   3   0  -2  370.06   15.60
   3   0  -2  421.66   21.50
  -3   0   2  355.76   17.50
  -2   0   2  204.08   13.50
   2   0  -2  202.88   12.50
  -2   0   2  159.18    9.60
  -1   0   2  821.22   35.60
   1   0  -2  944.21   37.50
  -1   0   2  958.40   37.50
   0   0   2  181.38   10.50
   0   0  -2  167.88   10.60
   0   0   2  139.59    8.40
   0   0  -2  150.38    7.00
   1   0   2 1617.74   64.09
  -1   0  -2 1644.84   66.79
  -1   0  -2 1682.73   63.19
   2   0   2  281.67   13.90
  -2   0  -2  314.17   19.50
  -2   0  -2  276.87   12.70
   2   0   2  267.67   18.50
   3   0   2 3001.60  116.89
  -3   0  -2 3079.39  117.19
  -3   0  -2 3030.60  123.39
   3   0   2 3106.79  123.99
   4   0   2  147.89    7.80
   4   0   2  153.88    8.70
  -4   0  -2  147.49   11.30
  -4   0  -2  144.89   22.20
   4   0   2  183.68   28.00
  -5   0  -2  818.02   36.60
  -5   0  -2  876.81   48.00
   6   0   2   53.89   30.90
  -6   0  -2   40.40   22.20
  -6   0  -2   49.60   15.60
  -6   0  -2   49.00   10.70
  -7   0  -2  153.48   19.60
  -7   0  -2  153.68   22.20
   8   0   2   43.00   26.10
   8   0   2   21.50   31.90
   8   0   2   22.00   22.20
   8   0   2   19.10   28.20
  -8   0  -2   25.10   13.40
   8   0   2   55.29   29.50
  -8   0  -2   27.70   22.10
  -9   0  -2  -18.80   27.00
   9   0   2  -31.30   30.30
   9   0   2   14.50   26.00
  -9   0  -2   -7.60   13.00
   9   0   2   -3.90   24.90
   9   0   2   25.90   24.70
  10   0   2  414.86   43.90
  10   0   2  377.06   44.50
  10   0   2  433.86   42.00
 -10   0  -2  365.06   31.10
  10   0   2  376.96   38.90
  10   0   2  455.05   55.49
 -10   0  -2  311.87   34.80
  11   0   2  168.38   24.20
 -11   0  -2  242.48   28.10
  11   0   2  166.98   27.20
  11   0   2  212.28   36.20
 -11   0  -2  302.47   38.80
  11   0   2  211.18   28.20
  11   0   2  210.38   27.90
  12   0   2  181.78   35.70
  12   0   2  204.78   35.70
  12   0   2  175.38   24.60
 -13   0  -2  126.19   18.80
  13   0   2  160.18   29.30
  13   0   2  143.69   20.40
 -13   0  -2  139.79   18.00
 -13   0  -2  156.18   26.00
  13   0   2  205.88   29.70
 -14   0  -2  145.79   19.30
  14   0   2  151.18   19.90
  14   0   2  115.29   19.50
 -14   0  -2  112.29   17.70
 -14  -1   2    9.60   17.10
  14  -1  -2  -18.10   15.30
  14  -1  -2   -3.00   13.10
 -14  -1   2   26.90   16.20
  14  -1  -2   -4.30   18.20
 -14  -1   2    2.20   14.70
 -14   1   2  -25.10   11.40
  14   1  -2    2.20   12.10
 -14   1   2    0.30   10.70
 -14   1   2   -4.20   16.30
  13  -1  -2    2.20   18.40
  13  -1  -2  -28.10   14.00
 -13  -1   2   21.20   21.60
  13  -1  -2   22.10   17.30
 -13  -1   2    8.50   15.30
  13  -1  -2  -26.00   14.80
 -13   1   2   17.10   14.90
  13   1  -2    3.10   23.80
 -13   1   2    8.10   14.00
  13   1  -2  -25.50   19.60
  13   1  -2   11.50   14.40
  12  -1  -2   75.29   21.50
 -12  -1   2   10.10   32.10
 -12  -1   2   70.89   18.30
  12  -1  -2   66.49   27.10
  12   1  -2   78.19   25.90
 -12   1   2  117.69   28.30
  12   1  -2   36.20   27.00
  12   1  -2   84.49   26.00
 -12   1   2   60.99   16.80
 -11  -1   2  118.99   21.40
  11  -1  -2  147.89   23.60
  11  -1  -2  107.39   27.80
  11  -1  -2  152.28   37.20
  11  -1  -2   97.79   26.90
  11  -1  -2  118.39   23.40
 -11   1   2  111.59   20.00
  11   1  -2  136.29   26.50
  11   1  -2  115.49   22.70
 -11   1   2   64.09   43.20
 -11   1   2  137.29   26.50
 -11   1   2  144.49   24.00
  11   1  -2  123.19   31.50
  10  -1  -2  721.23   62.39
  10  -1  -2  557.94   47.50
  10  -1  -2  628.94   52.19
 -10  -1   2  584.34   41.50
  10  -1  -2  612.04   43.10
  10  -1  -2  670.53   54.29
 -10   1   2  631.54   39.20
  10   1  -2  593.24   59.79
 -10   1   2  589.84   48.70
 -10   1   2  547.85   54.29
  10   1  -2  638.04   58.59
  10   1  -2  581.84   55.69
 -10   1   2  671.33   46.20
  10   1  -2  664.83   44.90
  -9  -1   2   23.20   21.00
   9  -1  -2    4.80   28.40
   9  -1  -2   52.49   23.70
   9  -1  -2   44.40   26.10
   9  -1  -2   11.30   19.70
   9  -1  -2   23.30   27.30
   9   1  -2   51.09   19.30
  -9   1   2   36.10   21.50
  -9   1   2   42.20   14.50
   9   1  -2   57.79   28.60
  -9   1   2   20.90   19.50
   9   1  -2   42.20   31.00
  -9   1   2   37.80   22.50
   9   1  -2   49.20   29.00
   8  -1  -2  191.88   32.30
   8  -1  -2  188.28   34.40
   8  -1  -2  211.68   34.70
   8  -1  -2  211.38   26.30
   8   1  -2  245.78   40.20
  -8   1   2  306.37   43.20
   8   1  -2  190.98   25.60
  -8   1   2  253.27   23.70
   8   1  -2  162.78   33.70
  -8   1   2  177.88   25.10
   8   1  -2  350.46   56.49
   7  -1  -2   44.00    6.80
   7  -1  -2   42.60   39.00
  -7   1   2   56.79   13.30
  -7   1   2   60.79   13.60
   6  -1  -2  222.98   32.30
   6  -1  -2  203.38   12.20
  -6  -1   2  262.77   34.40
  -6   1   2  165.88   17.50
  -6   1   2  171.48   21.30
   5  -1  -2  626.34   27.30
   5  -1  -2  612.84   43.70
  -5  -1   2  656.33   36.30
  -5   1   2  591.14   29.20
   4  -1  -2 4620.54  186.28
   4  -1  -2 4809.62  178.48
  -4  -1   2 4583.04  181.68
  -4   1   2 4550.34  177.48
  -4   1   2 4672.13  178.98
   3  -1  -2 3298.47  141.69
  -3  -1   2 3517.45  136.19
   3  -1  -2 3539.95  133.49
   3  -1  -2 3481.35  139.49
   3   1  -2 3373.66  135.29
  -3   1   2 3476.35  133.59
  -3   1   2 3520.85  133.39
   2  -1  -2 1078.69   48.90
   2  -1  -2 1121.49   44.30
  -2  -1   2 1067.49   46.20
  -2  -1   2 1138.49   43.40
   2  -1  -2 1084.09   44.80
  -2   1   2 1094.99   50.99
  -2   1   2 1065.29   44.30
   2   1  -2 1104.39   43.20
   2   1  -2 1067.99   46.20
  -2   1   2 1061.29   44.00
   1  -1  -2  168.78   14.80
  -1  -1   2  165.58   13.30
   1  -1  -2  186.28   11.00
   1  -1  -2  168.18   11.70
  -1  -1   2  158.48   11.70
  -1   1   2  159.88   11.40
   1   1  -2  185.68   15.00
   1   1  -2  162.58   13.20
  -1   1   2  175.68   15.70
   0  -1   2 2041.60   79.59
   0  -1  -2 1971.60   80.49
   0  -1   2 1948.41   82.49
   0  -1  -2 2010.50   78.59
   0  -1  -2 1926.21   80.99
   0   1   2 1975.50   81.29
   0   1  -2 2046.70   82.19
   0   1   2 2144.09   77.99
   0   1  -2 2001.00   81.39
   0   1  -2 2087.49   77.29
   0   1  -2 2168.78   77.89
  -1  -1  -2  606.84   26.90
   1  -1   2  577.24   32.60
  -1  -1  -2  550.04   24.20
  -1  -1  -2  567.84   27.70
   1  -1   2  557.34   27.00
  -1   1  -2  556.84   23.80
  -1   1  -2  587.04   31.40
  -1   1  -2  583.54   27.60
   1   1   2  588.64   26.40
  -2  -1  -2  958.00   41.20
  -2  -1  -2  935.41   42.30
   2  -1   2  874.61   40.00
   2  -1   2  969.50   47.80
  -2   1  -2  965.60   46.90
   2   1   2  984.90   40.00
  -2   1  -2  996.90   42.00
  -2   1  -2  857.01   37.90
  -3  -1  -2 3695.03  146.59
   3  -1   2 3766.02  142.69
   3  -1   2 3439.66  151.58
  -3  -1  -2 3506.75  143.59
   3   1   2 3748.02  142.99
  -3   1  -2 3719.13  150.58
  -3   1  -2 3806.02  141.29
  -4  -1  -2  595.04   31.90
   4  -1   2  616.24   27.80
  -4  -1  -2  511.25   34.50
  -4   1  -2  616.34   26.80
  -4   1  -2  655.43   42.30
   4   1   2  548.75   35.10
   5  -1   2 1101.79   44.50
  -5  -1  -2 1064.59   50.99
  -5   1  -2 1045.00   44.90
   5   1   2  999.60   54.49
  -5   1  -2  991.00   58.59
   6  -1   2  496.75   24.30
   6  -1   2  513.25   62.99
  -6   1  -2  547.05   27.80
  -6   1  -2  485.55   37.30
  -6   1  -2  490.15   30.10
   7  -1   2  392.76   44.20
   7  -1   2  173.78   58.99
   7  -1   2  325.27   36.70
   7  -1   2  441.46   52.59
   7  -1   2  351.46   21.10
   7   1   2  352.36   53.09
   7   1   2  324.77   51.49
   7   1   2  329.07   41.10
  -7   1  -2  335.87   44.40
  -7   1  -2  340.77   24.90
   8  -1   2  310.97   40.10
   8  -1   2  368.26   41.80
   8  -1   2  481.65   56.39
   8  -1   2  427.06   39.10
   8  -1   2  248.38   33.10
  -8   1  -2  337.17   29.80
  -8   1  -2  332.97   26.40
  -8   1  -2  298.47   39.50
   8   1   2  254.87   48.30
  -8   1  -2  380.46   59.69
   8   1   2  257.67   47.70
   8   1   2  367.46   47.20
   8   1   2  341.17   36.90
   9  -1   2  388.76   50.09
   9  -1   2  358.06   37.70
   9  -1   2  375.96   43.90
  -9  -1  -2  303.67   34.30
   9  -1   2  397.56   42.10
  -9   1  -2  366.76   29.40
   9   1   2  313.47   37.30
  -9   1  -2  344.27   39.70
   9   1   2  300.57   44.50
   9   1   2  420.26   49.30
   9   1   2  383.16   66.49
  -9   1  -2  395.46   38.00
  10  -1   2  124.79   23.70
  10  -1   2  154.38   30.40
  10  -1   2  174.28   31.00
  10  -1   2  191.18   28.50
 -10  -1  -2  182.68   29.50
 -10   1  -2  175.78   33.10
  10   1   2  157.88   30.70
  10   1   2  194.38   28.80
 -10   1  -2  164.18   23.10
  10   1   2  134.99   40.60
 -10   1  -2  150.38   25.70
  10   1   2  140.49   24.40
  11  -1   2  181.08   27.40
  11  -1   2  177.18   31.50
 -11  -1  -2  203.58   35.20
  11  -1   2  196.68   26.20
  11  -1   2  173.38   26.40
 -11  -1  -2  193.28   30.00
  11   1   2  143.49   26.70
 -11   1  -2  206.18   48.90
 -11   1  -2  188.58   27.00
  11   1   2  169.48   25.60
  11   1   2  101.79   41.90
 -11   1  -2  192.38   25.00
  11   1   2  189.18   27.90
  12  -1   2  137.29   22.40
  12  -1   2  109.89   20.40
  12  -1   2  150.58   29.10
  12  -1   2  240.88   29.70
 -12  -1  -2  256.27   41.80
 -12  -1  -2  185.78   25.90
  12  -1   2  204.98   30.40
  12   1   2  152.68   23.60
  12   1   2  234.98   35.70
 -12   1  -2  227.18   26.80
  12   1   2  211.98   29.50
 -12   1  -2  232.38   31.10
 -12   1  -2  143.89   20.80
  13  -1   2    8.50   24.60
  13  -1   2   42.40   17.00
  13  -1   2   12.40   17.90
 -13  -1  -2   28.90   14.40
  13  -1   2   52.19   15.80
 -13  -1  -2   25.50   17.10
 -13   1  -2   43.50   13.60
 -13   1  -2   23.60   20.90
  13   1   2   45.10   17.30
  13   1   2   57.09   14.90
 -13   1  -2   32.60   14.10
 -14  -1  -2   76.99   15.10
  14  -1   2   93.09   14.90
  14  -1   2   62.49   13.90
 -14   1  -2   93.19   14.70
  14   1   2   56.49   14.00
 -14   1  -2   79.29   12.20
  14   1   2   46.80   14.70
  14  -2  -2   39.20   14.90
  14  -2  -2   16.00   12.20
 -14   2   2   29.50   12.60
  14   2  -2   19.30   11.70
 -13  -2   2    1.20   31.40
  13  -2  -2  -15.40   13.40
  13  -2  -2    2.20   14.50
  13  -2  -2   -7.60   15.70
 -13   2   2  -14.00   22.80
 -13   2   2   -3.60   12.30
  13   2  -2    2.80   12.90
 -13   2   2  -17.20   25.20
  13   2  -2   56.39   37.70
 -13   2   2   -1.30   12.90
  12  -2  -2   25.10   20.90
  12  -2  -2   53.79   26.70
  12  -2  -2   30.40   24.40
  12  -2  -2   27.40   16.90
 -12   2   2   65.69   21.60
 -12   2   2   30.50   20.30
  12   2  -2   39.00   18.30
 -12   2   2   47.40   16.00
  12   2  -2    5.90   23.20
  11  -2  -2   57.79   25.30
  11  -2  -2   44.90   24.30
  11  -2  -2   60.89   31.00
  11  -2  -2   57.69   17.10
 -11   2   2   69.39   18.70
  11   2  -2   21.90   25.30
 -11   2   2   26.70   19.20
  11   2  -2   73.69   22.30
 -11   2   2  105.69   21.70
  10  -2  -2  264.07   31.70
  10  -2  -2  247.08   33.00
  10  -2  -2  259.97   32.50
  10  -2  -2  333.77   45.70
  10  -2  -2  286.87   47.40
  10   2  -2  279.27   49.99
 -10   2   2  244.78   30.40
  10   2  -2  261.07   37.30
  10   2  -2  355.56   49.30
 -10   2   2  305.77   48.70
   9  -2  -2  113.69   21.90
   9  -2  -2   96.69   32.90
   9  -2  -2   86.39   31.80
   9  -2  -2   98.99   23.10
   9  -2  -2   93.89   39.80
  -9   2   2  123.89   19.80
  -9   2   2   86.59   19.20
   9   2  -2   67.99   22.00
   9   2  -2   94.39   30.70
  -9   2   2   88.59   21.80
  -9   2   2  125.69   24.90
   8  -2  -2   13.30   10.50
   8  -2  -2   29.40   31.20
   8  -2  -2    6.00   34.20
   8  -2  -2   25.10   18.10
   8  -2  -2   37.40   21.40
   8  -2  -2   24.10   34.40
   8   2  -2  -10.00   22.90
  -8   2   2   -5.50   20.30
  -8   2   2   73.09   59.09
  -8   2   2   21.40   15.80
  -8   2   2    7.40   15.30
   8   2  -2    6.40   29.90
  -8   2   2    5.80   17.30
   7  -2  -2  148.89   41.60
   7  -2  -2  107.19   34.10
   7  -2  -2   -1.00   58.39
   7  -2  -2  108.59   38.70
   7  -2  -2  109.09   21.10
   7  -2  -2  120.69   24.60
   7  -2  -2  115.39   16.10
   7   2  -2  136.19   29.90
  -7   2   2  111.69   22.20
   7   2  -2   79.79   24.30
   7   2  -2   27.90   34.50
   7   2  -2   88.49   48.50
  -7   2   2  107.09   16.80
  -7   2   2   99.99   23.90
  -7   2   2  117.09   16.20
   6  -2  -2  582.54   32.80
   6  -2  -2  682.13   46.10
   6  -2  -2  591.54   30.80
   6  -2  -2  652.83   70.29
  -6   2   2  575.54   49.90
  -6   2   2  607.14   32.70
  -6   2   2  653.93   46.30
  -6   2   2  629.54   35.30
   5  -2  -2  125.49   16.90
   5  -2  -2  146.19   13.20
  -5   2   2  150.88   14.70
  -5   2   2  163.98   22.30
  -5   2   2  184.88   23.80
   4  -2  -2 1210.08   51.79
   4  -2  -2 1258.87   66.29
  -4   2   2 1217.98   55.49
  -4   2   2 1177.88   51.39
   3  -2  -2  850.61   44.80
   3  -2  -2  727.53   44.00
   3  -2  -2  765.62   35.50
  -3   2   2  801.42   38.90
  -3   2   2  762.32   34.10
   3   2  -2  747.33   41.10
  -2  -2   2  122.09   12.10
   2  -2  -2  101.79   32.20
   2  -2  -2   95.39   14.90
   2  -2  -2   87.79   13.80
   2  -2  -2  151.18   21.10
  -2  -2   2  104.89   17.60
  -2  -2   2  143.99   15.20
  -2   2   2   85.99    9.60
   2   2  -2  132.89   18.80
   1  -2  -2  324.47   39.20
  -1  -2   2  309.37   30.90
  -1  -2   2  344.57   26.70
   1  -2  -2  346.67   24.20
  -1  -2   2  393.06   28.70
   1  -2  -2  372.26   27.20
   1  -2  -2  298.67   20.60
  -1   2   2  307.87   19.80
  -1   2   2  321.07   15.70
  -1   2   2  377.36   23.00
   1   2  -2  358.16   24.20
   0  -2   2  924.11   55.99
   0  -2  -2  916.41   42.40
   0  -2  -2  945.91   47.10
   0  -2   2  937.51   46.30
   0  -2   2  870.41   44.80
   0  -2  -2  948.01   41.10
   0  -2  -2  917.91   50.49
   0   2  -2  884.21   44.40
  -1  -2  -2  504.85   29.00
   1  -2   2  561.84   49.20
   1  -2   2  448.96   29.30
  -1  -2  -2  510.85   26.90
  -1  -2  -2  518.55   34.60
  -1   2  -2  466.75   22.70
  -1   2  -2  497.45   20.60
  -1   2  -2  507.05   30.10
   2  -2   2  260.47   21.10
  -2  -2  -2  238.08   19.80
   2  -2   2  286.17   42.30
  -2   2  -2  247.78   13.70
  -2   2  -2  244.28   22.50
  -2   2  -2  239.38   33.10
   3  -2   2  170.38   17.60
  -3  -2  -2  179.38   15.40
  -3   2  -2  175.08   12.20
  -3   2  -2  149.19   21.60
   4  -2   2 2398.36  118.49
   4  -2   2 2639.44  103.59
   4  -2   2 2477.75  100.49
  -4   2  -2 2548.05  109.69
  -4   2  -2 2664.83  101.29
   5  -2   2 1146.39   50.19
   5  -2   2 1177.48   84.29
   5  -2   2 1243.18   53.69
  -5   2  -2 1272.87   52.29
  -5   2  -2 1192.08   55.69
  -5   2  -2 1124.19   64.19
   6  -2   2  591.14   32.00
   6  -2   2  528.05   28.20
   6  -2   2  339.27   59.19
   6  -2   2  478.55   59.09
   6  -2   2  498.25   38.70
   6  -2   2  514.85   29.00
   6  -2   2  483.45   70.19
  -6   2  -2  544.25   43.70
   6   2   2  434.26   45.10
  -6   2  -2  516.05   29.10
   6   2   2  496.75   53.69
  -6   2  -2  580.14   55.19
  -6   2  -2  485.25   50.19
  -6   2  -2  504.65   32.80
   7  -2   2  443.26   93.39
   7  -2   2  359.06   53.79
   7  -2   2  415.86   56.29
   7  -2   2  372.66   32.90
   7  -2   2  409.86   36.80
   7  -2   2  345.77   25.50
   7  -2   2  345.47   43.20
   7   2   2  414.36   64.49
   7   2   2  342.57   36.70
  -7   2  -2  375.86   38.50
  -7   2  -2  358.56   56.19
  -7   2  -2  415.26   30.00
  -7   2  -2  401.26   42.30
  -7   2  -2  391.16   27.70
   7   2   2  363.86   58.59
   7   2   2  354.76   48.30
   8  -2   2   59.99   28.20
   8  -2   2   55.69   13.60
   8  -2   2   36.40   33.80
   8  -2   2   56.19   22.50
  -8   2  -2   62.39   17.40
   8   2   2   46.00   38.30
   8   2   2   44.00   46.70
   8   2   2   20.10   21.50
  -8   2  -2   43.70   25.80
  -8   2  -2   48.80   21.20
   8   2   2   66.69   36.00
  -8   2  -2   34.40   46.80
  -8   2  -2   44.50   16.20
   9  -2   2  208.28   34.10
   9  -2   2  214.88   32.30
   9  -2   2  178.38   34.30
   9  -2   2  178.48   33.70
  -9   2  -2  154.48   23.20
  -9   2  -2  199.18   28.60
   9   2   2   74.79   48.30
   9   2   2  164.58   24.20
   9   2   2  147.99   26.20
  -9   2  -2  218.88   28.80
  -9   2  -2  177.58   28.70
  10  -2   2  491.75   39.20
  10  -2   2  465.15   46.60
  10  -2   2  414.06   41.10
  10   2   2  424.76   46.90
 -10   2  -2  401.26   39.70
 -10   2  -2  417.46   38.40
 -10   2  -2  373.06   45.30
  10   2   2  429.66   38.30
 -10   2  -2  371.46   52.09
 -10   2  -2  464.45   38.60
  11  -2   2   28.50   30.30
 -11  -2  -2   30.60   23.20
 -11   2  -2   48.80   27.60
 -11   2  -2   74.59   20.90
  11   2   2   51.29   24.20
 -11   2  -2   41.30   27.70
 -11   2  -2   70.39   29.90
  12  -2   2   -1.30   17.60
  12  -2   2   16.60   20.50
  12  -2   2   17.60   16.00
 -12  -2  -2   30.60   20.00
 -12   2  -2   25.20   14.30
  12   2   2  -13.60   17.30
  12   2   2   -7.30   14.70
 -12   2  -2   88.39   30.40
 -12   2  -2  -11.70   13.00
  13  -2   2   21.70   14.50
  13  -2   2  -10.20   14.30
  13  -2   2    1.00   20.60
  13  -2   2    5.40   13.90
 -13   2  -2   19.90   12.60
  13   2   2   37.50   15.90
  13   2   2    0.20   11.30
 -13   2  -2   45.50   20.90
  13  -3  -2    3.70   13.50
  13  -3  -2    7.70   13.50
  13  -3  -2   42.60   12.30
 -13   3   2    1.40   12.60
 -13   3   2   46.80   28.30
  13   3  -2   10.60   14.50
  12  -3  -2  242.48   25.50
  12  -3  -2  272.57   37.90
  12  -3  -2  228.28   31.00
 -12   3   2  267.07   28.90
  12   3  -2  264.67   26.60
 -12   3   2  258.07   28.30
  11  -3  -2   31.30   19.20
  11  -3  -2   19.60   14.40
  11  -3  -2  -15.30   21.30
  11   3  -2   23.40   25.70
  11   3  -2   21.50   17.60
 -11   3   2   24.60   18.00
 -11   3   2   10.90   18.70
  10  -3  -2   52.79   25.60
  10  -3  -2   48.50   18.80
  10  -3  -2   34.50   31.20
  10  -3  -2   47.40   29.50
 -10   3   2   24.50   20.80
 -10   3   2   43.10   33.30
  10   3  -2   44.00   28.40
 -10   3   2   25.30   19.10
   9  -3  -2   -0.30   25.40
   9  -3  -2   27.30   18.60
   9  -3  -2  -20.60   38.20
   9  -3  -2   34.10   18.80
   9  -3  -2   11.20   32.60
   9   3  -2   22.80   22.20
   9   3  -2   12.50   30.00
  -9   3   2   24.30   20.90
  -9   3   2   23.40   18.60
  -9   3   2  -20.40   34.40
  -9   3   2   30.30   23.50
  -9   3   2   22.30   27.40
   8  -3  -2   56.49   15.00
   8  -3  -2   51.39   16.20
   8  -3  -2   86.79   36.90
   8  -3  -2   42.60   28.00
   8  -3  -2   43.30   19.70
   8  -3  -2    8.70   18.40
   8   3  -2   26.10   19.20
   8   3  -2   60.99   25.60
  -8   3   2   18.20   22.30
  -8   3   2   72.89   22.00
   8   3  -2   37.20   33.60
  -8   3   2   55.19   21.70
  -8   3   2   60.79   35.70
   7  -3  -2  246.78   37.00
   7  -3  -2  193.68   24.70
   7  -3  -2  224.18   23.90
   7  -3  -2  289.77   48.30
   7  -3  -2  188.18   23.90
   7  -3  -2  223.08   26.60
   7  -3  -2  316.67   49.50
  -7   3   2  264.17   30.80
  -7   3   2  254.47   30.10
  -7   3   2  291.07   41.90
   7   3  -2  234.48   36.30
   6  -3  -2  130.19   30.70
   6  -3  -2  184.38   50.69
   6  -3  -2  149.29   23.00
   6  -3  -2  104.99   17.60
   6  -3  -2  145.59   21.10
  -6   3   2  148.59   31.50
  -6   3   2  102.39   24.90
   6   3  -2   98.59   20.00
  -6   3   2   95.99   16.70
   6   3  -2  103.39   33.30
   6   3  -2   87.99   38.00
   5  -3  -2  473.15   39.10
   5  -3  -2  210.48   53.79
   5  -3  -2  393.76   28.40
   5  -3  -2  367.16   23.30
   5  -3  -2  366.06   27.50
   5  -3  -2  376.56   51.89
   5  -3  -2  461.45   75.59
   5   3  -2  286.47   49.40
  -5   3   2  452.05   65.99
  -5   3   2  316.67   39.00
  -5   3   2  409.36   26.20
  -5   3   2  308.07   46.60
   5   3  -2  395.86   33.20
   4  -3  -2   14.10   29.10
   4  -3  -2  -40.60   35.20
   4  -3  -2    4.50   15.90
   4  -3  -2   29.80   12.30
   4  -3  -2   13.60   30.20
   4  -3  -2   20.70    9.50
  -4   3   2   49.40   49.90
  -4   3   2   13.40   19.60
  -4   3   2  -20.20   27.30
   4   3  -2   16.10   17.90
  -4   3   2  -14.90   29.80
  -4   3   2   38.90   11.40
   3  -3  -2  435.96   29.60
   3  -3  -2  371.76   23.50
   3  -3  -2  362.16   50.29
  -3   3   2  419.76   22.70
  -2  -3   2  354.46   23.70
   2  -3  -2  349.67   41.30
   2  -3  -2  347.47   22.80
   2  -3  -2  351.56   29.30
   2   3  -2  354.26   41.70
  -1  -3   2  183.08   22.60
   1  -3  -2  225.08   27.60
   1  -3  -2  168.78   21.50
   1  -3  -2  188.58   25.70
   1   3  -2  150.58   24.60
   0  -3  -2  449.66   33.60
   0  -3   2  471.25   31.00
   0  -3   2  528.15   45.70
   0  -3  -2  493.85   56.29
   0   3  -2  477.25   43.00
   1  -3   2 1638.14   82.39
  -1  -3  -2 1638.84   74.39
   1  -3   2 1595.14   74.89
   1  -3   2 1506.25   66.49
  -1   3  -2 1634.44   82.49
   2  -3   2  376.36   34.40
   2  -3   2  423.06   51.69
  -2  -3  -2  363.36   36.00
   2  -3   2  353.06   22.50
  -2   3  -2  423.26   44.70
   3  -3   2  102.39   37.50
   3  -3   2   96.69   13.40
   3  -3   2  116.39   45.50
  -3   3  -2  126.29   30.50
  -3   3  -2  110.79   26.00
   3   3   2  102.79   35.00
  -3   3  -2  136.19   31.70
   4  -3   2   52.19   14.20
   4  -3   2   64.99   42.70
   4  -3   2   81.89   32.20
   4  -3   2   39.60    9.20
   4  -3   2   30.50   14.00
  -4   3  -2   16.80   35.20
   4   3   2   56.99   29.20
   4   3   2   39.90   48.10
  -4   3  -2   60.19   39.50
  -4   3  -2   42.20   22.90
   4   3   2   33.30   28.10
  -4   3  -2   66.79   29.30
  -4   3  -2   42.80   11.00
   5  -3   2  118.99   18.40
   5  -3   2  140.09   14.90
   5  -3   2  216.08   66.59
   5  -3   2  128.69   29.00
   5  -3   2  130.39   19.50
   5  -3   2  147.69   23.30
   5   3   2  149.49   28.00
  -5   3  -2  152.08   23.90
  -5   3  -2  117.59   31.30
  -5   3  -2  141.29   20.40
   5   3   2  201.98   52.79
   5   3   2  108.29   30.20
  -5   3  -2  130.89   32.60
   6  -3   2   16.50   34.20
   6  -3   2    1.20    9.80
   6  -3   2   -1.90   28.60
   6  -3   2   -1.50   19.20
   6  -3   2   18.90    9.80
   6  -3   2   10.00   45.60
   6  -3   2   14.90   14.30
   6   3   2    2.20   21.30
  -6   3  -2    7.70   29.70
  -6   3  -2  -21.70   27.50
  -6   3  -2    6.90   21.30
  -6   3  -2   10.80   14.20
   6   3   2  -31.70   26.90
   7  -3   2  830.62   79.49
   7  -3   2  979.90   48.60
   7  -3   2 1068.89   47.00
   7  -3   2 1027.30   60.99
   7  -3   2  978.30   65.79
   7  -3   2 1083.39   57.29
   7  -3   2 1075.39   54.09
  -7   3  -2 1069.09   61.59
  -7   3  -2 1144.59   55.09
  -7   3  -2  995.00   70.09
  -7   3  -2  984.70   59.09
  -7   3  -2  981.90   62.49
   7   3   2 1028.80   59.79
   7   3   2 1017.50   68.19
   8  -3   2  299.47   37.10
   8  -3   2  360.96   52.49
   8  -3   2  408.96   37.20
   8  -3   2  289.87   40.40
   8  -3   2  355.46   57.89
   8  -3   2  374.96   43.00
  -8   3  -2  347.87   37.70
  -8   3  -2  387.36   43.60
  -8   3  -2  269.37   42.60
  -8   3  -2  423.56   41.80
   8   3   2  371.96   47.70
  -8   3  -2  430.96   52.99
   8   3   2  351.86   37.40
   9  -3   2   90.19   31.10
   9  -3   2   42.90   20.50
   9  -3   2   35.50   18.20
   9  -3   2   14.50   22.30
   9   3   2   32.50   23.50
  -9   3  -2   28.80   20.20
  -9   3  -2   26.70   18.60
  -9   3  -2   54.19   23.20
   9   3   2   51.09   20.70
  -9   3  -2   15.10   30.80
  10  -3   2   38.10   19.00
  10  -3   2   71.19   18.70
  10  -3   2   50.79   26.10
  10  -3   2   68.59   24.90
 -10   3  -2   44.20   20.30
  10   3   2   58.39   16.50
  10   3   2   88.09   23.10
 -10   3  -2   64.69   19.70
  11  -3   2   -2.60   17.60
  11  -3   2   28.50   16.40
  11  -3   2   35.10   20.70
  11   3   2    5.90   14.50
 -11   3  -2  -13.00   18.30
  11   3   2   20.60   18.80
 -11   3  -2    2.30   16.00
  12  -3   2    9.30   15.00
  12  -3   2    3.70   16.60
  12  -3   2   18.80   16.00
  12   3   2   22.00   13.00
 -12   3  -2   12.00   12.40
  12   3   2   33.60   19.60
 -12   3  -2   34.50   23.10
  11  -4  -2  118.49   18.10
  11  -4  -2  140.19   19.80
  11  -4  -2  169.68   26.20
 -11   4   2  144.59   17.60
  10  -4  -2  121.49   22.40
  10  -4  -2   81.99   16.80
  10  -4  -2   42.20   25.00
 -10   4   2   58.89   14.80
  10   4  -2   81.29   36.50
   9  -4  -2  -52.49   30.80
   9  -4  -2   -0.40   14.20
   9  -4  -2    9.40   16.40
   9  -4  -2   21.10   20.30
  -9   4   2   17.10   17.70
  -9   4   2   14.70   22.60
   9   4  -2  -15.10   27.20
   8  -4  -2   14.00   11.20
   8  -4  -2   72.39   41.40
   8  -4  -2   11.00   21.70
   8  -4  -2   22.60   15.80
   8  -4  -2    2.90   24.30
  -8   4   2   -4.00   24.70
  -8   4   2    3.00   16.30
   8   4  -2   -0.90   16.50
   8   4  -2   37.30   40.20
   7  -4  -2 1118.09   68.29
   7  -4  -2 1115.99   98.49
   7  -4  -2 1158.38   60.19
   7  -4  -2 1221.88   53.29
   7  -4  -2 1122.39   50.49
   7  -4  -2 1154.98   58.99
   7  -4  -2 1029.40   64.69
  -7   4   2 1159.58   63.49
  -7   4   2 1189.08   70.29
   7   4  -2 1121.79   71.49
   7   4  -2 1146.99   53.79
   6  -4  -2  146.29   18.90
   6  -4  -2   90.19   21.90
   6  -4  -2  140.99   29.90
   6  -4  -2   84.59   24.10
  -6   4   2   88.39   24.00
   6   4  -2  126.49   33.90
  -6   4   2   94.59   26.10
   6   4  -2   89.69   17.50
   5  -4  -2  180.18   19.30
   5  -4  -2  195.48   27.00
   5  -4  -2  182.48   32.30
   5  -4  -2  197.38   27.60
   5  -4  -2  205.18   22.90
  -5   4   2  153.88   30.40
  -5   4   2  146.89   27.20
   5   4  -2  151.28   33.90
   5   4  -2  198.18   24.90
   4  -4  -2  171.48   19.70
   4  -4  -2  200.98   34.50
   4  -4  -2  320.87   45.40
   4  -4  -2  201.18   24.70
   4  -4  -2  253.87   36.40
  -4   4   2  167.88   29.00
   4   4  -2  160.78   35.20
  -4   4   2  209.08   32.40
  -4   4   2  222.68   31.60
   4   4  -2  201.38   25.20
   3  -4  -2  368.36   24.70
   3  -4  -2  392.96   57.09
   3  -4  -2  313.37   32.50
   3  -4  -2  404.16   49.30
   3  -4  -2  409.36   40.90
   3   4  -2  388.26   30.10
  -3   4   2  277.27   42.30
  -3   4   2  358.46   37.40
   3   4  -2  375.66   53.89
  -3   4   2  377.86   55.79
   2  -4  -2  687.73   50.29
   2  -4  -2  676.63   34.50
   2  -4  -2  644.54   65.39
   2  -4  -2  696.53   45.00
   2   4  -2  605.54   42.60
  -2   4   2  668.53   50.19
   2   4  -2  720.63   54.09
  -2   4   2  746.73   59.29
  -2   4   2  572.84   49.30
  -2   4   2  556.34   66.09
  -1  -4   2  815.42   43.40
   1  -4  -2  916.41   56.69
   1  -4  -2  922.11   80.59
   1  -4  -2  872.41   41.70
  -1   4   2  853.61   54.09
  -1   4   2  832.32   55.39
  -1   4   2  777.52   65.79
  -1   4   2  741.33   68.99
   1   4  -2  914.41   58.69
   1   4  -2  856.41   62.79
   1   4  -2  853.81   47.10
   0  -4   2 1114.09   51.79
   0  -4  -2 1188.98   53.49
   0   4   2 1093.59   65.39
   0   4   2 1066.69   72.89
   0   4   2 1141.99   63.69
   0   4  -2 1106.49   71.89
   0   4  -2 1170.18   64.89
   0   4  -2 1210.38   58.39
  -1  -4  -2  214.18   28.60
   1  -4   2  327.97   48.50
   1  -4   2  247.98   28.60
   1  -4   2  217.38   20.60
   1   4   2  297.37   34.80
  -1   4  -2  250.07   31.70
  -1   4  -2  300.87   39.10
   1   4   2  220.78   36.60
  -1   4  -2  253.17   31.90
   1   4   2  220.28   37.70
   2  -4   2   51.29   10.60
   2  -4   2   62.19   27.80
   2  -4   2   28.90   16.10
   2  -4   2   49.10   33.60
   2   4   2   54.69   20.10
  -2   4  -2   22.20   24.00
   2   4   2   35.10   26.30
  -2   4  -2   23.80   35.90
   2   4   2   37.70   43.00
  -2   4  -2   54.09   32.00
   3  -4   2  100.39   31.50
   3  -4   2   72.09   25.80
   3  -4   2   84.49   12.60
   3  -4   2  109.39   16.00
   3   4   2   75.49   35.30
  -3   4  -2   89.39   22.90
   3   4   2   57.09   23.40
  -3   4  -2   73.89   22.40
   4  -4   2   63.49   20.40
   4  -4   2   18.50   24.70
   4  -4   2   32.40   10.50
   4  -4   2   34.20   11.40
   4  -4   2    9.80   26.70
   4   4   2   22.10   19.60
  -4   4  -2   60.09   22.60
  -4   4  -2   29.80   22.30
   4   4   2   44.40   22.10
   4   4   2  -19.10   31.50
   5  -4   2  104.69   25.60
   5  -4   2  116.89   15.70
   5  -4   2  130.99   28.30
   5  -4   2  113.79   21.00
   5  -4   2  114.59   19.20
  -5   4  -2  118.69   25.20
   5   4   2  115.59   28.30
   5   4   2  102.39   29.80
  -5   4  -2  118.69   33.30
  -5   4  -2  107.09   21.60
   6  -4   2  201.98   20.40
   6  -4   2  244.88   19.50
   6  -4   2  186.08   30.70
   6  -4   2  322.37   46.90
   6  -4   2  187.28   28.80
  -6   4  -2  193.28   30.80
   6   4   2  177.98   28.90
  -6   4  -2  201.28   32.60
   6   4   2  203.88   28.70
  -6   4  -2  275.37   38.00
   7  -4   2  189.88   26.70
   7  -4   2  147.39   24.70
   7  -4   2  153.38   31.40
   7  -4   2  166.58   46.80
   7  -4   2  140.89   20.80
   7  -4   2  122.39   18.00
   7   4   2  108.39   24.40
  -7   4  -2   95.19   26.00
   7   4   2  111.59   24.50
  -7   4  -2  161.68   23.90
   8  -4   2  540.85   44.50
   8  -4   2  460.65   33.30
   8  -4   2  477.15   41.10
   8  -4   2  544.55   44.50
   8  -4   2  379.46   62.29
  -8   4  -2  398.96   44.10
  -8   4  -2  468.65   46.00
  -8   4  -2  386.76   40.10
   8   4   2  497.25   44.50
   8   4   2  494.25   41.30
   9  -4   2   99.59   30.40
   9  -4   2   82.99   16.70
   9  -4   2   61.09   18.50
  -9   4  -2   60.69   19.70
   9   4   2   74.79   20.30
   9   4   2   73.59   20.70
  -9   4  -2   62.29   16.10
  10  -4   2    2.80   21.80
  10  -4   2   12.00   13.60
  10  -4   2   47.00   26.50
  10   4   2   14.50   17.70
 -10   4  -2   19.50   14.50
  10   4   2   -0.80   17.10
 -10   4  -2   14.00   17.00
  11  -4   2  139.59   21.90
  11  -4   2  129.29   20.00
 -11   4  -2  137.89   22.40
  11   4   2  118.49   18.20
 -11   4  -2  119.69   19.00
   9  -5  -2  179.28   23.60
   9  -5  -2  156.78   18.50
  -9   5   2  136.19   19.90
  -9   5   2  129.29   19.10
   8  -5  -2   53.29   15.90
   8  -5  -2   75.19   14.20
  -8   5   2   42.10   13.00
  -8   5   2   63.69   14.40
   7  -5  -2   35.00   17.50
   7  -5  -2   25.90    8.10
   7  -5  -2   39.40   13.70
  -7   5   2   38.70   15.90
   7   5  -2   59.49   14.40
  -7   5   2   21.80   13.40
   6  -5  -2   20.90   14.40
   6  -5  -2   13.70    8.10
   6  -5  -2   17.40   19.40
   6  -5  -2   45.80   12.10
   6   5  -2    8.10   11.70
  -6   5   2   31.70   19.10
  -6   5   2   43.80   17.70
   5  -5  -2  198.88   19.50
   5  -5  -2  175.28   27.00
   5  -5  -2  193.68   19.60
   5  -5  -2  162.08   27.60
  -5   5   2  242.08   33.70
  -5   5   2  239.48   34.00
   4  -5  -2  176.18   20.00
   4  -5  -2  148.09   32.30
   4  -5  -2  168.58   19.10
  -4   5   2  149.69   24.40
   4   5  -2  166.68   21.20
   3  -5  -2  165.98   20.30
   3  -5  -2  184.28   33.10
   3   5  -2  137.19   21.10
  -3   5   2  135.89   24.40
  -3   5   2  159.78   30.30
  -3   5   2  125.59   20.70
  -3   5   2  147.49   26.60
   2  -5  -2  274.67   28.20
  -2  -5   2  267.87   29.00
   2  -5  -2  310.57   24.50
   2  -5  -2  215.08   37.60
  -2   5   2  244.58   36.90
   2   5  -2  259.37   25.80
  -2   5   2  298.57   31.20
  -2   5   2  233.28   32.60
  -2   5   2  285.17   43.70
   1  -5  -2  425.06   27.80
  -1  -5   2  349.67   28.20
   1  -5  -2  443.26   68.19
   1   5  -2  385.36   29.90
   1   5  -2  297.47   41.10
  -1   5   2  411.66   33.90
   1   5  -2  429.66   67.89
  -1   5   2  376.76   37.20
   0  -5   2  141.69   21.00
   0  -5  -2  108.39   22.90
   0  -5   2  230.08   32.30
   0  -5  -2  192.18   22.80
   0   5   2  164.48   20.90
   0   5  -2  141.29   24.00
   0   5   2  174.48   26.40
   0   5  -2  150.38   19.60
   0   5  -2  135.49   26.00
   1  -5   2   87.19   15.70
   1  -5   2   41.10   33.10
  -1  -5  -2   66.79   16.60
   1  -5   2   68.09   12.10
  -1   5  -2   65.39   22.80
   1   5   2   62.39   17.20
  -1   5  -2   96.49   19.40
   1   5   2   37.00   19.10
   2  -5   2   43.30   28.00
   2  -5   2   98.79   20.50
  -2  -5  -2   83.09   19.10
   2  -5   2  100.39   16.60
   2  -5   2   67.19   12.80
  -2   5  -2   95.49   21.50
   2   5   2   73.69   20.30
  -2   5  -2   65.19   16.10
   2   5   2   59.09   15.40
  -3  -5  -2   63.69   21.40
   3  -5   2   49.90   12.20
   3  -5   2   51.79   19.30
   3  -5   2   43.70   24.80
   3  -5   2   42.50   10.20
   3   5   2   65.19   14.90
  -3   5  -2   30.20   18.20
  -3   5  -2   52.19   16.30
   3   5   2   38.70   20.70
   4  -5   2   29.50   24.20
   4  -5   2   24.00    9.50
   4  -5   2    8.40   12.10
   4   5   2   12.30   21.30
   4   5   2   12.80   15.60
  -4   5  -2    9.70   22.20
  -4   5  -2   14.10   24.40
   5  -5   2   15.50   18.90
   5  -5   2   12.60   15.10
   5  -5   2    8.00    9.80
   5  -5   2    5.80    7.80
  -5   5  -2   16.90   17.40
   5   5   2   24.50   18.30
  -5   5  -2   26.60   14.40
   6  -5   2   85.19   16.50
   6  -5   2  125.29   15.20
   6  -5   2  153.98   20.20
   6  -5   2   98.89   19.60
  -6   5  -2   89.19   16.90
   6   5   2  111.49   21.30
  -6   5  -2  125.79   19.60
   7  -5   2  371.16   31.10
   7  -5   2  341.17   21.80
   7  -5   2  384.66   30.00
   7  -5   2  420.16   31.70
  -7   5  -2  349.37   29.40
   7   5   2  382.36   39.20
  -7   5  -2  371.66   28.80
   8  -5   2  224.48   23.70
   8  -5   2  188.38   23.90
  -8   5  -2  230.38   23.30
   9  -5   2  337.17   23.40
   9  -5   2  321.77   23.90
  -9   5  -2  363.06   24.10
   5  -6  -2   73.49   12.50
   5  -6  -2   70.79   17.20
   5  -6  -2   53.09    7.00
  -5   6   2   69.39    9.80
   5   6  -2   83.29   21.40
   4  -6  -2   85.49   19.80
   4  -6  -2  106.09   15.60
   4  -6  -2   70.99    7.80
   4  -6  -2   76.59   17.50
  -4   6   2   85.19   13.10
   4   6  -2   67.89   10.00
   3  -6  -2   99.89   15.20
   3  -6  -2   76.19   13.20
   3  -6  -2   87.89   26.40
   3  -6  -2   77.69   14.70
  -3   6   2  100.59   15.30
   3   6  -2  117.79   14.10
   2  -6  -2   31.70   28.10
   2  -6  -2   29.20    9.40
   2  -6  -2   14.80    7.80
   2  -6  -2   31.30   14.30
  -2   6   2   29.20   10.30
   2   6  -2   14.40    8.00
   1  -6  -2  -27.70   14.40
  -1  -6   2  -12.40   11.50
   1  -6  -2    5.60    8.20
  -1  -6   2   14.20    9.80
   1  -6  -2   14.20    9.20
   1   6  -2   -1.10    8.10
  -1   6   2   -8.10    8.60
   0  -6   2   35.80    9.50
   0  -6  -2   35.60   11.00
   0  -6  -2   27.00   10.50
   0  -6   2   10.40    9.30
   0   6  -2   26.20    8.50
   0   6   2   23.70    9.60
  -1  -6  -2  208.58   21.90
   1  -6   2  175.38   16.40
  -1  -6  -2  153.08   25.90
   1  -6   2  226.38   17.00
  -1   6  -2  181.68   16.60
   1   6   2  198.38   18.30
   1   6   2  196.58   22.70
  -1   6  -2  188.58   24.00
   2  -6   2   -0.30   24.00
   2  -6   2    6.30    7.90
  -2  -6  -2   11.20   13.70
   2  -6   2   -2.60    6.80
  -2  -6  -2    4.00   15.10
  -2   6  -2   23.40    9.20
   2   6   2    9.80   29.10
   2   6   2    4.70   13.50
  -2   6  -2   17.00   19.40
   3  -6   2   49.80    9.20
   3  -6   2   69.59   20.60
   3  -6   2   40.90   20.00
   3  -6   2   26.90    7.40
  -3   6  -2   32.40    8.80
  -3   6  -2   44.80   16.00
   3   6   2   52.09   13.30
   3   6   2   82.99   21.90
   4  -6   2  248.78   29.00
   4  -6   2  208.28   15.30
   4  -6   2  177.18   28.40
  -4   6  -2  213.98   16.40
   4   6   2  360.26   60.79
  -4   6  -2  228.28   23.60
   5  -6   2  134.49   18.60
   5  -6   2  101.29   15.70
   5  -6   2   95.99   11.20
  -5   6  -2  118.99   14.90
  -5   6  -2   96.69   13.70
 -14   0   3   43.60   13.10
  14   0  -3   48.40   27.10
 -14   0   3   40.00   14.50
  14   0  -3   56.99   15.10
  14   0  -3   38.40   16.70
 -13   0   3    7.20   14.00
  13   0  -3   12.30   14.60
  13   0  -3   -0.40   18.50
  13   0  -3  -22.00   18.70
 -13   0   3   44.00   17.80
  12   0  -3  163.98   28.20
 -12   0   3  183.88   27.40
  12   0  -3  173.78   22.50
  12   0  -3  181.08   34.20
 -12   0   3  105.19   29.30
  12   0  -3  294.47   37.60
  12   0  -3  188.38   27.10
  11   0  -3  316.47   44.10
 -11   0   3  385.86   44.30
 -11   0   3  246.78   32.60
  11   0  -3  277.27   35.50
  11   0  -3  389.96   45.90
  11   0  -3  329.17   40.50
 -11   0   3  299.17   34.50
  11   0  -3  311.67   46.80
 -10   0   3  195.08   27.40
  10   0  -3  165.68   29.90
  10   0  -3  174.68   32.90
  10   0  -3  165.48   26.70
  10   0  -3  200.88   28.00
 -10   0   3  213.78   35.30
   9   0  -3   -6.70   21.80
  -9   0   3   10.80   37.40
   9   0  -3  -31.80   22.50
  -9   0   3   11.00   14.40
   9   0  -3    2.50   26.20
   9   0  -3   33.70   21.10
   9   0  -3   12.00   29.20
  -8   0   3  168.78   28.40
   8   0  -3  264.57   40.30
   8   0  -3  208.38   29.70
  -8   0   3  223.98   28.40
   8   0  -3  149.88   34.80
  -7   0   3 5120.19  205.28
  -7   0   3 5391.06  206.58
  -6   0   3  219.98   21.60
  -5   0   3   20.90    9.60
   5   0  -3   16.30   14.20
   4   0  -3   99.39   16.70
  -4   0   3  110.29   11.90
  -4   0   3  105.19   18.50
   4   0  -3  128.39   17.70
   3   0  -3 1630.34   66.19
   3   0  -3 1641.44   61.09
   3   0  -3 1574.94   61.59
  -3   0   3 1574.54   62.79
  -3   0   3 1537.55   67.79
   2   0  -3  103.29    5.90
  -2   0   3   99.69    8.60
   2   0  -3   98.19   12.20
  -2   0   3   95.19   12.10
   2   0  -3   91.89    6.30
  -1   0   3  182.68   12.70
  -1   0   3  169.78   10.80
   1   0  -3  184.58    8.80
   1   0  -3  165.68   14.80
   0   0  -3   60.39    5.00
   0   0   3   64.29    8.40
   0   0  -3   49.80    8.50
   0   0   3   62.69    9.10
   1   0   3  888.11   40.30
  -1   0  -3  827.72   39.80
   1   0   3  856.81   36.00
  -1   0  -3  881.01   34.20
   2   0   3  211.88   20.70
   2   0   3  223.08   13.00
  -2   0  -3  242.88   20.90
  -2   0  -3  219.88   11.10
  -3   0  -3 2050.39   89.59
   3   0   3 2023.10   90.49
  -3   0  -3 2196.98   82.29
   3   0   3 2183.28   82.49
   4   0   3 2531.75   96.79
  -4   0  -3 2584.84  107.69
  -4   0  -3 2513.35   98.09
   4   0   3 2469.05   96.99
  -5   0  -3  756.32   46.40
  -5   0  -3  672.43   31.90
  -6   0  -3  470.05   30.20
  -6   0  -3  436.46   26.80
  -6   0  -3  500.35   56.29
  -7   0  -3  968.60   47.50
   7   0   3  992.20   59.59
  -7   0  -3  966.70   48.70
   8   0   3  617.24   46.80
  -8   0  -3  630.04   40.70
   8   0   3  564.44   52.49
   8   0   3  621.64   54.89
  -8   0  -3  529.35   61.79
  -8   0  -3  584.54   35.20
   8   0   3  606.94   53.19
  -9   0  -3   95.89   16.30
  -9   0  -3   69.59   28.50
   9   0   3  121.49   23.40
 -10   0  -3   31.80   15.20
  10   0   3    7.50   27.80
  10   0   3   45.00   23.10
  10   0   3   51.39   22.60
  10   0   3   39.10   21.20
 -10   0  -3    6.80   23.30
 -11   0  -3  -23.90   19.80
  11   0   3  -12.90   18.90
  11   0   3    4.40   28.00
  11   0   3   28.70   23.10
  11   0   3   44.90   22.40
 -11   0  -3  -13.60   14.60
  11   0   3  -21.00   19.90
  12   0   3   97.29   21.30
 -12   0  -3  111.49   21.60
  12   0   3  130.29   24.00
  12   0   3   91.39   25.30
 -12   0  -3  171.18   22.80
  12   0   3  117.49   20.70
  12   0   3  119.09   30.00
  13   0   3  136.39   20.50
 -13   0  -3  165.58   21.20
 -13   0  -3  182.48   26.00
  13   0   3  153.58   20.90
  13   0   3  150.78   34.20
 -13   0  -3  155.28   26.30
  13   0   3  181.58   29.00
 -14   0  -3   -1.90   13.40
  14   0   3   -7.20   12.80
 -14   0  -3   -2.70   10.00
  14  -1  -3   43.30   14.60
  14  -1  -3   97.69   17.90
  14  -1  -3   60.19   24.10
 -14  -1   3   68.99   17.80
 -14  -1   3   59.49   16.30
 -14   1   3   69.69   13.10
  14   1  -3   17.10   23.10
  14   1  -3   54.79   13.30
 -14   1   3   70.39   12.90
 -14   1   3   86.49   17.20
  13  -1  -3   56.29   19.60
  13  -1  -3   72.59   19.10
  13  -1  -3   30.30   16.80
 -13  -1   3  111.69   24.60
  13  -1  -3   41.70   19.20
 -13  -1   3   78.49   16.90
 -13   1   3   52.99   15.50
 -13   1   3   63.89   16.40
 -13   1   3   72.59   27.10
  13   1  -3   69.49   16.40
  13   1  -3   61.19   22.90
  13   1  -3   59.89   27.00
 -12  -1   3   52.59   16.70
  12  -1  -3    8.20   25.10
 -12  -1   3   40.60   32.50
  12   1  -3   11.60   28.40
 -12   1   3    6.40   15.40
  12   1  -3   44.40   23.70
 -12   1   3   40.20   25.10
  12   1  -3   -8.30   26.60
  11  -1  -3  131.29   29.20
  11  -1  -3  158.48   23.30
 -11  -1   3  157.78   23.20
  11  -1  -3  149.59   25.10
  11  -1  -3  198.08   30.70
 -11   1   3  223.38   29.00
  11   1  -3   88.49   27.50
 -11   1   3  102.89   24.20
 -11   1   3  184.88   25.20
  11   1  -3  188.78   30.20
  11   1  -3  241.28   33.10
  11   1  -3  204.88   34.20
 -11   1   3  200.68   47.70
 -10  -1   3  576.34   42.30
  10  -1  -3  604.34   52.99
  10  -1  -3  642.44   45.30
  10  -1  -3  676.43   44.80
  10  -1  -3  586.54   49.90
  10   1  -3  748.63   63.39
 -10   1   3  627.14   39.20
  10   1  -3  696.03   54.39
 -10   1   3  634.74   56.29
  10   1  -3  523.35   60.19
 -10   1   3  638.94   47.30
  10   1  -3  609.54   44.50
 -10   1   3  699.53   46.80
   9  -1  -3   38.20   20.30
   9  -1  -3   69.39   26.80
   9  -1  -3   27.20   34.10
   9  -1  -3   45.40   30.90
  -9  -1   3   46.80   20.40
   9   1  -3   31.40   20.10
   9   1  -3   10.90   33.50
  -9   1   3   39.10   13.80
   9   1  -3   18.60   27.00
  -9   1   3   39.40   20.70
   9   1  -3   19.70   23.40
  -9   1   3    4.00   19.10
   9   1  -3   66.09   30.50
   8  -1  -3   25.70   36.00
   8  -1  -3    5.00   19.30
   8  -1  -3    1.10   30.30
   8  -1  -3   43.10   21.50
   8  -1  -3   67.49   28.50
   8   1  -3   -1.50   23.10
  -8   1   3   23.70   25.20
   8   1  -3   20.90   29.20
  -8   1   3   13.50   14.60
   8   1  -3    5.00   21.60
   8   1  -3   39.50   38.30
  -8   1   3   28.30   13.50
   8   1  -3   85.79   35.80
   7  -1  -3 1003.50   78.39
   7  -1  -3  785.02   99.39
  -7   1   3  969.10   46.90
  -7   1   3  976.90   46.70
   6  -1  -3  271.07   14.30
   6  -1  -3  210.88   32.20
  -6   1   3  254.77   22.90
  -6   1   3  260.87   20.40
  -5  -1   3  254.97   24.40
   5  -1  -3  252.87   33.40
   5  -1  -3  291.97   14.80
   5   1  -3  286.57   25.30
   5   1  -3  256.87   29.10
  -5   1   3  291.47   18.20
   4  -1  -3 1368.66   66.59
  -4  -1   3 1407.86   61.49
   4  -1  -3 1549.34   57.99
   4   1  -3 1424.86   59.69
   4   1  -3 1431.46   60.39
  -4   1   3 1458.85   58.99
   3  -1  -3 1542.75   68.29
   3  -1  -3 1592.64   62.29
   3  -1  -3 1589.64   62.39
  -3  -1   3 1565.04   63.39
  -3  -1   3 1566.54   65.29
  -3   1   3 1562.14   62.99
  -3   1   3 1552.94   75.19
   3   1  -3 1650.33   64.09
   3   1  -3 1516.65   64.89
   2  -1  -3  751.12   31.00
  -2  -1   3  733.63   33.60
   2  -1  -3  752.82   32.20
   2  -1  -3  693.93   35.50
  -2  -1   3  735.23   32.90
  -2   1   3  739.43   31.40
   2   1  -3  720.93   33.70
  -2   1   3  757.72   40.10
   1  -1  -3 1662.83   65.29
   1  -1  -3 1635.54   67.29
   1  -1  -3 1624.94   68.79
  -1  -1   3 1703.63   68.89
  -1  -1   3 1618.04   65.59
  -1   1   3 1638.74   65.49
   1   1  -3 1688.73   68.79
  -1   1   3 1713.43   70.69
   1   1  -3 1655.33   68.09
   0  -1  -3 1216.58   46.50
   0  -1   3 1231.68   48.40
   0  -1   3  988.20   56.29
   0  -1  -3 1193.78   49.99
   0  -1  -3 1204.28   49.50
   0   1   3 1168.58   47.20
   0   1   3 1252.67   50.49
   0   1  -3 1135.89   49.60
   0   1  -3 1027.60   46.40
   0   1  -3 1206.58   52.19
   1  -1   3 1707.53   76.09
  -1  -1  -3 1748.93   72.49
  -1  -1  -3 1727.53   68.49
   1  -1   3 1778.22   70.99
   1   1   3 1795.82   71.89
  -1   1  -3 1628.34   72.29
  -1   1  -3 1869.01   76.29
  -1   1  -3 1825.62   68.29
  -2  -1  -3  234.78   19.00
   2  -1   3  210.18   15.90
   2  -1   3  236.88   29.50
  -2  -1  -3  217.78   13.20
  -2   1  -3  225.58   26.70
   2   1   3  237.88   17.70
  -2   1  -3  213.68   11.90
   3  -1   3  575.04   27.60
  -3  -1  -3  585.34   32.10
   3  -1   3  485.55   47.00
  -3  -1  -3  586.64   25.90
   3   1   3  553.44   33.20
  -3   1  -3  578.14   25.10
  -3   1  -3  581.44   39.90
   4  -1   3  430.56   22.60
  -4  -1  -3  413.86   29.80
  -4  -1  -3  402.06   23.10
   4   1   3  459.85   39.80
  -4   1  -3  441.76   21.20
  -4   1  -3  472.25   37.00
   5  -1   3  125.79   12.70
  -5  -1  -3  137.99   21.00
  -5   1  -3  124.89   13.60
  -5   1  -3  162.18   27.60
   6  -1   3   32.50    7.90
  -6  -1  -3   37.80   22.40
  -6   1  -3   64.29   12.30
  -6   1  -3   47.90   10.30
  -6   1  -3   42.20   30.80
   7  -1   3  101.29   31.70
   7  -1   3  103.19   83.49
  -7  -1  -3  116.19   21.20
   7  -1   3  139.39   25.80
   7  -1   3  120.19   25.10
  -7   1  -3  134.29   26.20
   7   1   3  132.59   40.00
   7   1   3  114.59   29.30
   7   1   3  152.78   26.60
  -7   1  -3  121.49   19.70
   7   1   3  123.79   31.00
  -7   1  -3  141.79   20.50
   8  -1   3  348.27   45.60
   8  -1   3  283.37   36.90
   8  -1   3  305.67   38.80
  -8  -1  -3  275.07   32.70
   8  -1   3  377.26   51.89
  -8   1  -3  315.37   26.30
   8   1   3  355.56   39.50
   8   1   3  312.67   61.49
   8   1   3  274.87   47.20
   8   1   3  403.56   47.10
  -8   1  -3  361.36   29.90
   8   1   3  411.86   55.79
  -8   1  -3  321.27   40.30
  -9  -1  -3 1064.09   53.99
   9  -1   3 1116.29   65.89
   9  -1   3 1150.88   64.69
   9  -1   3 1090.29   59.79
  -9   1  -3 1003.60   58.79
  -9   1  -3 1131.69   60.69
  -9   1  -3 1109.79   53.89
   9   1   3 1039.90   64.99
   9   1   3 1069.09   59.49
   9   1   3 1062.09   66.39
   9   1   3  989.90   77.29
 -10  -1  -3  110.39   19.50
  10  -1   3  127.19   27.70
  10  -1   3  125.49   29.80
  10  -1   3  111.99   23.50
  10  -1   3  112.09   25.60
  10   1   3  121.39   25.40
  10   1   3  105.79   27.40
 -10   1  -3   94.79   32.20
  10   1   3  136.59   27.30
 -10   1  -3   97.89   23.70
  10   1   3  153.48   37.80
 -10   1  -3  113.59   18.10
 -11  -1  -3   38.40   16.90
  11  -1   3   47.20   21.70
  11  -1   3   43.60   24.50
 -11  -1  -3  -10.00   26.10
  11  -1   3    7.70   20.80
  11  -1   3   49.00   21.60
  11  -1   3   -2.00   28.50
  11   1   3   31.00   18.60
  11   1   3   23.30   34.30
  11   1   3   29.60   22.10
 -11   1  -3   51.79   16.80
 -11   1  -3   16.50   17.00
 -11   1  -3   24.80   18.00
  11   1   3   -2.10   23.40
 -12  -1  -3   15.50   14.50
  12  -1   3   -6.60   16.50
 -12  -1  -3   30.60   20.40
  12  -1   3  -25.60   22.60
  12  -1   3   33.80   19.30
  12  -1   3  -16.40   17.60
 -12   1  -3    1.50   14.90
  12   1   3   18.20   18.90
 -12   1  -3   13.00   15.60
 -12   1  -3   19.00   14.80
  12   1   3  -12.70   34.00
  12   1   3   -3.10   15.30
  13  -1   3    2.20   22.50
 -13  -1  -3   37.10   15.70
  13  -1   3   32.20   16.10
 -13  -1  -3   64.29   14.80
  13  -1   3   33.80   14.60
  13  -1   3   50.29   19.50
  13   1   3   68.39   16.70
 -13   1  -3   41.80   13.00
  13   1   3   47.30   15.50
 -13   1  -3   53.29   15.50
 -14  -1  -3   89.09   14.20
  14   1   3  105.69   14.70
 -14   1  -3   90.39   12.30
 -14   1  -3   84.99   14.00
  14   1   3   90.49   15.00
  14  -2  -3   17.00   14.70
  14  -2  -3   -4.10   11.40
  14   2  -3  -12.20   11.60
 -14   2   3    3.60   11.50
  13  -2  -3  112.89   18.80
  13  -2  -3  126.39   27.10
  13  -2  -3  111.19   17.20
  13   2  -3   92.09   15.60
 -13   2   3  153.08   23.40
 -13   2   3  172.08   27.50
 -13   2   3  105.99   16.90
 -13   2   3  137.99   22.70
  12  -2  -3   -1.80   20.10
  12  -2  -3   32.30   15.40
  12  -2  -3   38.30   31.00
  12  -2  -3   13.00   20.50
 -12   2   3   14.10   19.70
  12   2  -3   13.20   25.00
  12   2  -3   45.80   18.50
 -12   2   3    7.80   18.50
 -12   2   3   35.80   16.10
  11  -2  -3  107.39   29.10
  11  -2  -3  104.29   29.30
  11  -2  -3  108.99   26.60
  11  -2  -3  158.68   45.30
  11  -2  -3   91.79   19.80
 -11   2   3   94.49   19.30
 -11   2   3  103.39   22.20
 -11   2   3  118.49   21.10
  11   2  -3  100.19   22.70
  10  -2  -3  178.08   28.90
  10  -2  -3  184.18   27.50
  10  -2  -3  148.89   31.50
  10  -2  -3  103.89   29.50
  10  -2  -3  175.18   25.40
 -10   2   3  169.38   24.10
  10   2  -3  162.08   35.50
 -10   2   3  168.78   26.70
 -10   2   3  164.18   27.80
 -10   2   3  190.58   31.70
  10   2  -3  149.59   24.50
   9  -2  -3   97.09   26.40
   9  -2  -3   75.79   31.10
   9  -2  -3   28.30   39.70
   9  -2  -3   75.19   20.70
   9  -2  -3   77.59   28.80
  -9   2   3   86.79   18.10
   9   2  -3   83.49   24.80
   9   2  -3   87.59   32.20
  -9   2   3   57.89   21.10
  -9   2   3   97.89   23.20
   9   2  -3   36.60   20.90
  -9   2   3   73.19   20.00
   8  -2  -3  116.99   21.00
   8  -2  -3  119.19   17.40
   8  -2  -3  153.48   34.60
   8  -2  -3  109.99   34.40
   8  -2  -3  125.29   37.70
   8  -2  -3  158.98   26.00
  -8   2   3  118.69   24.50
   8   2  -3  149.69   26.10
   8   2  -3  160.48   23.50
  -8   2   3  114.39   19.50
  -8   2   3   91.59   20.30
   8   2  -3  144.19   37.40
   8   2  -3   54.69   40.20
  -8   2   3  151.48   19.40
  -8   2   3  258.47   62.79
   7  -2  -3   12.30   35.30
   7  -2  -3   32.00   19.50
   7  -2  -3   34.50   35.60
   7  -2  -3   44.10   26.50
   7  -2  -3   58.59   59.19
   7  -2  -3   25.10    8.90
   7  -2  -3   31.50   19.40
   7  -2  -3   -2.20   35.80
  -7   2   3   40.20   21.10
   7   2  -3  131.79   48.60
  -7   2   3   19.70   14.00
   7   2  -3  -14.00   39.50
   7   2  -3   15.30   26.60
   7   2  -3   22.90   20.70
  -7   2   3   59.49   14.30
  -7   2   3   36.50   19.60
  -7   2   3  -71.39   54.89
   6  -2  -3   25.50   35.50
   6  -2  -3   -3.30   37.70
   6  -2  -3    9.60   13.00
   6  -2  -3   23.80   20.40
   6  -2  -3   10.70    8.30
  -6   2   3    9.40   13.50
  -6   2   3   39.50   23.40
  -6   2   3   17.40    9.80
  -6   2   3   19.30   20.70
   5  -2  -3  131.69   17.30
   5  -2  -3  143.09   32.10
  -5   2   3  183.38   22.70
   4  -2  -3   68.89   22.50
   4  -2  -3  116.19   12.50
   4  -2  -3   71.79   11.00
  -4   2   3  100.59   12.80
   3  -2  -3  980.50   50.69
   3  -2  -3  988.50   53.19
   3  -2  -3  953.00   42.50
  -3   2   3  971.40   41.80
   3   2  -3  975.20   49.60
   2  -2  -3  326.57   29.20
   2  -2  -3  292.17   19.30
   2  -2  -3  330.87   26.90
   2  -2  -3  338.37   42.70
  -2  -2   3  325.27   24.80
   2   2  -3  356.46   25.80
  -2   2   3  305.37   17.50
  -1  -2   3 1347.57   64.29
   1  -2  -3 1281.27   56.69
  -1  -2   3 1408.86   62.59
   1  -2  -3 1433.96   64.99
   1  -2  -3 1354.96   61.29
   1   2  -3 1438.56   61.59
   1   2  -3 1382.76   62.49
  -1   2   3 1365.96   54.09
  -1   2   3 1295.07   56.89
   0  -2  -3   40.80    9.80
   0  -2   3   54.19   16.10
   0  -2  -3   67.19   11.60
   0  -2   3   81.39   23.00
   0  -2  -3   54.19   13.40
   0   2  -3   41.80   11.60
   0   2  -3   60.59   17.30
  -1  -2  -3  226.08   20.70
   1  -2   3  244.68   24.20
  -1  -2  -3  216.28   20.90
   1  -2   3  237.68   36.70
  -1   2  -3  243.58   17.20
  -1   2  -3  198.58   21.50
  -1   2  -3  248.08   12.00
  -1   2  -3  269.47   31.00
   2  -2   3  717.63   37.80
  -2  -2  -3  773.12   38.70
   2  -2   3  739.33   69.89
   2   2   3  743.23   49.50
  -2   2  -3  752.32   41.10
  -2   2  -3  783.32   51.89
  -2   2  -3  733.83   31.70
   3  -2   3  546.65   29.60
  -3  -2  -3  501.45   31.40
  -3   2  -3  563.74   49.70
  -3   2  -3  495.15   35.00
  -3   2  -3  522.25   24.50
   4  -2   3 1821.12   77.99
   4  -2   3 1813.22   74.39
  -4  -2  -3 1866.01   76.59
  -4   2  -3 1975.50   98.29
  -4   2  -3 1807.52   80.49
  -4   2  -3 1913.41   87.09
  -4   2  -3 1862.81   75.29
   5  -2   3  246.98   18.10
   5  -2   3  269.07   21.50
   5  -2   3  353.16   54.19
  -5   2  -3  276.57   40.40
  -5   2  -3  238.68   26.10
  -5   2  -3  242.38   18.50
   6  -2   3   19.80   11.10
   6  -2   3   -8.80   41.10
   6  -2   3   47.70   20.10
   6  -2   3    2.20   13.20
   6  -2   3   -7.50   31.60
   6  -2   3    3.10   11.90
   6  -2   3  -27.00   61.49
   6  -2   3   -3.70   27.40
  -6   2  -3    5.90   32.00
   6   2   3   -8.80   26.30
   6   2   3    2.60   21.40
  -6   2  -3   15.70    9.50
  -6   2  -3  -13.60   25.20
  -6   2  -3  -25.10   40.60
   6   2   3   28.10   48.00
  -6   2  -3    7.50   20.70
   7  -2   3   31.10   24.00
   7  -2   3   42.80   19.00
   7  -2   3   59.19   12.80
   7  -2   3 -111.29  100.89
   7  -2   3   50.89   34.20
   7  -2   3   69.99   25.60
   7  -2   3   60.49   25.80
   7  -2   3   61.99   30.60
  -7   2  -3   43.80   15.70
   7   2   3   59.19   42.60
  -7   2  -3   50.29   46.80
  -7   2  -3   55.59   20.20
   7   2   3   67.19   24.90
   7   2   3   55.39   19.70
  -7   2  -3   79.49   26.30
  -7   2  -3   87.09   16.60
   8  -2   3  631.74   44.60
   8  -2   3  385.96   71.59
   8  -2   3  602.24   56.49
   8  -2   3  560.34   34.00
   8  -2   3  530.45   60.19
   8  -2   3  604.54   46.40
  -8   2  -3  640.94   39.50
  -8   2  -3  533.95   42.90
  -8   2  -3  631.64   38.40
  -8   2  -3  677.33   44.10
   8   2   3  573.94   50.89
  -8   2  -3  462.35   50.39
   8   2   3  577.34   42.40
   9  -2   3  364.46   38.40
   9  -2   3  305.67   36.60
   9  -2   3  425.16   51.79
   9  -2   3  331.47   47.30
  -9   2  -3  316.97   32.80
  -9   2  -3  316.97   36.10
  -9   2  -3  283.07   39.40
  -9   2  -3  315.27   36.80
   9   2   3  333.67   35.30
   9   2   3  327.67   45.40
  -9   2  -3  300.37   44.90
  10  -2   3  233.18   36.00
 -10  -2  -3  235.68   39.20
  10  -2   3  159.78   29.80
  10  -2   3  145.39   23.90
  10   2   3  151.08   43.40
 -10   2  -3  206.88   31.60
 -10   2  -3  232.18   32.20
  10   2   3  270.57   32.30
 -10   2  -3  218.58   30.80
 -10   2  -3  139.99   32.60
  10   2   3  139.89   25.80
 -10   2  -3  194.68   33.30
  11  -2   3   31.20   22.50
 -11  -2  -3   79.29   20.90
  11  -2   3   68.59   22.80
  11  -2   3   44.70   19.20
 -11   2  -3   50.49   21.10
 -11   2  -3   49.10   17.30
 -11   2  -3   37.90   18.50
  11   2   3   30.50   17.10
  11   2   3   51.99   20.80
  12  -2   3    7.20   16.20
  12  -2   3  -11.70   18.30
  12  -2   3   16.90   17.10
  12  -2   3   -4.30   16.10
  12   2   3    6.10   16.20
 -12   2  -3   13.60   14.70
 -12   2  -3   67.99   24.50
  12   2   3   -6.20   12.20
 -12   2  -3   31.30   14.30
  13  -2   3   48.10   19.30
  13  -2   3   63.59   20.80
  13  -2   3   99.59   19.10
  13  -2   3   94.09   19.30
 -13   2  -3   84.29   14.60
 -13   2  -3   86.19   14.50
  13   2   3   70.89   16.30
  13   2   3   62.89   13.20
  13  -3  -3    2.60   11.90
  13  -3  -3   28.90   13.80
  13  -3  -3   58.99   15.10
  13   3  -3   61.19   15.90
 -13   3   3    8.90   16.00
 -13   3   3   33.30   14.20
  12  -3  -3   53.79   18.20
  12  -3  -3   64.79   14.80
  12  -3  -3   61.79   29.50
  12   3  -3   73.09   16.50
 -12   3   3   60.79   15.90
 -12   3   3   78.09   17.80
  11  -3  -3   81.49   15.80
  11  -3  -3  142.39   23.10
  11  -3  -3   92.99   24.10
 -11   3   3  121.59   21.50
 -11   3   3  128.59   20.30
  11   3  -3  128.59   21.10
  10  -3  -3  269.87   44.80
  10  -3  -3  252.37   32.20
  10  -3  -3  243.28   34.80
  10   3  -3  395.06   65.59
 -10   3   3  355.76   44.90
 -10   3   3  285.07   32.40
 -10   3   3  305.17   49.30
 -10   3   3  255.47   38.90
   9  -3  -3   18.30   18.60
   9  -3  -3   43.50   31.30
   9  -3  -3    9.90   26.60
   9  -3  -3   11.40   17.90
   9   3  -3   10.50   17.40
  -9   3   3   36.00   33.90
  -9   3   3   47.70   28.00
   9   3  -3  -37.40   34.00
   9   3  -3   14.70   22.90
  -9   3   3   -9.30   19.90
  -9   3   3   13.10   20.10
   8  -3  -3  231.48   40.30
   8  -3  -3  165.78   25.00
   8  -3  -3  289.57   50.99
   8  -3  -3  239.78   36.60
   8  -3  -3  187.38   27.20
   8  -3  -3  239.58   27.40
  -8   3   3  219.48   37.30
  -8   3   3  224.78   34.60
   8   3  -3  188.48   30.50
   8   3  -3  198.98   29.00
  -8   3   3  214.78   27.60
   8   3  -3  231.88   42.80
  -8   3   3  227.08   42.60
   7  -3  -3  233.98   25.60
   7  -3  -3  319.97   38.20
   7  -3  -3  296.37   48.50
   7  -3  -3  289.77   48.00
   7  -3  -3  282.47   35.30
   7  -3  -3  266.77   25.80
   7  -3  -3  298.57   26.30
   7   3  -3  306.57   29.50
  -7   3   3  297.57   35.00
  -7   3   3  293.97   31.80
   7   3  -3  283.67   42.60
  -7   3   3  323.87   50.99
  -7   3   3  279.37   46.90
   6  -3  -3   96.19   51.09
   6  -3  -3   68.49   29.40
   6  -3  -3   74.29   12.50
   6  -3  -3   77.79   21.90
   6  -3  -3  103.19   15.40
   6   3  -3   37.60   16.70
  -6   3   3   30.90   31.50
  -6   3   3  102.99   16.50
  -6   3   3   77.99   23.60
   5  -3  -3   26.90   12.40
   5  -3  -3   12.60   80.39
   5  -3  -3  -80.49   68.19
   5  -3  -3   14.10   10.70
   5  -3  -3   26.10   13.00
   5  -3  -3   15.00   27.40
   5  -3  -3   19.80   22.30
  -5   3   3    4.70   32.20
  -5   3   3   42.30   12.90
   5   3  -3   -5.50   14.50
  -5   3   3   19.90   25.20
  -5   3   3   23.20   55.49
  -5   3   3   30.70   17.10
   4  -3  -3  102.59   35.70
   4  -3  -3   63.59   39.30
   4  -3  -3   91.49   18.20
   4  -3  -3   84.29   14.50
   4  -3  -3   93.59   14.80
   4  -3  -3   90.09   28.80
  -4   3   3   85.09   20.90
   4   3  -3   84.29   17.60
  -4   3   3   89.49   32.40
  -4   3   3   97.79   13.60
  -4   3   3   40.60   48.50
  -4   3   3  142.09   31.00
   3  -3  -3  176.08   17.20
   3  -3  -3  172.68   32.40
   3  -3  -3  151.78   72.59
  -3   3   3  175.58   26.00
  -3   3   3  264.47   43.10
   3   3  -3  257.27   46.10
  -3   3   3  200.28   17.80
   3   3  -3  234.48   29.30
   2  -3  -3  272.27   21.00
   2  -3  -3  219.98   30.60
   2  -3  -3  297.37   26.70
  -2  -3   3  230.38   26.80
   2   3  -3  258.27   43.10
   1  -3  -3  490.65   29.80
   1  -3  -3  452.85   33.90
  -1  -3   3  524.15   41.70
   1  -3  -3  498.75   41.80
   1   3  -3  537.75   47.00
   0  -3   3  214.48   22.70
   0  -3  -3  171.28   25.70
   0  -3   3  159.38   28.80
   0  -3  -3  292.97   32.30
   0  -3  -3  260.57   26.00
   0   3  -3  192.98   37.30
   1  -3   3 1083.29   49.40
   1  -3   3 1066.29   60.39
  -1  -3  -3 1184.18   67.79
   1  -3   3 1159.28   71.99
  -1   3  -3 1210.38   67.69
  -2  -3  -3  149.88   26.40
   2  -3   3  130.59   37.60
   2  -3   3  166.28   22.90
   2  -3   3  148.59   15.10
  -2   3  -3  154.18   31.30
   3  -3   3  632.44   29.10
   3  -3   3  632.84   63.19
   3  -3   3  593.34   37.80
   3  -3   3  560.24   77.19
   3  -3   3  630.24   36.90
   3   3   3  451.15   77.29
  -3   3  -3  603.24   51.29
   3   3   3  614.54   56.49
  -3   3  -3  529.55   43.80
  -3   3  -3  555.24   66.29
   3   3   3  581.04   68.59
   4  -3   3  494.85   35.40
   4  -3   3  477.15   53.39
   4  -3   3  340.57   60.79
   4  -3   3  518.15   31.40
   4  -3   3  560.64   27.20
   4  -3   3  577.24   44.20
   4   3   3  427.96   80.49
   4   3   3  574.74   69.19
  -4   3  -3  499.55   49.60
   4   3   3  656.63   48.10
  -4   3  -3  500.85   80.39
  -4   3  -3  543.85   58.09
   4   3   3  512.95   55.09
  -4   3  -3  552.04   29.20
  -4   3  -3  557.64   45.50
   5  -3   3 1147.79  107.39
   5  -3   3  970.90   52.99
   5  -3   3 1055.59   57.19
   5  -3   3 1049.09   45.40
   5  -3   3 1000.50   47.10
   5  -3   3 1121.19   66.69
   5   3   3 1049.79   61.29
   5   3   3  788.92   94.49
  -5   3  -3 1045.40   48.80
  -5   3  -3 1037.30   65.89
   5   3   3 1039.30   66.29
  -5   3  -3 1097.79   56.79
  -5   3  -3 1021.30   66.69
   6  -3   3  175.98   45.60
   6  -3   3  139.79   28.60
   6  -3   3  144.89   27.80
   6  -3   3  137.99   16.70
   6  -3   3  103.99   18.40
   6  -3   3  142.49   19.40
   6   3   3  144.69   43.10
  -6   3  -3  128.19   31.10
   6   3   3   96.59   51.59
  -6   3  -3  117.89   18.60
   7  -3   3  605.44   38.10
   7  -3   3  609.64   41.70
   7  -3   3  628.34   51.49
   7  -3   3  545.45   31.60
   7  -3   3  577.74   47.30
   7  -3   3  600.54   65.99
   7  -3   3  536.35   50.29
   7   3   3  589.14   45.80
  -7   3  -3  517.55   46.40
  -7   3  -3  595.64   45.80
  -7   3  -3  569.04   44.80
   7   3   3  540.35   54.69
   8  -3   3  157.08   30.80
   8  -3   3  195.48   34.60
   8  -3   3  169.38   25.90
   8  -3   3  188.78   27.90
   8  -3   3  225.88   33.60
   8  -3   3  111.69   24.00
   8   3   3  150.08   31.80
   8   3   3  152.58   24.30
  -8   3  -3  191.78   27.90
  -8   3  -3  197.38   28.20
  -8   3  -3  142.79   26.90
  -8   3  -3  192.68   27.40
   9  -3   3   11.10   16.00
   9  -3   3   37.90   29.20
   9  -3   3   54.69   21.60
   9  -3   3   50.99   27.90
   9  -3   3   39.00   21.50
   9   3   3   -2.10   23.10
  -9   3  -3   36.20   19.80
   9   3   3   21.90   17.60
  -9   3  -3   58.59   33.20
  -9   3  -3   35.50   21.70
  -9   3  -3   33.80   42.70
  10  -3   3   69.89   25.40
  10  -3   3   35.10   17.10
  10  -3   3    8.80   20.30
  10  -3   3   53.99   23.90
 -10   3  -3   40.10   20.80
  10   3   3   35.30   19.30
 -10   3  -3   48.60   18.90
  10   3   3   17.00   16.20
  11  -3   3   14.20   16.10
  11  -3   3    7.10   19.20
  11  -3   3   24.90   17.40
 -11   3  -3   17.70   15.70
  11   3   3   12.70   17.40
 -11   3  -3   17.90   19.30
  11   3   3   19.40   14.80
  12  -3   3   10.10   14.70
  12  -3   3   -7.30   16.80
  12  -3   3   43.60   19.30
  12  -3   3   44.80   16.10
  12   3   3   15.80   23.20
  12   3   3   39.80   12.60
 -12   3  -3   25.20   11.60
  11  -4  -3   44.60   17.40
  11  -4  -3   30.20   14.30
  11  -4  -3   39.00   19.20
 -11   4   3   42.70   13.20
  10  -4  -3   46.10   20.50
  10  -4  -3   28.70   14.80
  10  -4  -3    8.70   23.70
  10  -4  -3   36.10   15.90
 -10   4   3   19.60   14.00
   9  -4  -3  -18.70   20.70
   9  -4  -3   -0.20   15.80
   9  -4  -3   18.30   16.00
   9  -4  -3   26.60   30.60
  -9   4   3    4.80   23.60
  -9   4   3  -14.60   16.70
   8  -4  -3   98.19   24.40
   8  -4  -3   35.40   41.40
   8  -4  -3   96.49   24.70
   8  -4  -3  145.49   22.20
   8  -4  -3  111.09   12.90
  -8   4   3   90.99   20.80
   8   4  -3  123.79   17.30
  -8   4   3   99.29   38.90
   7  -4  -3  799.72   40.20
   7  -4  -3  811.42   87.79
   7  -4  -3  756.02   47.10
   7  -4  -3  734.33   58.29
   7  -4  -3  774.32   37.40
   7  -4  -3  784.52   47.70
   7  -4  -3  681.83   50.59
  -7   4   3  751.52   58.79
   7   4  -3  729.13   39.70
  -7   4   3  755.32   50.79
   6  -4  -3  429.36   44.70
   6  -4  -3  509.25   40.40
   6  -4  -3  496.45   52.99
   6  -4  -3  478.15   30.10
  -6   4   3  554.04   46.30
  -6   4   3  504.15   50.19
   6   4  -3  478.55   31.90
   5  -4  -3  183.78   20.10
   5  -4  -3  199.48   34.40
   5  -4  -3  185.68   23.20
   5  -4  -3  185.18   25.00
   5  -4  -3  145.89   24.70
  -5   4   3  123.09   27.00
   5   4  -3  190.38   23.90
  -5   4   3  166.78   27.70
   4  -4  -3  242.38   28.60
   4  -4  -3  200.58   22.00
   4  -4  -3  242.98   26.30
   4  -4  -3  200.88   26.90
   4  -4  -3  282.87   48.80
  -4   4   3  231.98   31.90
  -4   4   3  260.47   32.20
  -4   4   3  326.57   41.10
  -4   4   3  255.07   40.50
   4   4  -3  295.77   26.30
   3  -4  -3  148.79   24.50
   3  -4  -3  150.78   18.20
   3  -4  -3  123.39   19.90
   3  -4  -3  154.98   33.40
   3   4  -3  132.59   27.10
  -3   4   3   64.39   33.90
  -3   4   3  181.88   47.10
  -3   4   3  123.19   21.70
  -3   4   3  130.29   26.40
   3   4  -3  118.09   17.70
   2  -4  -3   41.10   23.80
   2  -4  -3   21.00   11.20
   2  -4  -3    4.40   18.40
   2  -4  -3   74.49   33.40
   2  -4  -3   35.80   28.50
  -2   4   3   24.40   33.80
  -2   4   3   41.90   50.79
  -2   4   3   22.70   30.60
   2   4  -3   14.70   24.20
   2   4  -3   27.20   23.00
   1  -4  -3  229.58   45.80
   1  -4  -3  189.68   20.60
  -1  -4   3  163.58   19.00
   1  -4  -3  204.28   29.70
   1   4  -3  197.48   30.10
   1   4  -3  154.18   24.60
  -1   4   3  190.18   27.90
  -1   4   3  211.78   29.40
  -1   4   3  174.58   35.70
   0  -4  -3   52.59   14.00
   0  -4   3   48.40   12.60
   0   4   3   20.60   20.10
   0   4  -3   23.90   20.60
   0   4   3   35.50   29.50
   0   4   3   87.09   25.80
   0   4  -3   26.70   16.70
  -1  -4  -3  102.19   17.60
   1  -4   3   98.49   16.70
   1  -4   3   79.79   39.40
   1  -4   3  100.59   23.00
   1   4   3  140.69   48.10
  -1   4  -3  115.39   25.20
   1   4   3   78.89   22.80
   1   4   3   69.19   36.60
   2  -4   3  480.85   26.60
   2  -4   3  387.76   53.59
  -2  -4  -3  397.46   37.50
   2   4   3  462.65   42.50
   2   4   3  480.75   44.80
  -2   4  -3  539.45   41.10
   2   4   3  514.55   61.89
   2   4   3  530.75   55.89
  -2   4  -3  462.55   35.30
   3  -4   3  150.68   22.30
   3  -4   3   96.99   28.20
   3  -4   3  121.69   15.90
   3  -4   3  114.59   29.20
  -3   4  -3  124.79   22.90
   3   4   3  128.69   23.60
   3   4   3  137.49   25.20
   3   4   3  128.99   38.70
  -3   4  -3  136.69   22.40
   3   4   3  166.38   31.20
   4  -4   3  274.97   19.20
   4  -4   3  254.67   23.10
   4  -4   3  266.07   45.00
   4  -4   3  236.98   36.00
   4  -4   3  218.18   35.20
   4   4   3  252.87   45.10
   4   4   3  306.77   36.10
  -4   4  -3  216.88   35.70
  -4   4  -3  270.87   35.70
  -4   4  -3  232.88   32.20
   4   4   3  272.57   41.20
   5  -4   3   53.29   18.90
   5  -4   3  114.79   17.80
   5  -4   3   96.69   32.20
   5  -4   3   82.89   11.90
   5  -4   3   67.29   26.70
   5   4   3   85.79   27.90
   5   4   3   54.69   23.60
  -5   4  -3   72.49   29.50
  -5   4  -3   96.59   22.50
  -5   4  -3  110.09   21.80
   6  -4   3  188.58   31.20
   6  -4   3  205.38   20.30
   6  -4   3  175.98   28.20
   6  -4   3  219.18   30.00
   6  -4   3  177.18   18.50
   6   4   3  224.88   30.90
  -6   4  -3  144.69   23.70
  -6   4  -3  148.79   23.70
  -6   4  -3  185.78   28.40
   6   4   3  182.98   28.80
   7  -4   3   52.29   17.70
   7  -4   3   51.39   11.10
   7  -4   3   61.69   41.60
   7  -4   3   87.79   83.09
   7  -4   3   53.19   21.90
   7  -4   3   75.59   18.20
   7   4   3   50.29   21.20
  -7   4  -3   77.59   33.80
  -7   4  -3   33.10   17.10
   7   4   3   63.49   22.80
  -7   4  -3   50.19   21.60
   8  -4   3   72.19   16.70
   8  -4   3   92.99   35.30
   8  -4   3  123.09   22.80
   8  -4   3   86.49   20.60
  -8   4  -3   89.29   20.10
   8   4   3   82.89   22.10
   8   4   3   94.89   23.10
  -8   4  -3   90.79   21.80
   9  -4   3   64.09   17.90
   9  -4   3   48.60   16.60
   9  -4   3   35.90   23.80
   9  -4   3   47.30   29.40
   9   4   3   49.30   18.20
  -9   4  -3   44.20   18.70
   9   4   3   66.59   19.70
  -9   4  -3   37.90   15.50
  10  -4   3  158.38   22.70
  10  -4   3  188.08   27.70
  10  -4   3  188.48   25.40
 -10   4  -3  167.18   25.90
 -10   4  -3  197.38   26.30
  10   4   3  182.28   29.70
  10   4   3  185.78   26.20
  11  -4   3  127.39   21.20
  11  -4   3   82.09   19.60
 -11   4  -3   93.59   16.20
  11   4   3  123.69   19.00
   9  -5  -3  145.19   22.70
  -9   5   3   75.29   12.30
  -9   5   3   97.49   14.10
   8  -5  -3   -3.90   11.30
   8  -5  -3   -4.60   14.10
  -8   5   3    7.30   11.70
  -8   5   3   -4.00   13.40
   7  -5  -3   74.99   14.70
   7  -5  -3   80.39    9.60
   7  -5  -3  103.09   20.60
   7   5  -3  106.59   13.90
  -7   5   3   78.09   17.40
   6  -5  -3   85.89   22.10
   6  -5  -3  120.29   18.20
   6  -5  -3   85.19   14.30
  -6   5   3   92.69   19.70
   6   5  -3   81.79   13.40
  -6   5   3   91.19   21.00
   5  -5  -3   25.10   11.10
   5  -5  -3   20.20   15.90
   5  -5  -3    2.90   22.30
   5  -5  -3    1.00    8.60
  -5   5   3   15.20   18.20
   5   5  -3   36.50   12.30
  -5   5   3   29.00   21.30
   4  -5  -3  375.36   25.60
   4  -5  -3  348.37   24.30
  -4   5   3  382.16   41.80
  -4   5   3  286.87   39.90
   4   5  -3  346.87   30.10
   3  -5  -3  578.64   58.69
   3  -5  -3  621.14   34.00
   3  -5  -3  603.04   36.00
   3   5  -3  595.04   34.10
  -3   5   3  651.53   60.19
  -3   5   3  626.34   42.40
  -3   5   3  577.94   45.00
   2  -5  -3   12.00   12.30
   2  -5  -3    1.10   13.30
  -2  -5   3   24.50   14.10
   2  -5  -3   -9.80   32.00
  -2   5   3    0.30   16.40
   2   5  -3    7.30   13.10
  -2   5   3   10.30   15.90
   2   5  -3  -19.40   20.70
  -2   5   3   32.80   21.20
  -2   5   3  -26.00   29.70
  -1  -5   3  371.46   26.10
   1  -5  -3  341.47   44.10
   1  -5  -3  329.47   27.10
  -1   5   3  344.07   41.50
  -1   5   3  341.37   36.30
  -1   5   3  347.97   33.60
   1   5  -3  355.16   27.50
   1   5  -3  271.77   36.40
   0  -5  -3  312.77   40.70
   0  -5   3  379.96   32.90
   0  -5   3  379.46   24.80
   0  -5  -3  358.96   28.10
   0   5   3  329.67   32.40
   0   5   3  330.87   38.10
   0   5  -3  336.27   28.80
   0   5  -3  311.97   36.80
   1  -5   3  376.46   56.09
   1  -5   3  375.66   43.60
   1  -5   3  389.76   24.70
  -1  -5  -3  360.06   29.00
   1  -5   3  389.56   30.00
   1   5   3  391.96   33.40
  -1   5  -3  330.37   36.40
   1   5   3  397.16   39.40
  -1   5  -3  350.46   29.80
   2  -5   3  161.68   21.80
   2  -5   3  184.58   25.00
  -2  -5  -3  192.48   27.20
   2  -5   3  188.38   30.30
   2  -5   3  153.38   17.30
   2   5   3  142.49   18.90
   2   5   3  186.28   34.20
  -2   5  -3  124.39   21.90
  -2   5  -3  135.09   18.10
  -3  -5  -3   31.50   21.00
   3  -5   3   75.79   12.20
   3  -5   3   86.79   24.90
   3  -5   3   69.99   10.90
   3   5   3   65.19   19.70
  -3   5  -3   60.69   18.60
   3   5   3   97.29   27.70
  -3   5  -3   49.00   15.50
   4  -5   3  154.28   20.90
   4  -5   3  118.89   19.80
   4  -5   3  142.09   25.90
   4  -5   3  156.68   17.40
  -4   5  -3  140.09   28.10
   4   5   3  169.08   23.60
   4   5   3  185.68   32.40
  -4   5  -3  133.09   19.00
   5  -5   3  134.89   22.40
   5  -5   3  180.08   16.90
   5  -5   3  151.58   16.60
   5  -5   3  146.59   27.80
   5   5   3  173.28   31.00
  -5   5  -3  176.38   23.70
  -5   5  -3  111.29   19.30
   6  -5   3    4.30   15.60
   6  -5   3   13.10   13.70
   6  -5   3   23.10   15.90
   6  -5   3   11.80    7.80
   6   5   3   -8.10   15.00
  -6   5  -3    9.60   13.60
  -6   5  -3    6.00   13.40
   7  -5   3  104.39   16.10
   7  -5   3  146.59   25.20
   7  -5   3  104.19   16.00
   7  -5   3   78.29   15.30
  -7   5  -3  111.09   17.90
   7   5   3  130.89   20.50
  -7   5  -3  106.59   18.90
   8  -5   3   63.69   13.10
   8  -5   3   46.70   18.10
   8  -5   3   59.09   14.70
  -8   5  -3   50.89   13.20
   9  -5   3  493.25   29.20
   5  -6  -3  -10.40   10.00
   5  -6  -3   -9.60   14.80
   5  -6  -3   -2.90    5.60
   5   6  -3    4.50    9.70
  -5   6   3    1.00    7.60
   4  -6  -3   94.49   20.90
   4  -6  -3   64.99    9.80
  -4   6   3   67.39   10.40
   4   6  -3  104.99   12.90
   3  -6  -3   44.70   23.60
   3  -6  -3   56.39   13.40
   3  -6  -3   35.30    7.90
   3  -6  -3   41.70    9.20
  -3   6   3   41.80   10.10
   3   6  -3   42.20    8.50
   2  -6  -3   45.60   29.50
   2  -6  -3    8.00   13.10
   2  -6  -3   37.50    9.50
  -2  -6   3   23.10   11.50
   2  -6  -3   14.40    7.40
   2   6  -3   22.00    8.00
  -2   6   3   32.20   10.70
   1  -6  -3   32.70    9.40
   1  -6  -3   36.50   10.10
  -1  -6   3   11.00   11.30
  -1  -6   3   28.70    9.50
  -1   6   3   16.50   10.20
   1   6  -3   36.10    9.00
   0  -6   3   82.29   10.30
   0  -6  -3   93.39   12.50
   0  -6   3   67.29   10.40
   0  -6  -3   64.59   11.30
   0   6   3   81.59   11.80
   0   6  -3   67.89    9.50
   0   6   3   60.29   15.60
  -1  -6  -3   -7.20   11.60
   1  -6   3   15.50    8.20
   1  -6   3    4.20    7.80
  -1  -6  -3  -18.40   10.50
  -1   6  -3    5.60    7.90
  -1   6  -3   16.30   18.60
   1   6   3   13.80   16.50
   1   6   3   10.30   10.50
  -2  -6  -3  101.29   16.40
   2  -6   3  149.39   14.30
   2  -6   3  158.18   25.80
   2  -6   3  122.89   13.40
  -2  -6  -3  129.99   16.40
   2   6   3  162.88   25.20
  -2   6  -3  128.39   14.90
   2   6   3  124.89   14.10
  -2   6  -3  162.88   23.40
   3  -6   3   96.29   13.40
   3  -6   3   93.59   11.70
   3  -6   3   84.79   19.40
   3   6   3  166.08   29.40
  -3   6  -3   97.69   13.40
  -3   6  -3   97.19   16.00
   4  -6   3   16.60    7.90
   4  -6   3   26.40   13.90
   4  -6   3   35.70   15.60
  -4   6  -3   28.50   13.50
  -4   6  -3    6.90    8.30
   4   6   3   69.19   20.70
   5  -6   3  144.69   20.80
   5  -6   3   94.19   11.10
   5  -6   3  104.79   16.40
  -5   6  -3  129.49   19.10
  14   0  -4  252.77   36.30
 -14   0   4  165.08   24.30
  14   0  -4  232.88   34.90
  14   0  -4  233.38   24.30
 -14   0   4  246.38   27.30
 -13   0   4   26.70   17.70
  13   0  -4    6.60   20.70
 -13   0   4   53.49   15.40
  13   0  -4   53.19   20.40
  13   0  -4   55.29   17.70
 -12   0   4   73.69   27.00
  12   0  -4   25.70   25.00
  12   0  -4   35.00   42.30
 -12   0   4   49.50   16.00
  12   0  -4   46.70   31.80
  12   0  -4   48.70   18.50
  11   0  -4  113.89   28.40
  11   0  -4  139.39   27.10
  11   0  -4  141.49   24.40
 -11   0   4  140.49   20.80
  11   0  -4  124.09   31.40
  11   0  -4  150.48   25.30
 -11   0   4  259.27   42.40
 -10   0   4  -16.30   14.80
  10   0  -4  -28.50   24.60
  10   0  -4   -7.10   18.40
  10   0  -4  -25.40   25.70
  10   0  -4  -14.40   21.80
 -10   0   4   45.60   30.90
  10   0  -4  -15.30   20.40
  -9   0   4  517.35   34.10
   9   0  -4  495.55   41.10
   9   0  -4  522.05   52.29
   9   0  -4  481.35   47.10
   9   0  -4  493.05   46.90
   9   0  -4  469.45   38.00
  -9   0   4  470.15   67.69
   8   0  -4   -3.80   31.30
   8   0  -4  -24.10   19.60
   8   0  -4   28.50   25.90
   8   0  -4  -23.20   27.60
  -8   0   4   16.80   20.00
  -8   0   4  -61.89   50.39
   8   0  -4  -38.20   21.70
  -8   0   4   11.10   24.50
  -7   0   4 6961.60  269.27
  -7   0   4 6948.00  270.57
  -6   0   4  129.99   20.70
   6   0  -4  144.29   24.30
  -5   0   4  190.38   17.70
   4   0  -4   13.90    2.20
  -4   0   4   27.70   18.90
  -4   0   4    6.10    7.10
   4   0  -4   10.20    2.80
   4   0  -4    0.10   10.80
   3   0  -4 1472.65   57.49
   3   0  -4 1504.65   63.99
  -3   0   4 1473.35   59.79
  -3   0   4 1511.15   65.99
   3   0  -4 1487.85   57.49
   2   0  -4  708.33   27.70
   2   0  -4  683.13   34.20
  -2   0   4  699.03   34.20
  -2   0   4  666.53   29.80
   1   0  -4  532.65   28.90
  -1   0   4  538.75   24.50
  -1   0   4  538.45   27.60
   1   0  -4  520.45   22.20
   0   0  -4   40.20    5.40
   0   0   4   45.40    7.30
   0   0   4   48.60    9.80
   0   0  -4   36.10   10.60
   1   0   4 2550.74  103.09
  -1   0  -4 2454.35   96.19
  -1   0  -4 2555.64  103.49
   1   0   4 2473.35   98.09
   2   0   4   93.89   16.80
  -2   0  -4  109.69   16.30
   2   0   4   79.69   10.40
   3   0   4 3946.11  156.48
  -3   0  -4 3746.23  154.08
  -3   0  -4 3679.43  145.49
   3   0   4 3820.92  146.09
   4   0   4 2646.94   98.79
  -4   0  -4 2502.55  110.59
   4   0   4 2429.36  100.79
  -4   0  -4 2629.34   99.79
  -5   0  -4 2601.44  102.09
  -5   0  -4 2638.84  116.39
  -5   0  -4 2517.25  107.99
  -6   0  -4 3207.98  127.29
  -6   0  -4 3340.07  145.49
  -6   0  -4 3109.59  128.69
   7   0   4  550.54   51.19
   7   0   4  460.55   67.79
   7   0   4  641.94   47.50
  -7   0  -4  638.04   37.60
  -7   0  -4  572.74   69.79
  -7   0  -4  509.45   38.40
   7   0   4  574.44   54.29
  -8   0  -4 1475.15   68.69
   8   0   4 1454.65   80.29
   8   0   4 1469.75   78.09
   8   0   4 1442.06   75.39
   8   0   4 1501.15   74.09
  -8   0  -4 1405.36   80.49
  -8   0  -4 1465.85   65.59
   9   0   4   81.59   29.20
   9   0   4   40.40   25.40
   9   0   4   26.40   21.10
  -9   0  -4   45.10   23.90
   9   0   4   55.19   22.80
   9   0   4   42.70   24.20
  -9   0  -4   40.10   16.00
 -10   0  -4   -0.30   21.70
  10   0   4   63.29   29.40
  10   0   4   46.20   23.40
  10   0   4   18.10   23.60
 -10   0  -4   37.70   15.60
  10   0   4   17.00   22.40
  10   0   4   40.70   21.20
  11   0   4   31.30   21.20
  11   0   4   22.00   20.50
  11   0   4   25.70   21.90
 -11   0  -4   27.40   20.00
 -11   0  -4   10.10   15.50
 -11   0  -4   24.00   20.00
  11   0   4    8.90   20.50
  11   0   4   -5.50   25.70
  12   0   4   92.09   27.20
  12   0   4  123.79   22.70
 -12   0  -4  109.19   19.10
  12   0   4   80.69   40.30
  12   0   4  104.09   20.50
  12   0   4  119.99   21.80
 -12   0  -4  134.19   21.60
 -12   0  -4  120.99   17.50
 -13   0  -4  117.89   31.30
  13   0   4  162.38   26.90
 -13   0  -4  112.89   15.50
  13   0   4   81.09   27.70
  13   0   4   81.89   35.60
  14   0   4  128.19   22.30
 -14   0  -4   88.99   12.10
 -14  -1   4   70.59   17.60
  14  -1  -4   61.49   16.90
 -14  -1   4   82.39   16.00
  14  -1  -4   49.10   15.60
  14  -1  -4   33.00   18.60
 -14   1   4   78.99   13.20
 -14   1   4   66.69   17.30
  14   1  -4   62.19   13.20
  13  -1  -4  -10.70   18.20
 -13  -1   4   17.40   23.80
 -13  -1   4   18.10   22.40
  13  -1  -4    2.70   18.00
  13  -1  -4   19.50   17.30
  13  -1  -4   -3.80   15.80
 -13   1   4   18.10   21.80
  13   1  -4   16.00   24.10
 -13   1   4   14.00   14.30
 -13   1   4   30.50   15.00
  13   1  -4  -16.10   29.80
  13   1  -4    3.20   14.50
  12  -1  -4   32.60   26.20
  12  -1  -4   46.80   21.20
 -12  -1   4   54.09   16.90
 -12  -1   4   15.90   31.50
 -12   1   4   58.69   16.50
 -12   1   4   48.80   21.30
  12   1  -4   75.29   31.50
  12   1  -4   78.49   26.40
  11  -1  -4  180.88   29.70
  11  -1  -4  134.89   28.50
 -11  -1   4  172.68   23.10
  11  -1  -4  119.89   22.80
  11  -1  -4  161.08   24.70
 -11   1   4  192.98   27.40
  11   1  -4  197.78   35.60
  11   1  -4  100.69   26.90
  11   1  -4  160.78   24.90
  11   1  -4  301.47   52.49
 -11   1   4  189.98   48.40
 -11   1   4  132.09   21.90
 -11   1   4  203.08   27.50
 -10  -1   4  573.64   40.40
  10  -1  -4  624.44   44.20
  10  -1  -4  611.84   51.49
  10  -1  -4  523.75   52.49
  10  -1  -4  562.74   43.30
 -10   1   4  702.63   78.39
  10   1  -4  499.15   40.70
  10   1  -4  599.24   52.49
  10   1  -4  762.62   64.69
  10   1  -4  544.55   41.90
  10   1  -4  413.26   58.19
 -10   1   4  497.85   44.00
 -10   1   4  529.85   37.80
 -10   1   4  601.84   46.00
  -9  -1   4  237.68   33.10
   9  -1  -4  198.18   42.20
   9   1  -4  155.98   39.10
  -9   1   4  163.78   26.00
   9   1  -4  186.08   39.50
   9   1  -4  137.19   31.90
  -9   1   4  212.28   26.00
  -9   1   4  185.58   28.10
   9   1  -4  243.68   31.60
   8  -1  -4  506.75   49.99
   8  -1  -4  428.76   39.40
   8  -1  -4  484.85   35.40
   8  -1  -4  488.25   52.29
   8   1  -4  612.14   70.39
   8   1  -4  421.46   44.30
   8   1  -4  359.76   41.60
  -8   1   4  478.15   31.20
  -8   1   4  490.05   45.70
   8   1  -4  463.55   50.79
  -8   1   4  428.06   33.40
  -8   1   4  435.66   49.20
   8   1  -4  592.34   72.59
   8   1  -4  417.86   36.80
   7  -1  -4  155.78   42.60
   7  -1  -4  231.68   37.00
   7  -1  -4  198.18   36.20
   7  -1  -4  237.58   37.90
  -7   1   4  203.98   22.20
   7   1  -4  241.48   35.80
   7   1  -4  194.78   40.10
   6  -1  -4  812.72   56.89
   6  -1  -4  728.43   31.50
  -6   1   4  747.53   37.90
  -6   1   4  706.33   36.50
   5  -1  -4 1589.24   75.29
   5  -1  -4 1555.44   62.99
  -5   1   4 1565.74   65.79
   5   1  -4 1533.05   71.59
   5   1  -4 1693.83   81.79
   4  -1  -4   19.40    4.60
   4  -1  -4   15.10   13.80
  -4  -1   4   16.30   12.60
  -4  -1   4   32.00   17.30
   4   1  -4   31.80    8.10
  -4   1   4   13.70    6.50
   4   1  -4   18.20   13.90
  -3  -1   4  265.27   19.80
   3  -1  -4  259.67   22.20
   3  -1  -4  265.17   15.10
   3   1  -4  242.48   22.10
   3   1  -4  255.57   18.00
  -3   1   4  313.27   37.50
  -2  -1   4 4156.78  166.98
  -2  -1   4 4404.66  170.08
   2  -1  -4 4069.59  169.48
   2  -1  -4 4472.15  166.88
   2  -1  -4 4433.86  172.08
  -2   1   4 4448.06  175.18
  -2   1   4 4359.46  167.48
   2   1  -4 4411.86  170.88
   2   1  -4 4411.96  170.18
   1  -1  -4  847.32   38.20
  -1  -1   4  862.31   42.30
  -1  -1   4  865.31   37.60
   1  -1  -4  810.72   35.30
   1  -1  -4  864.71   41.00
  -1   1   4  879.71   42.70
   1   1  -4  843.92   38.90
   1   1  -4  885.21   42.20
  -1   1   4  886.21   36.30
   0  -1   4 1677.93   66.89
   0  -1   4 1665.43   72.59
   0  -1  -4 1555.94   69.39
   0  -1  -4 1697.43   64.59
   0   1   4 1554.44   69.29
   0   1   4 1664.33   64.89
   0   1  -4 1663.03   71.89
   0   1  -4 1615.24   68.69
   0   1  -4 1657.43   63.39
   1  -1   4 1412.46   67.89
   1  -1   4 1424.76   59.79
  -1  -1  -4 1337.87   62.29
  -1  -1  -4 1435.66   56.89
   1   1   4 1485.25   55.99
   1   1   4 1445.16   56.19
   1   1   4 1431.46   61.89
  -1   1  -4 1473.25   66.59
  -1   1  -4 1458.05   56.29
  -2  -1  -4   36.00    6.80
  -2  -1  -4   51.29   12.40
   2  -1   4   43.80    9.30
   2  -1   4   36.40   21.20
  -2   1  -4   46.80    7.10
   2   1   4   16.80   12.20
  -2   1  -4   62.99   19.10
   3  -1   4  337.07   20.60
  -3  -1  -4  321.67   27.40
  -3   1  -4  333.17   17.20
   3   1   4  376.76   50.49
  -3   1  -4  420.66   37.40
  -4  -1  -4  410.76   22.80
  -4  -1  -4  420.96   32.40
   4  -1   4  385.56   22.00
  -4   1  -4  428.46   39.60
  -4   1  -4  359.86   20.00
  -5  -1  -4  224.98   28.00
   5  -1   4  181.38   14.80
  -5   1  -4  262.87   35.60
  -5   1  -4  173.88   14.80
   6  -1   4  465.05   25.40
  -6  -1  -4  501.45   37.50
  -6  -1  -4  586.04   53.39
  -6   1  -4  449.16   29.90
  -6   1  -4  511.85   56.79
  -6   1  -4  540.35   35.60
   7  -1   4  277.37   64.59
   7  -1   4  266.37   41.50
  -7  -1  -4  266.87   30.40
   7  -1   4  244.48   17.10
   7  -1   4  275.27   37.90
   7  -1   4  253.17   35.40
  -7   1  -4  208.48   24.30
   7   1   4  260.37   34.50
  -7   1  -4  251.67   24.50
   7   1   4  258.27   37.90
   7   1   4  353.36   47.60
   7   1   4  261.47   38.80
  -7   1  -4  260.87   39.60
   7   1   4  226.98   39.40
   8  -1   4   31.90   23.70
  -8  -1  -4   15.90   16.50
   8  -1   4   28.60   21.70
   8  -1   4    4.00   20.80
  -8   1  -4    6.30   19.90
   8   1   4    8.70   30.70
   8   1   4   44.00   27.30
   8   1   4   24.30   23.30
   8   1   4   28.30   22.70
   8   1   4   61.89   33.20
   9  -1   4  599.54   51.89
   9  -1   4  630.94   45.20
  -9  -1  -4  576.34   40.20
   9  -1   4  616.24   50.49
  -9   1  -4  622.24   45.90
   9   1   4  597.44   53.39
   9   1   4  681.23   52.59
  -9   1  -4  561.64   48.10
   9   1   4  596.34   45.10
   9   1   4  603.04   64.89
  -9   1  -4  624.44   38.10
   9   1   4  598.14   52.59
 -10  -1  -4  -42.50   29.00
 -10  -1  -4    7.50   22.00
  10  -1   4   39.80   23.10
  10  -1   4   13.80   22.40
  10  -1   4   49.50   22.40
  10   1   4   32.50   21.70
  10   1   4   52.49   31.70
  10   1   4    1.30   19.30
 -10   1  -4   25.90   19.10
 -10   1  -4   46.10   20.00
 -10   1  -4   57.49   32.60
  10   1   4  -10.00   24.30
 -10   1  -4  -14.60   18.20
  11  -1   4   94.39   22.30
  11  -1   4  130.89   27.70
  11  -1   4   80.99   22.40
 -11  -1  -4  102.79   30.20
  11  -1   4  129.29   24.00
 -11  -1  -4  115.19   18.50
  11   1   4   94.69   20.40
  11   1   4  110.29   24.40
  11   1   4   87.79   44.80
 -11   1  -4   86.99   20.00
 -11   1  -4  113.29   18.40
  11   1   4   70.69   22.00
 -11   1  -4   98.39   19.30
  12  -1   4  172.58   30.00
 -12  -1  -4  138.99   18.70
 -12  -1  -4  127.19   22.50
  12  -1   4  110.29   21.70
  12  -1   4   95.99   21.00
  12  -1   4  100.49   24.20
  12   1   4  138.49   20.30
 -12   1  -4  145.79   19.40
  12   1   4  139.89   22.50
  12   1   4   98.19   31.70
 -12   1  -4  173.18   26.80
 -12   1  -4  206.68   29.60
 -13  -1  -4  110.49   17.70
  13  -1   4  133.89   19.60
  13  -1   4  125.59   22.90
  13  -1   4  115.09   26.90
 -13  -1  -4  149.69   23.40
  13  -1   4  112.99   18.30
 -13   1  -4  147.49   21.20
  13   1   4  111.59   17.40
 -13   1  -4  170.78   25.30
  13   1   4  132.89   17.00
 -13   1  -4  174.68   25.10
  14  -2  -4  236.38   20.60
  14  -2  -4  298.57   27.20
 -14   2   4  290.17   23.90
  14   2  -4  232.08   20.90
  13  -2  -4  158.68   23.20
  13  -2  -4  110.29   18.20
  13  -2  -4   99.49   16.40
 -13   2   4  106.69   27.80
 -13   2   4  121.59   20.00
 -13   2   4   92.99   15.40
 -13   2   4  133.99   22.90
  13   2  -4  128.19   17.20
  12  -2  -4   49.70   21.80
  12  -2  -4   32.40   14.80
 -12  -2   4   40.80   32.00
  12  -2  -4    8.50   19.10
 -12   2   4   60.39   20.90
 -12   2   4   60.39   19.40
 -12   2   4   41.10   15.60
  12   2  -4   56.59   17.60
  11  -2  -4   66.69   32.60
  11  -2  -4  157.18   29.70
  11  -2  -4   75.79   35.80
  11  -2  -4   88.09   26.20
  11  -2  -4  105.69   20.50
  11   2  -4  107.99   34.70
  11   2  -4  102.99   22.50
 -11   2   4   69.99   18.10
 -11   2   4  118.59   21.60
  10  -2  -4  377.16   49.60
  10  -2  -4  482.15   39.50
  10  -2  -4  493.45   53.69
  10  -2  -4  457.65   52.89
  10   2  -4  442.56   49.30
 -10   2   4  508.35   40.00
 -10   2   4  530.35   39.80
 -10   2   4  505.75   41.20
  10   2  -4  540.95   36.20
 -10   2   4  477.15   54.39
  10   2  -4  468.85   42.40
   9  -2  -4   47.00   26.30
   9  -2  -4   26.30   27.60
   9  -2  -4    2.90   17.90
   9  -2  -4   25.50   27.50
   9  -2  -4   35.40   40.60
   9   2  -4   -0.10   17.20
  -9   2   4  -15.60   16.40
   9   2  -4   -4.30   35.50
   9   2  -4  -22.70   37.40
  -9   2   4  -18.80   23.80
   9   2  -4   13.70   23.70
  -9   2   4  -18.00   20.00
  -9   2   4    5.60   16.10
   8  -2  -4   36.40   10.00
   8  -2  -4   56.49   29.80
   8  -2  -4   44.60   36.60
   8  -2  -4   12.60   25.10
   8  -2  -4   10.90   31.40
  -8   2   4   17.90   16.30
   8   2  -4   20.50   17.40
  -8   2   4   38.40   20.90
  -8   2   4  145.09   58.59
   8   2  -4   88.69   39.50
   8   2  -4   48.70   25.40
  -8   2   4   27.10   15.20
  -8   2   4   50.99   23.00
   7  -2  -4  410.46   60.59
   7  -2  -4  419.96   36.30
   7  -2  -4  446.26   62.09
   7  -2  -4  515.45   52.59
   7  -2  -4  428.66   24.60
   7  -2  -4  411.76   77.39
   7  -2  -4  395.96   58.29
   7   2  -4  428.56   51.39
   7   2  -4  542.45   51.89
  -7   2   4  421.36   39.90
   7   2  -4  391.66   34.00
  -7   2   4  401.56   60.49
  -7   2   4  496.25   41.00
  -7   2   4  449.06   31.50
  -7   2   4  421.96   30.90
   6  -2  -4  392.06   33.50
   6  -2  -4  398.86   52.39
   6  -2  -4  366.26   59.89
   6  -2  -4  339.57   48.30
   6  -2  -4  368.26   27.20
   6  -2  -4  324.27   33.80
   6  -2  -4  344.57   21.10
  -6   2   4  305.07   24.90
  -6   2   4  374.96   36.30
  -6   2   4  305.27   27.50
  -6   2   4  402.46   39.70
   6   2  -4  339.67   33.20
   5  -2  -4  377.16   22.10
   5  -2  -4  403.26   49.80
   5  -2  -4  355.56   23.80
  -5   2   4  370.16   28.90
  -5   2   4  400.76   24.20
   4  -2  -4   41.00    7.90
   4  -2  -4   38.30   11.00
   4  -2  -4   24.70   20.30
  -4   2   4   18.80   18.10
   4   2  -4   64.59   18.30
  -4   2   4   26.00    7.60
   3  -2  -4 3896.61  157.08
   3  -2  -4 4175.28  166.18
  -3  -2   4 4047.59  156.18
   3  -2  -4 3871.71  162.98
   3   2  -4 4201.28  164.98
  -3   2   4 4025.10  157.08
   2  -2  -4   19.60    7.80
  -2  -2   4   42.60   16.00
   2  -2  -4    5.60   15.50
   2  -2  -4   11.50   12.40
  -2   2   4   15.20    6.10
   2   2  -4   14.90   14.40
   2   2  -4   13.10   11.30
   1  -2  -4  329.47   20.30
  -1  -2   4  344.97   33.00
  -1  -2   4  388.26   38.70
   1  -2  -4  304.97   26.20
  -1   2   4  362.36   17.80
   1   2  -4  284.87   31.30
   1   2  -4  318.17   26.50
   0  -2   4  311.47   44.70
   0  -2  -4  331.57   20.90
   0  -2  -4  337.47   25.90
   0   2  -4  350.66   26.90
   0   2  -4  330.97   34.90
   1  -2   4 1155.48   78.39
  -1  -2  -4 1127.19   49.30
   1  -2   4 1138.69   53.79
  -1  -2  -4 1124.19   54.79
  -1   2  -4 1154.88   56.29
  -1   2  -4 1171.08   62.99
  -1   2  -4 1182.18   45.30
  -1   2  -4 1109.89   49.80
  -2  -2  -4 1905.71   76.99
   2  -2   4 1717.53   73.79
   2  -2   4 1877.71   78.69
  -2  -2  -4 1814.12   81.09
  -2   2  -4 1869.61   83.79
  -2   2  -4 1830.22   91.09
  -2   2  -4 1917.41   73.09
  -3  -2  -4  580.54   38.30
   3  -2   4  578.24   32.30
  -3   2  -4  601.34   55.29
  -3   2  -4  566.34   26.60
   4  -2   4 1934.41   82.19
   4  -2   4 1895.11   77.99
  -4  -2  -4 1963.70   86.29
  -4   2  -4 2025.40  107.99
  -4   2  -4 1989.80   92.69
   5  -2   4  204.08   32.90
   5  -2   4  255.17   22.40
   5  -2   4  227.58   17.70
  -5  -2  -4  300.27   37.00
   5  -2   4  303.17   38.20
   5  -2   4  243.68   25.20
  -5   2  -4  220.88   32.40
  -5   2  -4  226.78   26.60
  -5   2  -4  356.56   48.00
  -5   2  -4  272.37   19.10
  -5   2  -4  205.78   52.99
   5   2   4  225.18   32.80
   5   2   4  328.07   40.20
   6  -2   4  326.17   24.50
   6  -2   4  409.46   45.50
   6  -2   4  268.77   26.80
   6  -2   4  305.57   78.09
   6  -2   4  296.67   24.70
   6  -2   4  353.36   55.89
   6  -2   4  327.07   38.10
   6  -2   4  277.77   37.80
   6   2   4  340.27   34.10
  -6   2  -4  326.37   38.60
   6   2   4  342.37   46.30
  -6   2  -4  383.76   40.10
   6   2   4  342.47   65.99
  -6   2  -4  322.87   28.60
   6   2   4  215.58   46.90
  -6   2  -4  281.87   48.30
  -6   2  -4  305.67   22.90
  -6   2  -4  366.06   44.40
   7  -2   4   54.49   14.20
   7  -2   4   60.99   31.40
   7  -2   4  106.79   32.70
   7  -2   4   54.59   25.50
   7  -2   4   44.60   19.50
  -7   2  -4   62.99   16.70
  -7   2  -4   53.69   14.20
   7   2   4   61.89   23.30
   7   2   4   89.49   20.50
  -7   2  -4   61.69   19.80
  -7   2  -4   75.59   21.60
   7   2   4   70.49   39.40
  -7   2  -4   62.69   26.80
   8  -2   4  121.89   22.90
   8  -2   4   75.09   26.80
   8  -2   4  125.09   25.00
   8  -2   4   93.19   30.40
   8  -2   4   88.39   29.60
   8  -2   4  129.79   18.10
   8   2   4  122.89   27.00
  -8   2  -4  134.49   20.50
  -8   2  -4  118.59   19.50
   8   2   4  128.69   23.30
  -8   2  -4  133.19   23.00
  -8   2  -4  105.49   27.70
   8   2   4  116.39   39.00
  -8   2  -4  137.39   22.50
  -9  -2  -4  340.97   40.40
   9  -2   4  334.87   40.70
   9  -2   4  400.86   50.59
   9  -2   4  434.96   41.70
   9  -2   4  369.86   51.09
  -9   2  -4  402.96   36.00
   9   2   4  385.26   44.60
  -9   2  -4  374.46   38.20
  -9   2  -4  275.27   41.90
  -9   2  -4  383.46   38.00
  -9   2  -4  311.67   49.80
   9   2   4  407.96   36.90
 -10  -2  -4  251.47   39.00
  10  -2   4  282.47   41.60
  10  -2   4  244.48   37.10
 -10   2  -4  283.77   33.50
 -10   2  -4  216.78   33.40
 -10   2  -4  183.38   35.20
  10   2   4  239.98   40.80
 -10   2  -4  191.68   24.90
  10   2   4  196.78   24.80
 -10   2  -4  222.58   32.40
 -11  -2  -4  104.29   20.10
  11  -2   4   90.59   20.40
  11  -2   4  107.59   22.90
  11  -2   4   74.29   20.70
  11   2   4   59.89   16.70
 -11   2  -4  104.39   20.30
  11   2   4   71.19   19.50
 -11   2  -4  120.49   23.20
 -11   2  -4  100.59   17.90
  12  -2   4   58.59   17.30
  12  -2   4   15.00   16.90
  12  -2   4   42.90   17.80
  12  -2   4   44.90   18.10
 -12  -2  -4   44.40   17.70
 -12   2  -4   62.19   16.20
 -12   2  -4   47.50   14.10
  12   2   4    9.70   12.60
  12   2   4   44.10   14.70
  13  -2   4    9.90   14.90
  13  -2   4   20.40   14.30
  13  -2   4   -7.10   15.90
  13  -2   4   -9.10   15.20
  13   2   4   25.50   13.60
  13   2   4    9.20   11.70
 -13   2  -4    0.30   16.10
 -13   2  -4   21.60   12.80
  13  -3  -4   90.79   15.10
  13  -3  -4   68.39   12.80
 -13   3   4   83.49   15.20
  12  -3  -4    3.30   12.00
  12  -3  -4   -6.10   16.60
 -12   3   4    8.00   14.30
  12   3  -4   -5.80   17.40
 -12   3   4   -3.10   17.20
  11  -3  -4  134.69   25.50
  11  -3  -4  168.08   24.30
  11  -3  -4  123.99   24.30
 -11   3   4  104.59   20.70
  11   3  -4  147.69   22.30
 -11   3   4  155.98   39.60
 -11   3   4  115.79   22.70
  10  -3  -4  410.06   62.29
  10  -3  -4  547.25   44.40
  10  -3  -4  415.56   55.49
  10  -3  -4  447.16   52.29
  10   3  -4  390.76   42.40
  10   3  -4  341.27   34.80
 -10   3   4  502.65   71.49
 -10   3   4  476.35   41.90
 -10   3   4  397.16   42.00
 -10   3   4  467.05   39.70
   9  -3  -4  137.39   23.50
   9  -3  -4  119.59   30.00
   9  -3  -4  104.59   33.60
   9  -3  -4  194.28   30.10
   9   3  -4  124.29   27.20
  -9   3   4  123.99   23.70
  -9   3   4   86.59   21.50
   9   3  -4  154.38   19.50
  -9   3   4  116.09   36.60
  -9   3   4  178.88   32.70
   8  -3  -4  591.54   45.40
   8  -3  -4  522.85   35.00
   8  -3  -4  468.15   62.59
   8  -3  -4  515.25   40.70
   8  -3  -4  599.74   58.49
  -8   3   4  563.34   48.50
   8   3  -4  510.35   56.79
   8   3  -4  549.35   35.50
  -8   3   4  572.04   44.20
  -8   3   4  573.64   45.90
  -8   3   4  501.25   67.09
   7  -3  -4   54.39   21.80
   7  -3  -4   -2.20   11.90
   7  -3  -4   24.20   12.80
   7  -3  -4   38.20   15.40
   7  -3  -4   22.90   41.00
   7  -3  -4   -0.80   18.50
   7  -3  -4   10.00   28.10
   7   3  -4   23.90   36.00
  -7   3   4   22.10   21.20
   7   3  -4   28.40   15.50
  -7   3   4   15.00   33.20
  -7   3   4    5.30   25.00
  -7   3   4   19.20   17.50
   6  -3  -4   68.29   20.00
   6  -3  -4   20.60   48.00
   6  -3  -4   49.20   12.30
   6  -3  -4    6.20   12.30
   6  -3  -4   16.00   26.90
   6  -3  -4   25.50   13.50
  -6   3   4   48.30   16.20
  -6   3   4   34.00   21.70
  -6   3   4   22.00   34.00
   6   3  -4   16.20   15.10
   5  -3  -4  135.39   18.50
   5  -3  -4  192.18   34.20
   5  -3  -4  238.08   71.29
   5  -3  -4  141.69   24.20
   5  -3  -4  184.28   21.50
   5  -3  -4  189.38   25.20
  -5   3   4  155.38   27.60
  -5   3   4  158.58   35.00
  -5   3   4  211.28   31.40
   5   3  -4  152.48   23.50
  -5   3   4  193.18   56.59
  -5   3   4  157.88   23.00
   4  -3  -4   30.00   17.40
   4  -3  -4   12.20   12.20
   4  -3  -4   43.60   32.70
   4  -3  -4   18.50    9.80
   4  -3  -4    0.90   38.00
   4  -3  -4   50.29   24.60
  -4   3   4  -30.00   44.80
  -4   3   4   16.70   11.80
   4   3  -4   25.90   15.30
   4   3  -4   16.70   28.00
  -4   3   4    9.50   29.60
  -4   3   4   42.50   19.30
  -4   3   4   64.29   28.70
   3  -3  -4   46.40   11.70
   3  -3  -4   59.09   30.60
   3  -3  -4   57.59   12.70
   3  -3  -4   27.00   21.10
   3  -3  -4   52.49   36.50
   3   3  -4   40.70   16.50
  -3   3   4   21.90   10.70
  -3   3   4  -12.50   39.30
   3   3  -4   53.49   30.00
  -3   3   4   61.39   27.70
  -3   3   4   22.90   20.20
  -2  -3   4  706.53   45.90
   2  -3  -4  637.24   54.59
   2  -3  -4  704.13   35.50
   2  -3  -4  628.04   38.50
   2   3  -4  728.73   39.90
   2   3  -4  816.22   59.99
  -2   3   4  723.03   49.50
  -2   3   4  672.73   72.09
   1  -3  -4  389.26   30.90
   1  -3  -4  383.76   44.30
  -1  -3   4  419.46   48.10
   1  -3  -4  387.06   26.50
   1   3  -4  374.26   47.00
   0  -3  -4 1643.94   81.39
   0  -3  -4 1508.55   69.59
   0  -3   4 1595.64   67.29
   0  -3  -4 1691.53   73.39
   0  -3   4 1644.64   89.29
   0  -3   4 1586.94   88.09
   0   3  -4 1574.74   84.19
  -1  -3  -4 1174.98   58.79
  -1  -3  -4 1146.99   70.19
   1  -3   4 1214.98   65.09
   1  -3   4 1175.88   82.49
   1  -3   4 1251.67   51.89
  -1   3  -4 1260.17   75.29
   1   3   4 1218.08   98.39
   2  -3   4  858.61   77.79
  -2  -3  -4  893.41   63.19
   2  -3   4  834.32   37.40
   2  -3   4  873.81   50.39
   2   3   4  816.32   78.59
  -2   3  -4  812.52   66.59
  -2   3  -4  773.72   52.59
  -2   3  -4  909.31   54.29
   2   3   4  819.22   57.79
   2   3   4  651.23   76.49
   3  -3   4  197.58   24.80
   3  -3   4  274.47   41.50
   3  -3   4  220.48   36.40
   3  -3   4  195.78   15.60
   3  -3   4  214.38   51.49
   3  -3   4  219.38   28.90
   3   3   4  147.39   46.40
  -3   3  -4  120.29   37.50
   3   3   4  154.08   30.40
  -3   3  -4  172.48   25.00
  -3   3  -4  183.88   29.00
   3   3   4  152.38   43.50
   3   3   4  244.58   32.70
  -3   3  -4  173.78   34.50
   4  -3   4   59.79   21.20
   4  -3   4   67.89   12.50
   4  -3   4   57.19    9.00
   4  -3   4   58.99   27.40
   4  -3   4   87.89   18.90
  -4   3  -4  101.69   29.10
  -4   3  -4   27.90   24.40
   4   3   4   96.69   26.50
  -4   3  -4   61.69   23.00
   4   3   4   57.99   27.80
   4   3   4  108.99   46.30
   4   3   4   10.70   53.59
   5  -3   4  610.44   41.50
   5  -3   4  703.83   86.89
   5  -3   4  622.04   30.90
   5  -3   4  614.34   53.49
   5  -3   4  649.93   32.90
   5  -3   4  635.64   42.70
  -5   3  -4  727.33   48.50
  -5   3  -4  604.74   45.80
  -5   3  -4  632.74   36.10
   5   3   4  653.23   54.39
  -5   3  -4  558.34   51.89
   5   3   4  495.45   78.69
   5   3   4  712.73   46.40
   6  -3   4  211.48   65.59
   6  -3   4  167.78   19.40
   6  -3   4  169.48   27.90
   6  -3   4  145.09   18.10
   6  -3   4  194.68   30.10
   6  -3   4  154.88   22.30
  -6   3  -4  172.88   27.80
   6   3   4  170.08   30.20
   6   3   4  228.98   35.10
  -6   3  -4  150.88   25.80
  -6   3  -4  171.68   26.90
   7  -3   4   42.00   12.40
   7  -3   4   37.90   19.70
   7  -3   4   31.50   19.30
   7  -3   4   51.79   33.00
   7  -3   4  -26.80   40.10
   7  -3   4   22.20   22.10
  -7   3  -4   57.29   23.70
  -7   3  -4   31.00   20.70
  -7   3  -4   25.90   20.80
   7   3   4   45.60   20.90
   7   3   4    9.00   25.30
   8  -3   4   45.00   24.50
   8  -3   4   49.99   20.00
   8  -3   4   46.10   25.10
   8  -3   4   68.09   32.00
   8  -3   4   16.90   20.50
   8  -3   4   43.40   26.50
  -8   3  -4   41.50   20.00
   8   3   4   52.39   18.80
  -8   3  -4   36.80   19.90
   8   3   4   39.60   25.70
  -8   3  -4   43.60   25.90
   9  -3   4   64.19   22.00
   9  -3   4   87.39   27.70
   9  -3   4   62.79   19.80
  -9   3  -4   65.89   21.30
  -9   3  -4   64.89   20.80
   9   3   4   55.89   22.80
   9   3   4   82.39   19.50
  10  -3   4   28.90   23.50
  10  -3   4   26.10   22.10
  10  -3   4    8.40   16.00
  10  -3   4    8.70   21.90
 -10   3  -4   18.60   16.80
 -10   3  -4   18.00   20.40
  10   3   4   28.90   19.50
  10   3   4   18.90   14.50
  11  -3   4  104.09   18.70
  11  -3   4   63.39   28.00
  11  -3   4  106.89   20.80
  11   3   4   77.79   15.10
 -11   3  -4  113.69   33.10
 -11   3  -4   98.59   15.60
  11   3   4   98.79   17.30
  12  -3   4   16.50   15.10
  12  -3   4   41.90   18.00
  12  -3   4  -10.90   17.30
  12   3   4   16.50   14.50
  12   3   4    7.00   13.00
 -12   3  -4   16.70   12.90
  11  -4  -4    1.30   18.20
  11  -4  -4   15.40   18.10
  11  -4  -4   24.50   12.80
 -11   4   4   17.20   13.30
  10  -4  -4   86.09   18.40
  10  -4  -4   93.69   22.40
  10  -4  -4   82.49   15.80
  10  -4  -4   57.19   26.20
 -10   4   4   66.29   15.90
 -10   4   4   97.89   23.80
   9  -4  -4  145.49   24.80
   9  -4  -4  174.88   21.20
   9  -4  -4  105.79   34.00
   9  -4  -4  145.49   19.80
  -9   4   4  138.59   21.60
  -9   4   4  140.19   27.80
   9   4  -4  205.98   24.40
   8  -4  -4   52.39   12.10
   8  -4  -4   70.79   17.70
   8  -4  -4  117.59   42.10
   8  -4  -4   91.89   28.80
  -8   4   4   33.50   33.80
   8   4  -4   88.49   15.40
   7  -4  -4  317.17   23.80
   7  -4  -4  309.77   46.70
   7  -4  -4  304.87   39.00
   7  -4  -4  309.17   29.30
   7  -4  -4  323.57   54.19
   7  -4  -4  314.77   34.40
   7  -4  -4  282.57   33.50
  -7   4   4  303.27   38.00
  -7   4   4  291.37   37.10
   7   4  -4  325.57   25.40
   6  -4  -4  345.67   39.10
   6  -4  -4  421.56   28.80
   6  -4  -4  364.36   49.40
   6  -4  -4  444.96   27.90
   6  -4  -4  407.36   37.80
  -6   4   4  406.26   41.60
   6   4  -4  422.66   28.80
  -6   4   4  407.56   47.40
   5  -4  -4   50.89   19.70
   5  -4  -4  -28.40   21.20
   5  -4  -4   -2.00   11.80
   5  -4  -4   39.10   27.50
   5  -4  -4   -6.60   11.90
   5   4  -4   19.40   13.00
  -5   4   4   32.60   23.20
  -5   4   4    7.30   24.90
  -5   4   4   48.90   38.30
   4  -4  -4   49.80   12.80
   4  -4  -4   62.59   22.10
   4  -4  -4   64.89   15.80
   4  -4  -4   79.79   21.90
   4  -4  -4   93.79   31.30
  -4   4   4   68.69   36.70
  -4   4   4   42.20   18.30
  -4   4   4   81.59   25.20
   4   4  -4   77.89   23.30
   4   4  -4   72.19   15.20
  -4   4   4   87.59   29.20
   3  -4  -4    0.10   20.60
   3  -4  -4   29.40   17.20
   3  -4  -4   35.20   24.00
   3  -4  -4   23.00   11.70
   3  -4  -4   51.79   30.80
   3   4  -4    6.60   13.90
   3   4  -4   52.39   22.80
  -3   4   4  -12.30   23.70
  -3   4   4   19.20   17.80
  -3   4   4   37.90   32.00
  -3   4   4   17.30   31.10
   2  -4  -4  -31.10   43.10
   2  -4  -4   33.10   11.60
   2  -4  -4   11.70   24.20
  -2   4   4   54.99   24.50
   2   4  -4   42.50   14.30
  -2   4   4   22.70   29.40
  -2   4   4   18.60   37.80
  -2   4   4   18.90   18.90
  -1  -4   4  233.98   22.40
   1  -4  -4  236.38   30.90
   1  -4  -4  241.38   47.10
   1  -4  -4  238.18   22.60
   1   4  -4  237.68   38.30
  -1   4   4  272.87   44.50
   1   4  -4  214.38   26.90
  -1   4   4  233.68   39.00
  -1   4   4  217.48   37.60
   0  -4   4   30.80   11.50
   0  -4  -4   16.30   13.80
   0   4   4    8.10   36.00
   0   4  -4   17.00   17.00
   0   4   4   10.50   25.60
   0   4   4   22.90   28.60
   0   4   4   10.70   22.80
   1  -4   4   44.40   19.20
   1  -4   4   54.69   11.40
  -1  -4  -4   51.49   16.50
   1  -4   4   44.90   35.00
  -1   4  -4   74.39   21.50
   1   4   4   53.29   31.80
   1   4   4   49.50   19.00
   1   4   4   58.69   36.40
   1   4   4   64.69   31.50
  -1   4  -4   57.79   17.40
   1   4   4   55.59   26.70
   2  -4   4   48.50   30.20
   2  -4   4   88.19   34.60
   2  -4   4   97.19   16.60
   2  -4   4  121.79   28.90
   2  -4   4   54.29   10.40
  -2  -4  -4   85.39   18.70
   2   4   4   67.39   21.60
  -2   4  -4   89.49   18.60
   2   4   4   80.49   39.60
  -2   4  -4   51.09   20.90
  -2   4  -4   79.79   37.90
   2   4   4  102.19   33.30
   3  -4   4  363.36   49.50
   3  -4   4  377.56   41.80
   3  -4   4  392.36   51.89
   3  -4   4  416.36   29.20
   3  -4   4  426.76   24.40
   3   4   4  445.96   60.59
   3   4   4  551.74   46.70
   3   4   4  417.76   44.00
  -3   4  -4  423.76   36.50
   3   4   4  438.46   43.80
  -3   4  -4  511.85   56.19
  -3   4  -4  434.26   38.20
   4  -4   4  219.08   34.60
   4  -4   4  236.38   33.00
   4  -4   4  215.18   21.60
   4  -4   4  195.28   32.20
   4  -4   4  195.08   17.90
  -4   4  -4  220.28   31.60
   4   4   4  207.88   43.60
  -4   4  -4  228.78   27.00
   4   4   4  226.98   39.50
  -4   4  -4  251.57   33.40
   4   4   4  188.08   27.70
   5  -4   4  390.76   43.10
   5  -4   4  378.06   24.60
   5  -4   4  401.06   35.70
   5  -4   4  362.96   39.30
  -5   4  -4  376.16   35.50
  -5   4  -4  359.16   46.90
   5   4   4  294.47   43.30
  -5   4  -4  362.86   37.90
   5   4   4  369.26   44.50
   6  -4   4   33.90   20.70
   6  -4   4   43.50   18.10
   6  -4   4   34.90   10.40
   6  -4   4   41.40   12.40
   6  -4   4   31.10   30.40
  -6   4  -4   60.99   21.10
   6   4   4   47.00   23.80
  -6   4  -4  -14.10   22.50
   6   4   4   17.60   19.80
  -6   4  -4   21.50   17.90
   7  -4   4  -12.40   43.80
   7  -4   4   17.10   15.50
   7  -4   4   31.40   14.10
   7  -4   4   11.40   16.30
   7   4   4   26.40   21.90
  -7   4  -4   53.39   18.00
   7   4   4   33.30   22.40
  -7   4  -4   38.30   28.50
   8  -4   4  124.19   21.80
   8  -4   4  121.49   19.70
   8  -4   4   75.79   17.80
   8  -4   4   17.20   34.00
  -8   4  -4   96.09   18.70
  -8   4  -4   92.89   21.20
   8   4   4   85.79   20.70
   8   4   4  111.69   21.80
   9  -4   4   20.40   15.70
   9  -4   4    1.20   13.70
   9  -4   4   25.40   26.80
   9  -4   4   27.90   21.50
  -9   4  -4    0.90   15.20
   9   4   4   45.10   17.80
  -9   4  -4   30.10   17.10
   9   4   4   33.80   17.50
  10  -4   4   86.29   30.60
  10  -4   4  119.89   22.20
 -10   4  -4   91.69   21.00
  10   4   4   89.49   17.40
 -10   4  -4   84.19   20.50
  10   4   4   99.89   16.10
  11   4   4  107.79   16.70
   9  -5  -4   17.00   14.80
   9  -5  -4  -11.80   12.10
  -9   5   4    0.80   12.80
  -9   5   4   14.40   11.00
   8  -5  -4   63.89   16.70
   8  -5  -4   75.89   13.80
  -8   5   4   50.59   15.50
  -8   5   4   45.40   12.00
   8   5  -4   93.79   14.60
   7  -5  -4   41.00   17.50
   7  -5  -4   24.30    8.10
   7  -5  -4   56.89   28.20
   7  -5  -4   44.00   12.90
  -7   5   4   42.50   16.50
  -7   5   4   39.60   17.70
   7   5  -4   58.69   11.90
   6  -5  -4  177.78   24.00
   6  -5  -4  195.58   16.50
   6  -5  -4  215.48   36.30
   6  -5  -4  227.88   22.80
   6  -5  -4  193.08   25.50
  -6   5   4  214.08   34.70
   6   5  -4  180.38   19.90
  -6   5   4  198.48   24.60
   5  -5  -4   57.49   12.30
   5  -5  -4   51.99   21.60
   5  -5  -4   17.20   25.20
   5  -5  -4   21.30    9.80
  -5   5   4   65.59   23.00
  -5   5   4   44.10   20.00
   5   5  -4   43.20   12.20
   4  -5  -4  749.53   73.79
   4  -5  -4  829.82   51.59
  -4   5   4  862.71   55.09
  -4   5   4  788.72   69.99
   3  -5  -4  128.49   30.20
  -3  -5   4  130.29   18.00
   3  -5  -4  156.98   19.90
   3  -5  -4  133.89   17.00
   3  -5  -4  108.79   28.90
   3   5  -4  161.18   20.10
  -3   5   4  156.48   29.70
  -3   5   4  115.69   23.80
  -3   5   4  134.79   30.10
   2  -5  -4  961.30   48.30
  -2  -5   4  882.91   44.00
   2  -5  -4  923.51   45.40
   2  -5  -4  938.51   71.69
   2   5  -4  893.21   51.79
  -2   5   4  901.21   55.79
  -2   5   4  851.51   50.59
  -2   5   4  971.40   53.19
   2   5  -4  969.30   46.00
   1  -5  -4   74.29   17.10
  -1  -5   4   72.69   13.00
   1  -5  -4  124.19   37.30
   1  -5  -4   68.79   14.70
   1   5  -4  110.49   21.50
  -1   5   4   75.59   29.60
  -1   5   4   98.09   22.00
  -1   5   4   55.09   24.10
  -1   5   4   81.29   19.20
   1   5  -4   89.09   15.10
   0  -5  -4  149.88   48.80
   0  -5  -4   66.19   15.20
   0  -5  -4   59.79   20.70
   0  -5   4   94.79   16.90
   0  -5   4   64.59   11.90
   0   5   4   87.09   22.20
   0   5   4  132.69   33.80
   0   5   4   95.29   20.20
   0   5  -4   85.19   15.00
   0   5  -4   36.30   18.00
   1  -5   4  121.69   29.70
  -1  -5  -4  141.79   30.60
   1  -5   4  111.39   15.60
   1  -5   4   97.99   16.40
  -1  -5  -4  118.19   17.50
   1   5   4  102.19   20.20
   1   5   4  105.59   20.80
  -1   5  -4  108.79   17.30
  -2  -5  -4  151.68   26.40
   2  -5   4  222.18   21.90
   2  -5   4  204.68   40.60
   2  -5   4  259.27   18.80
  -2   5  -4  214.68   26.20
   2   5   4  199.38   33.00
  -2   5  -4  190.58   23.80
   2   5   4  173.98   30.80
   3  -5   4  346.07   50.99
   3  -5   4  361.06   30.60
   3  -5   4  379.06   22.50
  -3  -5  -4  344.17   34.40
   3  -5   4  310.97   35.40
   3   5   4  349.27   32.80
  -3   5  -4  333.17   36.80
   4  -5   4  332.27   33.50
   4  -5   4  351.66   22.40
   4  -5   4  387.06   39.80
   4  -5   4  332.87   22.40
  -4   5  -4  349.27   28.10
   4   5   4  349.96   34.50
  -4   5  -4  334.37   33.20
   5  -5   4  323.77   21.40
   5  -5   4  350.46   34.10
   5  -5   4  352.76   31.90
   5  -5   4  350.86   22.40
  -5   5  -4  304.37   27.90
   5   5   4  316.17   39.10
  -5   5  -4  331.17   31.40
   5   5   4  355.86   33.20
   6  -5   4   17.60   13.90
   6  -5   4   10.30   15.30
   6  -5   4   10.10   14.60
   6  -5   4   25.20    8.20
  -6   5  -4   21.80   15.00
  -6   5  -4    7.30   14.50
   6   5   4   18.50   15.30
   6   5   4  -34.80   25.20
   7  -5   4   57.79   14.80
   7  -5   4   16.60   13.10
   7  -5   4   40.30   14.70
   7   5   4   25.30   15.60
   7   5   4  -43.70   36.10
  -7   5  -4   51.69   14.00
   8  -5   4  151.48   20.60
   8  -5   4  121.59   16.60
   8  -5   4  168.08   26.50
  -8   5  -4   82.49   16.80
   5  -6  -4   11.30   15.20
   5  -6  -4    2.00    5.80
   5  -6  -4   -1.20    9.90
  -5   6   4    4.00    7.60
   5   6  -4   10.80    8.30
   4  -6  -4   -4.60   14.20
   4  -6  -4   10.30    8.70
   4  -6  -4   35.40   10.70
   4  -6  -4   11.60   20.10
   4   6  -4    6.60    7.40
  -4   6   4   12.10   12.30
   3  -6  -4   98.79   11.00
   3  -6  -4  118.19   24.50
   3  -6  -4  120.49   19.80
   3  -6  -4  105.09   11.90
  -3   6   4   95.69   15.30
   3   6  -4   83.09   11.90
   2  -6  -4    2.30    6.90
  -2  -6   4   26.10   14.30
   2  -6  -4   23.00    9.00
  -2  -6   4   25.60   11.00
   2  -6  -4   20.30   28.40
   2   6  -4   15.50    7.00
  -2   6   4    3.80   10.00
  -1  -6   4  118.99   16.10
  -1  -6   4  116.49   19.80
   1  -6  -4  122.99   17.90
   1   6  -4  103.69   13.60
  -1   6   4  107.59   16.40
   0  -6   4   70.39   10.50
   0  -6  -4   83.49   12.20
   0  -6   4   75.89   10.40
   0  -6  -4   62.29   10.80
   0   6   4   83.09   16.10
   0   6  -4   47.30    8.50
   0   6   4   76.79   12.20
   1  -6   4   71.39    9.90
   1  -6   4   74.99    9.60
  -1  -6  -4   73.99   12.40
  -1  -6  -4   44.10   12.00
  -1   6  -4   82.49   18.00
   1   6   4   76.69   12.70
   1   6   4   97.29   17.80
  -2  -6  -4   85.79   14.60
   2  -6   4   94.79   12.30
   2  -6   4   98.99   13.20
   2  -6   4  135.49   24.60
  -2  -6  -4   50.89   14.80
  -2   6  -4   82.19   19.10
   2   6   4   94.89   24.90
   3  -6   4   47.10    9.80
   3  -6   4   49.60    7.40
   3  -6   4   51.89   17.80
  -3   6  -4   34.90    8.70
  -3   6  -4   44.00   14.00
   3   6   4   80.29   17.90
   4  -6   4   78.59   15.70
   4  -6   4   66.09   10.10
   4  -6   4   67.49   11.80
  -4   6  -4   50.59    9.60
   4   6   4   90.29   18.50
  -4   6  -4   80.59   13.80
  14   0  -5  251.27   24.30
 -14   0   5  266.47   27.20
  14   0  -5  227.08   29.40
 -14   0   5  286.17   25.40
  14   0  -5  333.47   34.40
  13   0  -5  367.06   36.70
 -13   0   5  312.07   34.50
 -13   0   5  372.86   48.00
  13   0  -5  349.87   30.50
  13   0  -5  236.68   43.90
 -13   0   5  335.97   30.00
 -12   0   5  212.38   28.20
 -12   0   5  325.27   44.40
  12   0  -5  317.97   49.40
  12   0  -5  288.97   30.70
  12   0  -5  309.57   41.70
 -12   0   5  241.38   28.90
  12   0  -5  178.88   38.20
 -11   0   5   89.09   26.00
  11   0  -5   50.39   25.10
  11   0  -5   41.80   17.40
  11   0  -5   60.09   22.60
  11   0  -5   73.29   29.40
  11   0  -5  102.99   26.70
 -11   0   5   51.49   17.70
  11   0  -5   46.00   23.60
  10   0  -5   16.30   27.20
 -10   0   5   -0.90   27.90
  10   0  -5    5.70   24.10
  10   0  -5    0.90   25.70
  10   0  -5   39.10   18.90
  10   0  -5   17.60   17.50
 -10   0   5   17.90   16.70
   9   0  -5   25.90   17.50
  -9   0   5   59.69   31.70
  -9   0   5  -34.30   34.60
  -9   0   5   19.80   14.90
   9   0  -5  -30.00   23.90
   9   0  -5   38.90   24.50
   9   0  -5  -22.20   28.40
   8   0  -5  295.47   40.50
   8   0  -5  298.47   31.80
   8   0  -5  303.77   45.40
  -8   0   5  287.07   42.60
  -8   0   5  342.07   27.20
   8   0  -5  293.47   45.90
  -8   0   5  340.37   58.69
   8   0  -5  277.27   35.70
  -7   0   5 2678.33  110.09
  -7   0   5 2555.04  106.49
   6   0  -5  449.16   45.80
  -6   0   5  515.15   31.20
  -6   0   5  470.95   30.30
  -5   0   5   -4.30   37.00
   5   0  -5   25.80   17.70
  -5   0   5    9.10   10.00
   4   0  -5  355.16   29.50
   4   0  -5  331.17   16.00
  -4   0   5  282.57   39.10
   4   0  -5  352.46   14.30
  -4   0   5  356.56   20.90
   3   0  -5    1.00   12.50
   3   0  -5   -2.30    4.00
  -3   0   5    0.00   15.20
  -3   0   5   -2.40    7.50
   3   0  -5    4.50    2.80
  -2   0   5   53.79   14.00
  -2   0   5   52.89   12.90
   2   0  -5   61.59    5.70
   2   0  -5   50.69   13.50
   1   0  -5  896.01   45.00
  -1   0   5  913.81   39.60
  -1   0   5  968.60   45.10
   1   0  -5  930.01   37.00
   0   0  -5  460.45   19.70
   0   0   5  493.25   23.30
   0   0  -5  427.96   29.10
   0   0   5  423.06   27.70
  -1   0  -5 5921.91  241.78
   1   0   5 5960.60  241.68
  -1   0  -5 6440.26  233.88
   1   0   5 6257.07  235.98
  -2   0  -5  935.41   48.90
  -2   0  -5  920.41   37.50
   2   0   5  916.61   39.70
   2   0   5  911.21   51.19
  -3   0  -5  914.11   38.20
  -3   0  -5  861.31   51.09
   3   0   5  970.40   39.40
  -4   0  -5  137.29   24.00
  -4   0  -5  163.78   13.00
   4   0   5  159.68   12.20
  -5   0  -5 1739.93   68.79
  -5   0  -5 1581.14   71.69
  -5   0  -5 1706.93   87.49
  -6   0  -5  282.57   26.40
  -6   0  -5  356.36   25.40
  -6   0  -5  453.85   58.69
   7   0   5  643.04   53.79
   7   0   5  724.43   61.49
  -7   0  -5  670.43   62.99
   7   0   5  747.73   53.79
   7   0   5  669.43   48.40
   7   0   5  780.92  124.49
  -7   0  -5  743.63   39.30
  -7   0  -5  811.52   93.39
  -7   0  -5  604.14   43.90
   8   0   5  609.14   50.89
  -8   0  -5  638.24   54.29
   8   0   5  613.64   52.89
   8   0   5  613.64   50.59
  -8   0  -5  560.74   36.30
   8   0   5  596.24   47.00
  -8   0  -5  567.34   42.20
   8   0   5  552.74   52.49
   9   0   5   71.19   27.30
  -9   0  -5   71.59   16.60
   9   0   5   72.59   24.20
  -9   0  -5   78.69   23.20
   9   0   5  101.79   29.20
   9   0   5   72.09   25.30
   9   0   5   99.59   23.60
 -10   0  -5   23.10   16.70
  10   0   5   24.30   22.60
  10   0   5  -22.30   20.80
  10   0   5   31.10   22.50
 -10   0  -5   19.80   21.30
  10   0   5   36.20   26.50
  10   0   5   17.50   23.30
 -11   0  -5   51.69   18.80
 -11   0  -5   60.39   16.20
  11   0   5   -9.40   18.50
  11   0   5   17.50   23.10
  11   0   5   30.90   19.20
 -12   0  -5   20.80   20.80
  12   0   5   22.90   23.50
  12   0   5   37.30   21.10
 -12   0  -5   54.49   16.20
  12   0   5   82.39   19.20
  12   0   5   20.20   16.40
 -12   0  -5   68.49   15.50
  13   0   5    7.40   15.00
 -13   0  -5   78.59   37.00
 -13   0  -5   24.90   13.40
 -13   0  -5   10.70   11.40
  13   0   5    0.60   28.60
  14  -1  -5   34.50   15.80
  14  -1  -5  -18.30   19.10
  14  -1  -5   31.80   16.10
 -14  -1   5   41.40   15.10
 -14  -1   5   19.50   16.90
  14   1  -5   56.39   14.20
 -14   1   5   42.20   15.90
 -14   1   5   25.70   11.10
  13  -1  -5  107.69   19.20
  13  -1  -5   86.79   16.80
  13  -1  -5   75.19   19.40
  13  -1  -5   86.29   20.60
 -13  -1   5   74.99   23.40
 -13   1   5   90.69   21.90
 -13   1   5  103.79   17.50
 -13   1   5   97.09   16.50
  13   1  -5   71.19   14.70
  12  -1  -5  -30.70   24.80
  12  -1  -5   51.69   22.30
  12  -1  -5   33.00   17.70
  12  -1  -5   29.20   18.80
 -12  -1   5   56.39   29.40
 -12  -1   5   28.90   16.70
 -12   1   5   32.90   16.40
  12   1  -5   12.80   19.90
 -12   1   5    4.90   19.10
  12   1  -5   17.40   33.30
  12   1  -5   78.99   30.20
 -12   1   5    5.80   16.70
 -11  -1   5  144.09   22.10
  11  -1  -5  120.29   26.40
  11  -1  -5  153.38   28.50
  11  -1  -5  104.89   22.00
  11  -1  -5  129.89   24.00
 -11   1   5  110.49   21.50
  11   1  -5  159.78   32.90
 -11   1   5  117.89   48.40
 -11   1   5  139.49   21.00
  11   1  -5  154.98   30.20
  11   1  -5  116.99   20.70
  11   1  -5  171.58   23.70
  11   1  -5  161.98   37.70
 -11   1   5  131.29   22.30
 -10  -1   5  386.36   34.60
  10  -1  -5  341.27   39.10
  10  -1  -5  366.96   49.80
  10  -1  -5  368.96   46.00
  10   1  -5  405.56   38.50
  10   1  -5  364.56   32.80
  10   1  -5  315.87   42.60
  10   1  -5  382.26   50.19
 -10   1   5  437.56   32.40
 -10   1   5  445.76   41.00
 -10   1   5  333.17   45.70
   9  -1  -5  234.38   34.60
   9  -1  -5  176.58   32.80
  -9  -1   5  177.48   23.90
   9  -1  -5  220.08   28.30
   9   1  -5  146.69   41.50
  -9   1   5  158.18   25.80
  -9   1   5  186.08   26.70
   9   1  -5  232.38   27.30
   9   1  -5  157.28   57.69
  -9   1   5  219.48   33.00
   9   1  -5  213.88   27.40
   8  -1  -5    5.80   27.30
  -8  -1   5   18.20   26.40
   8  -1  -5  -24.50   27.90
   8  -1  -5   20.90   16.40
   8  -1  -5  -15.60   20.60
   8   1  -5  -16.20   16.90
   8   1  -5   20.80   29.10
   8   1  -5    5.60   23.60
   8   1  -5   45.40   21.90
  -8   1   5    3.60   12.80
  -8   1   5   13.80   16.00
  -8   1   5   30.30   25.40
  -8   1   5   11.20   21.90
   7  -1  -5   76.49   23.00
   7  -1  -5   93.39   27.90
   7  -1  -5  128.89   35.10
   7  -1  -5   18.20   27.90
   7  -1  -5   49.40    7.00
   7  -1  -5   49.40   45.60
   7  -1  -5   50.79   17.10
   7   1  -5   79.59   19.60
   7   1  -5   73.99   43.70
   7   1  -5   73.29   27.80
  -7   1   5   60.89   26.60
  -7   1   5   37.30   17.40
  -7   1   5   41.80   13.60
  -7   1   5  101.49   29.40
   6  -1  -5  470.25   21.80
   6  -1  -5  452.55   53.99
  -6   1   5  453.65   28.70
  -6   1   5  497.15   28.90
  -5  -1   5   74.99   28.70
   5  -1  -5   79.89   23.30
   5  -1  -5   86.19    8.60
  -5   1   5   68.19   11.50
   4  -1  -5  756.62   43.80
  -4  -1   5  714.53   42.20
   4  -1  -5  668.43   30.20
  -4  -1   5  658.13   36.90
   4   1  -5  737.33   34.90
  -4   1   5  689.93   32.90
   4   1  -5  744.93   44.00
  -3  -1   5 2239.78   91.99
  -3  -1   5 2381.96   95.79
   3  -1  -5 2298.07   90.19
   3  -1  -5 2293.37   91.29
   3  -1  -5 2344.17   98.59
   3   1  -5 2260.77   97.59
  -3   1   5 2323.47   91.79
   3   1  -5 2329.47   94.19
   2  -1  -5  649.43   31.70
   2  -1  -5  642.34   35.80
  -2  -1   5  676.03   31.80
   2  -1  -5  693.73   28.40
  -2   1   5  623.44   40.10
  -2   1   5  648.74   29.90
   2   1  -5  653.93   37.40
   2   1  -5  651.53   33.00
   1  -1  -5  226.98   13.10
  -1  -1   5  226.88   26.20
  -1  -1   5  237.28   18.80
   1  -1  -5  221.78   21.20
  -1   1   5  246.78   23.20
   1   1  -5  239.88   10.60
   1   1  -5  254.37   18.40
   1   1  -5  236.48   13.00
  -1   1   5  241.18   15.30
   1   1  -5  246.78   26.10
   0  -1  -5  510.35   22.40
   0  -1  -5  456.25   29.60
   0  -1   5  439.76   37.40
   0  -1   5  499.55   27.00
   0   1  -5  504.65   34.20
   0   1  -5  460.35   27.40
   0   1   5  530.95   23.70
   0   1  -5  522.55   21.00
   0   1   5  496.55   31.60
   1  -1   5  566.34   44.20
  -1  -1  -5  561.94   33.90
   1  -1   5  564.44   29.40
  -1  -1  -5  553.44   27.40
   1   1   5  543.45   33.60
   1   1   5  553.74   24.90
  -1   1  -5  562.04   24.00
  -1   1  -5  582.54   38.70
   2  -1   5   89.39   14.20
   2  -1   5   73.39   32.70
  -2  -1  -5   86.29   16.50
  -2  -1  -5   94.09   11.30
  -2   1  -5   73.79   19.90
  -2   1  -5   84.39    8.50
  -3  -1  -5  639.54   39.10
  -3  -1  -5  535.85   27.10
   3  -1   5  542.35   29.20
  -3   1  -5  660.73   47.50
  -3   1  -5  604.54   26.40
   4  -1   5 2224.38   91.99
  -4  -1  -5 2260.87  101.79
  -4  -1  -5 2281.87   90.59
  -4   1  -5 2388.76  110.39
  -4   1  -5 2240.18   90.29
  -5  -1  -5  272.87   24.80
  -5  -1  -5  270.07   42.50
  -5  -1  -5  221.58   32.50
   5  -1   5  296.27   18.80
  -5   1  -5  301.57   19.00
  -5   1  -5  289.97   23.60
  -5   1  -5  288.87   41.70
   6  -1   5   69.09   31.90
   6  -1   5   -3.90   22.10
  -6  -1  -5   45.90   36.00
  -6  -1  -5  -29.30   16.70
   6  -1   5    6.70    8.80
  -6   1  -5   -3.40   23.50
   6   1   5   45.00   27.20
   6   1   5  -14.30   25.20
   6   1   5  -14.30   31.10
  -6   1  -5    1.80   12.10
  -6   1  -5   38.40   42.40
   6   1   5   11.90   34.40
  -6   1  -5    4.30    9.20
   7  -1   5  400.06   47.50
  -7  -1  -5  345.47   31.50
   7  -1   5  362.56   45.00
   7  -1   5  281.37   55.69
   7  -1   5  408.86   45.90
   7  -1   5  360.16   21.50
  -7  -1  -5  442.96   59.59
   7  -1   5  408.06   37.90
  -7   1  -5  449.46   88.59
   7   1   5  361.66   39.90
   7   1   5  361.56   52.29
   7   1   5  442.26   48.00
  -7   1  -5  355.36   27.80
   7   1   5  400.16   56.49
  -7   1  -5  340.97   40.20
   7   1   5  388.96   48.60
  -7   1  -5  385.66   28.10
  -8  -1  -5   47.60   16.60
   8  -1   5   37.70   25.70
   8  -1   5   50.69   34.80
   8   1   5   52.19   35.10
   8   1   5   63.19   34.30
   8   1   5   53.89   29.50
  -8   1  -5   46.20   15.30
  -8   1  -5   60.49   19.10
   9  -1   5  398.56   46.30
   9  -1   5  430.46   42.80
   9  -1   5  386.36   43.10
  -9  -1  -5  384.46   33.40
  -9  -1  -5  371.16   72.49
  -9   1  -5  442.46   39.70
   9   1   5  325.27   44.10
   9   1   5  332.67   47.00
   9   1   5  424.86   45.40
   9   1   5  324.37   54.09
   9   1   5  445.16   39.50
  -9   1  -5  396.56   31.00
  -9   1  -5  427.16   40.70
 -10  -1  -5    2.70   16.20
  10  -1   5   13.10   22.10
 -10  -1  -5   36.40   25.80
  10  -1   5    4.50   22.70
  10  -1   5   -1.50   19.30
  10  -1   5   12.20   22.10
  10   1   5    6.80   21.70
  10   1   5   34.70   29.20
 -10   1  -5   27.40   16.40
  10   1   5    4.70   21.40
 -10   1  -5   43.80   19.30
 -10   1  -5   14.10   19.00
 -10   1  -5   78.79   33.90
  10   1   5   46.80   20.60
 -11  -1  -5   12.40   15.20
 -11  -1  -5   19.90   21.80
  11   1   5   31.30   24.50
 -11   1  -5   35.50   28.90
 -11   1  -5   -3.90   15.40
 -11   1  -5   13.70   25.50
  11   1   5   35.00   28.60
  11   1   5   19.60   29.10
 -12  -1  -5   28.50   16.70
  12  -1   5   60.89   18.00
  12  -1   5   23.70   20.00
 -12  -1  -5   43.60   14.40
  12  -1   5   27.40   18.50
  12  -1   5   19.40   17.50
 -12   1  -5   42.40   15.60
  12   1   5   39.10   17.50
 -12   1  -5   19.90   16.60
 -12   1  -5   32.60   14.20
  12   1   5   38.50   15.60
  12   1   5   37.00   27.20
 -13  -1  -5  181.98   23.90
  13  -1   5  232.08   26.70
 -13   1  -5  191.18   24.50
  13   1   5  149.09   18.70
 -13   1  -5  148.99   19.70
  13   1   5  170.38   24.80
 -13   1  -5  143.09   20.80
  14  -2  -5  193.08   19.80
  14   2  -5  224.48   21.60
 -14   2   5  261.37   21.00
  13  -2  -5   84.09   22.30
 -13  -2   5   82.69   35.20
  13  -2  -5   68.49   17.20
  13  -2  -5   90.49   15.90
 -13   2   5   90.89   14.50
 -13   2   5  198.48   42.40
  13   2  -5   99.49   17.70
 -13   2   5  125.19   18.60
  12  -2  -5   19.60   24.40
  12  -2  -5   22.50   18.40
 -12  -2   5    7.00   21.30
  12  -2  -5   10.30   15.00
  12  -2  -5   19.10   20.10
  12   2  -5   13.20   17.00
 -12   2   5   36.10   20.60
 -12   2   5   16.20   15.80
 -12   2   5    1.10   14.10
  11  -2  -5   52.79   31.10
  11  -2  -5   36.00   17.10
  11  -2  -5   12.40   34.00
  11  -2  -5   33.70   24.20
  11   2  -5   54.79   20.90
 -11   2   5    3.00   19.10
  11   2  -5   38.20   18.40
 -11   2   5   57.89   19.40
 -11   2   5   26.00   16.20
  10  -2  -5   91.69   28.10
  10  -2  -5  128.49   22.10
  10  -2  -5   62.99   29.10
  10  -2  -5   79.39   31.40
 -10   2   5  115.49   22.30
 -10   2   5   95.69   23.90
  10   2  -5   93.79   24.00
 -10   2   5  100.29   19.90
 -10   2   5  135.79   33.20
   9  -2  -5   39.80   18.40
   9  -2  -5   13.60   41.10
   9  -2  -5   60.49   27.70
   9  -2  -5   62.19   31.10
   9  -2  -5   73.29   28.30
  -9   2   5   45.20   17.80
   9   2  -5   55.89   23.50
  -9   2   5   60.39   21.70
   9   2  -5  -13.80   37.10
   9   2  -5   57.69   18.20
  -9   2   5   69.79   28.60
  -9   2   5   44.70   17.20
   8  -2  -5  321.07   45.60
   8  -2  -5  262.97   35.60
   8  -2  -5  327.87   33.90
   8  -2  -5  378.16   60.59
   8  -2  -5  256.67   21.20
   8  -2  -5  259.57   38.00
  -8   2   5  335.87   37.10
   8   2  -5  372.66   45.00
  -8   2   5  282.77   63.89
   8   2  -5  337.67   47.60
  -8   2   5  284.17   34.00
   8   2  -5  280.77   29.50
  -8   2   5  300.27   32.50
  -8   2   5  286.47   29.40
   7  -2  -5   89.99   37.20
   7  -2  -5   84.99   37.00
   7  -2  -5  140.79   32.60
   7  -2  -5   55.79   10.20
   7  -2  -5   81.69   19.90
   7  -2  -5   43.80   73.69
   7  -2  -5    8.80   30.60
   7   2  -5  109.19   32.50
  -7   2   5   84.19   20.30
   7   2  -5   61.59   31.30
  -7   2   5   54.59   20.20
  -7   2   5   46.80   15.50
  -7   2   5   62.29   15.50
  -7   2   5  -53.09   55.99
   7   2  -5   62.79   16.80
   6  -2  -5  -23.20   36.30
   6  -2  -5   22.00   14.80
   6  -2  -5   17.60   17.20
   6  -2  -5   39.70   35.50
   6  -2  -5   92.29   36.00
   6  -2  -5   12.50    7.80
   6  -2  -5  -30.10   20.10
   6  -2  -5   13.50   44.90
   6   2  -5   21.30   15.40
  -6   2   5   74.89   50.09
  -6   2   5    4.10   10.20
  -6   2   5   24.70   27.50
  -6   2   5   44.80   22.70
   5  -2  -5  170.98   34.70
   5  -2  -5  186.88   15.60
   5  -2  -5  202.08   19.50
  -5   2   5  254.07   25.50
  -5   2   5  174.18   18.60
   4  -2  -5  333.57   19.40
   4  -2  -5  316.67   21.70
  -4  -2   5  295.87   31.80
   4   2  -5  365.26   36.90
  -4   2   5  316.77   20.40
   3  -2  -5 4458.65  188.08
  -3  -2   5 4478.35  181.08
   3  -2  -5 4958.90  178.78
   3  -2  -5 4200.58  184.98
  -3   2   5 4983.90  179.08
   3   2  -5 4458.85  186.18
   2  -2  -5 5149.08  193.48
   2  -2  -5 5005.50  202.68
  -2  -2   5 5086.49  201.08
   2  -2  -5 5101.99  201.98
   2  -2  -5 4577.54  193.78
   2   2  -5 4982.50  201.28
  -2   2   5 5149.58  193.18
   2   2  -5 4941.01  200.78
  -1  -2   5 1232.08   60.39
  -1  -2   5 1253.47   72.29
   1  -2  -5 1201.08   60.29
   1  -2  -5 1273.77   52.59
   1   2  -5 1185.98   65.09
  -1   2   5 1279.47   50.89
   1   2  -5 1244.28   61.29
   0  -2   5  130.19   37.70
   0  -2  -5  185.58   26.60
   0  -2   5  166.38   27.00
   0  -2  -5  146.19   16.00
   0   2  -5  141.49   26.80
   0   2  -5  155.38   23.50
   1  -2   5 1002.90   50.59
   1  -2   5 1021.70   89.19
  -1  -2  -5 1022.00   44.80
  -1  -2  -5 1041.90   53.99
  -1   2  -5 1009.80   40.80
  -1   2  -5 1024.80   53.39
  -1   2  -5  971.50   63.39
  -2  -2  -5 1040.10   47.00
   2  -2   5 1015.10   49.80
  -2  -2  -5 1033.50   55.99
   2  -2   5  946.61   43.10
  -2   2  -5 1081.69   42.70
  -2   2  -5 1036.70   69.29
  -2   2  -5 1026.20   55.49
   3  -2   5   74.89    9.10
  -3  -2  -5  111.19   23.30
   3  -2   5  100.69   15.70
  -3   2  -5   85.39   10.10
  -3   2  -5  143.39   36.10
  -3   2  -5   95.89   22.20
   4  -2   5  102.69   13.00
   4  -2   5  134.49   19.80
  -4  -2  -5   93.89   27.40
  -4   2  -5  103.39   44.40
  -4   2  -5   97.89   13.40
  -4   2  -5  103.89   21.50
  -4   2  -5  108.19   25.40
  -5  -2  -5  412.76   63.29
   5  -2   5  368.46   27.00
   5  -2   5  377.66   22.60
   5  -2   5  404.66   41.30
   5  -2   5  390.66   28.60
   5  -2   5  467.65   45.50
   5  -2   5  495.15   72.99
   5   2   5  391.36   41.90
  -5   2  -5  357.16   23.00
   5   2   5  350.96   87.69
  -5   2  -5  334.97   31.50
  -5   2  -5  415.86   67.59
  -5   2  -5  358.56   41.60
   5   2   5  297.27   47.00
  -5   2  -5  425.36   49.00
   5   2   5  336.17   66.09
  -5   2  -5  418.06   42.40
  -5   2  -5  370.66   60.39
   6  -2   5  198.08   29.30
   6  -2   5  197.18   23.60
   6  -2   5  238.28   26.90
   6  -2   5  240.28   33.40
   6  -2   5  280.07   37.60
   6  -2   5  267.97   89.29
   6  -2   5  260.27   41.60
   6  -2   5  229.18   24.30
  -6   2  -5  252.87   27.90
  -6   2  -5  271.07   35.50
   6   2   5  252.87   33.70
   6   2   5  251.47   36.10
   6   2   5  252.27   54.89
  -6   2  -5  244.58   33.50
  -6   2  -5  228.08   21.00
   6   2   5  201.18   42.50
  -6   2  -5  245.18   58.99
  -6   2  -5  259.97   30.40
   7  -2   5  158.78   28.60
   7  -2   5  126.29   28.90
   7  -2   5  174.08   49.40
   7  -2   5  173.08   28.90
   7  -2   5  188.08   24.70
  -7   2  -5  125.99   29.60
   7   2   5  158.08   55.39
  -7   2  -5  142.19   25.40
  -7   2  -5  196.18   26.90
  -7   2  -5  174.28   24.80
   7   2   5  104.69   35.90
  -8  -2  -5   73.19   21.90
   8  -2   5   77.59   20.20
   8  -2   5   62.79   26.60
   8  -2   5  111.09   29.50
   8  -2   5   54.19   24.70
   8  -2   5   63.49   18.20
   8  -2   5   72.19   28.30
   8   2   5   59.69   19.60
  -8   2  -5   76.69   20.40
  -8   2  -5   82.09   19.20
   8   2   5   86.79   25.60
  -8   2  -5   74.99   30.70
  -8   2  -5   75.89   29.90
   8   2   5   96.19   34.90
  -8   2  -5   82.19   22.20
   9  -2   5  557.54   55.39
   9  -2   5  637.34   57.29
   9  -2   5  580.34   45.80
   9  -2   5  557.44   51.89
  -9  -2  -5  572.94   45.50
   9  -2   5  608.34   46.40
  -9   2  -5  631.34   43.20
   9   2   5  555.64   42.80
   9   2   5  535.55   50.39
  -9   2  -5  611.64   49.80
  -9   2  -5  516.65   43.30
  -9   2  -5  635.94   54.19
  10  -2   5   98.09   22.30
  10  -2   5  102.79   24.90
 -10  -2  -5  101.19   21.20
  10  -2   5   88.99   22.90
  10   2   5   17.00   33.30
 -10   2  -5   55.89   18.10
  10   2   5   67.39   22.00
 -10   2  -5   68.79   17.20
 -10   2  -5  106.59   22.70
  10   2   5  110.89   20.60
  11  -2   5    3.90   19.50
  11  -2   5   -1.00   17.80
 -11  -2  -5   30.00   17.30
  11  -2   5   31.30   19.20
  11  -2   5   47.00   18.90
  11   2   5    7.10   14.10
  11   2   5   19.70   18.20
 -11   2  -5   34.60   17.10
 -11   2  -5   36.30   14.70
 -11   2  -5   66.29   24.40
 -12  -2  -5   22.30   22.20
  12  -2   5   -0.80   16.40
  12  -2   5   -6.80   15.20
 -12  -2  -5   -1.10   16.10
  12  -2   5   32.60   17.60
  12  -2   5   15.40   17.60
 -12   2  -5   19.00   12.50
 -12   2  -5   28.60   14.00
  12   2   5   28.60   15.10
  12   2   5   14.20   12.90
  13  -2   5   70.89   15.50
  13  -2   5  139.79   23.30
  13   2   5   84.39   14.70
  13   2   5   59.19   12.60
 -13   2  -5   89.59   12.80
  13  -3  -5   96.09   17.10
  13  -3  -5  102.39   15.40
  13  -3  -5   77.69   13.00
 -13   3   5  110.59   15.30
  12  -3  -5    1.70   16.90
  12  -3  -5   20.60   12.00
  12   3  -5  -39.40   19.40
 -12   3   5    9.80   21.40
 -12   3   5   13.40   13.20
  11  -3  -5   56.79   14.20
  11  -3  -5   24.00   22.90
  11  -3  -5  110.49   28.40
  11  -3  -5  107.79   24.60
  11   3  -5   81.59   21.90
 -11   3   5  190.38   43.10
 -11   3   5   75.69   18.20
 -11   3   5   72.09   21.10
  10  -3  -5  185.98   44.00
  10  -3  -5  178.48   35.10
  10  -3  -5  163.48   31.00
  10  -3  -5  163.98   24.20
  10  -3  -5  163.38   29.90
  10   3  -5  152.78   26.60
 -10   3   5  174.58   42.20
 -10   3   5  168.58   26.60
  10   3  -5  124.99   19.40
 -10   3   5  238.18   38.20
 -10   3   5  122.99   36.00
   9  -3  -5   95.39   33.10
   9  -3  -5    9.80   58.49
   9  -3  -5   96.49   23.70
   9  -3  -5   43.80   17.70
   9  -3  -5   38.70   29.70
  -9   3   5   96.39   22.00
  -9   3   5   69.49   22.30
   9   3  -5   76.59   28.90
   9   3  -5   85.59   16.90
  -9   3   5   76.09   33.00
  -9   3   5   68.29   38.90
   8  -3  -5   73.99   23.20
   8  -3  -5   47.00   33.80
   8  -3  -5   25.90   29.70
   8  -3  -5   31.20   18.90
   8  -3  -5   29.20   16.00
   8   3  -5   27.40   34.40
  -8   3   5   38.80   23.00
   8   3  -5   28.20   14.80
  -8   3   5   60.09   24.90
  -8   3   5   52.79   23.10
   7  -3  -5  251.57   26.10
   7  -3  -5  288.87   25.60
   7  -3  -5  209.78   45.40
   7  -3  -5  190.48   33.00
   7  -3  -5  266.27   33.50
   7  -3  -5  263.87   37.80
  -7   3   5  326.87   47.20
   7   3  -5  258.47   25.90
  -7   3   5  218.78   28.20
  -7   3   5  255.07   43.00
  -7   3   5  286.47   34.10
   6  -3  -5  134.49   50.39
   6  -3  -5  202.18   22.50
   6  -3  -5  132.99   40.30
   6  -3  -5  175.98   20.50
  -6   3   5  205.48   28.50
   5  -3  -5   45.00   28.40
   5  -3  -5  -11.10   57.39
   5  -3  -5   69.99   20.60
   5  -3  -5   25.00   14.50
   5  -3  -5   47.90   13.70
   5  -3  -5   34.90   11.70
   5   3  -5   44.20   13.20
  -5   3   5   37.60   26.30
  -5   3   5   61.89   29.60
  -5   3   5   44.20   14.80
  -5   3   5   60.49   18.10
   5   3  -5    8.40   33.90
  -5   3   5   20.40   50.59
   4  -3  -5   38.70   31.70
   4  -3  -5   40.70   46.80
   4  -3  -5  -14.10   16.30
   4  -3  -5    9.60   11.50
   4  -3  -5   16.00   10.20
   4  -3  -5   -9.20   20.10
   4   3  -5   11.50   51.79
  -4   3   5  -22.50   30.80
   4   3  -5  -12.50   22.20
   4   3  -5  -34.70   35.40
  -4   3   5   36.00   19.50
  -4   3   5   35.80   27.50
  -4   3   5   38.20   12.70
  -4   3   5   -4.60   43.80
   4   3  -5   22.40   13.30
   3  -3  -5  302.77   45.20
   3  -3  -5  272.67   20.70
   3  -3  -5  238.68   41.10
   3  -3  -5  204.58   35.40
   3  -3  -5  247.98   23.10
   3   3  -5  284.17   45.80
   3   3  -5  307.97   25.30
  -3   3   5  216.58   37.30
  -3   3   5  307.67   45.70
  -3   3   5  285.47   43.20
   3   3  -5  244.08   29.40
  -3   3   5  288.07   68.39
   2  -3  -5  276.77   39.40
   2  -3  -5  175.38   51.79
   2  -3  -5  264.07   33.00
  -2  -3   5  333.37   47.80
  -2   3   5  353.36   44.50
   2   3  -5  328.47   27.40
  -2   3   5  261.77   42.30
  -2   3   5  300.97   35.90
   2   3  -5  302.17   56.69
   2   3  -5  269.47   35.90
   1  -3  -5  678.13   36.10
   1  -3  -5  656.83   39.80
   1  -3  -5  699.13   57.49
  -1  -3   5  743.53   36.60
  -1   3   5  534.45   63.69
   1   3  -5  713.03   42.70
   1   3  -5  725.93   50.39
  -1   3   5  705.03   46.70
   1   3  -5  775.32   61.19
  -1   3   5  671.93   66.29
  -1   3   5  674.93   52.59
   0  -3  -5 2345.27   97.69
   0  -3  -5 2477.65  100.59
   0  -3   5 2538.45  113.09
   0  -3   5 2346.07   94.89
   0  -3  -5 2421.36  113.79
   0   3   5 2251.77  117.89
   0   3  -5 2265.67  103.99
   0   3  -5 2332.97  101.99
   0   3  -5 2362.16  116.89
   0   3   5 2357.76  108.29
  -1  -3  -5  236.08   37.80
   1  -3   5  275.57   41.20
   1  -3   5  184.48   17.00
  -1  -3  -5  240.88   28.30
   1   3   5  180.48   38.90
   1   3   5  227.18   42.00
  -1   3  -5  212.48   36.40
  -1   3  -5  218.88   29.00
   1   3   5  238.58   31.90
  -1   3  -5  226.58   34.90
   2  -3   5  508.75   24.70
   2  -3   5  446.86   61.39
  -2  -3  -5  513.95   37.90
  -2  -3  -5  423.66   65.89
   2  -3   5  491.55   38.10
   2  -3   5  411.96   34.50
  -2   3  -5  475.45   64.09
  -2   3  -5  471.65   38.30
   2   3   5  463.35   48.60
   2   3   5  401.16   63.69
   2   3   5  430.56   64.79
  -2   3  -5  436.86   45.00
   2   3   5  424.76   49.99
  -2   3  -5  389.56   54.49
   3  -3   5   16.40   29.80
   3  -3   5    0.60    7.20
   3  -3   5   -2.30   55.69
   3  -3   5  -16.80   25.50
   3  -3   5    1.00   16.50
   3  -3   5   -6.80   12.80
   3   3   5   32.60   43.30
  -3   3  -5   34.50   28.00
   3   3   5  -11.20   22.50
  -3   3  -5    7.30   21.60
   3   3   5   -9.90   23.70
  -3   3  -5   39.50   27.40
   3   3   5   11.90   35.80
   4  -3   5  259.47   21.70
   4  -3   5  183.68   30.50
   4  -3   5  266.27   35.70
   4  -3   5  305.07   33.20
   4  -3   5  231.88   17.30
  -4   3  -5  294.07   23.00
  -4   3  -5  284.07   35.30
   4   3   5  222.28   52.29
   4   3   5  215.58   31.40
   4   3   5  253.57   38.10
  -4   3  -5  275.17   36.60
  -4   3  -5  303.17   33.20
   4   3   5  205.48   43.10
   5  -3   5   96.19   14.80
   5  -3   5  103.89   53.59
   5  -3   5   69.39   18.50
   5  -3   5  111.79   21.70
  -5   3  -5  112.49   17.00
   5   3   5   94.09   41.00
  -5   3  -5  103.99   24.80
   5   3   5   88.39   25.40
  -5   3  -5   82.19   24.60
   6  -3   5  406.26   26.50
   6  -3   5  404.36   66.79
   6  -3   5  412.06   42.80
   6  -3   5  393.96   38.80
   6  -3   5  379.36   38.20
   6  -3   5  417.16   25.80
   6   3   5  404.16   48.80
   6   3   5  382.86   74.99
   6   3   5  476.35   40.30
  -6   3  -5  393.36   34.70
  -6   3  -5  362.96   42.10
  -6   3  -5  412.06   39.20
   7  -3   5   21.10   22.40
   7  -3   5   -6.50   20.20
   7  -3   5    1.70   20.40
   7  -3   5   22.70   12.10
   7  -3   5    7.90   18.20
   7  -3   5   26.10   33.80
   7   3   5   40.40   19.60
  -7   3  -5   19.80   20.60
   7   3   5   29.80   44.20
  -7   3  -5   19.00   20.10
   7   3   5    2.30   23.30
  -7   3  -5    0.70   22.30
   8  -3   5  228.58   34.30
   8  -3   5  173.38   30.00
   8  -3   5  233.38   32.00
   8  -3   5  239.48   30.80
   8  -3   5  216.98   36.90
  -8   3  -5  170.88   25.20
  -8   3  -5  198.58   32.40
  -8   3  -5  238.28   28.90
   8   3   5  172.28   23.80
   8   3   5  227.68   42.30
   9  -3   5   39.80   21.60
   9  -3   5   11.90   23.40
   9  -3   5    9.30   18.70
   9  -3   5   37.60   27.90
  -9   3  -5   16.10   20.80
   9   3   5    6.00   18.00
  -9   3  -5   -3.30   16.60
   9   3   5    1.30   21.20
  10  -3   5   70.29   27.80
  10  -3   5  127.39   24.40
  10  -3   5  157.78   28.90
  10   3   5  165.78   25.50
 -10   3  -5  155.98   24.60
  10   3   5  201.68   34.90
 -10   3  -5  162.38   20.80
  11  -3   5   24.60   14.70
  11  -3   5  -15.80   20.50
  11  -3   5   25.50   17.20
  11   3   5   23.70   12.60
  11   3   5   21.30   14.90
 -11   3  -5   12.20   12.80
  12  -3   5  -13.60   13.10
  12  -3   5   -9.20   14.10
 -12   3  -5   20.70   10.90
  12   3   5    3.40   12.80
  12   3   5   23.60   11.60
  11  -4  -5   54.19   19.40
  11  -4  -5   65.89   13.60
  11  -4  -5   32.60   21.50
 -11   4   5   55.89   19.00
  10  -4  -5   29.40   12.90
  10  -4  -5   53.29   24.40
  10  -4  -5   31.80   22.80
  10  -4  -5   66.69   18.00
 -10   4   5   16.20   23.20
 -10   4   5   13.80   12.70
   9  -4  -5   15.40   30.10
   9  -4  -5   -3.60   14.80
   9  -4  -5   19.90   21.90
   9  -4  -5   22.30   14.60
   9   4  -5   29.80   13.10
  -9   4   5   44.30   26.10
  -9   4   5   20.90   17.80
   8  -4  -5   53.29   16.20
   8  -4  -5   33.40   22.90
   8  -4  -5   52.29   18.30
   8  -4  -5   23.10   37.50
   8   4  -5   38.40   13.40
  -8   4   5   30.90   24.50
  -8   4   5    9.90   18.60
   7  -4  -5   47.50   18.10
   7  -4  -5   52.19   11.70
   7  -4  -5   53.19   23.20
   7  -4  -5   32.50   17.10
   7  -4  -5   12.20   49.60
   7  -4  -5   33.10   24.50
   7  -4  -5   87.39   20.80
  -7   4   5   34.80   20.60
  -7   4   5   56.59   24.60
   7   4  -5   58.59   13.30
   6  -4  -5  485.45   41.60
   6  -4  -5  496.95   38.90
   6  -4  -5  550.84   32.10
   6  -4  -5  616.14   54.39
   6  -4  -5  510.25   33.10
   6  -4  -5  627.54   82.39
  -6   4   5  492.85   46.40
  -6   4   5  560.84   50.19
   6   4  -5  554.34   31.90
   5  -4  -5    7.00   19.90
   5  -4  -5    8.10   12.20
   5  -4  -5   11.70   17.40
   5  -4  -5    0.30   11.50
   5  -4  -5   -9.70   26.70
  -5   4   5   41.90   26.70
  -5   4   5   10.40   24.70
  -5   4   5  -13.60   37.30
   5   4  -5   14.20   11.90
   4  -4  -5   33.80   29.40
   4  -4  -5    8.90   20.30
   4  -4  -5    0.90   11.00
   4  -4  -5   -2.10   13.30
  -4   4   5  -11.80   23.80
  -4   4   5    9.70   16.90
   4   4  -5    1.30   11.80
  -4   4   5   10.80   28.80
   4   4  -5   37.50   19.70
  -4   4   5   24.40   33.70
   3  -4  -5  166.48   27.90
   3  -4  -5  218.08   28.60
   3  -4  -5  318.97   54.89
   3  -4  -5  240.58   37.20
   3  -4  -5  230.28   21.80
  -3   4   5  136.59   28.40
   3   4  -5  194.48   24.50
  -3   4   5  222.28   34.20
   3   4  -5  246.18   32.90
  -3   4   5  292.97   40.00
  -3   4   5  241.38   40.80
   2  -4  -5   89.99   19.50
  -2  -4   5   87.59   15.90
   2  -4  -5   99.39   24.20
   2  -4  -5   67.39   33.60
   2  -4  -5  129.79   26.50
   2  -4  -5   89.09   13.30
  -2   4   5   46.80   25.40
   2   4  -5  108.89   17.40
  -2   4   5   88.49   22.60
   2   4  -5   87.89   21.30
  -2   4   5   65.89   30.40
  -1  -4   5  121.79   19.50
   1  -4  -5  182.48   21.00
   1  -4  -5  160.68   36.70
   1  -4  -5  160.98   64.49
  -1   4   5  228.98   38.10
  -1   4   5  188.48   33.40
  -1   4   5  192.18   36.40
  -1   4   5  124.99   27.70
   1   4  -5  173.48   26.10
   1   4  -5  171.68   24.00
   0  -4  -5   74.89   50.59
   0  -4  -5   72.39   14.50
   0  -4   5   62.09   11.40
   0  -4  -5   28.00   31.90
   0  -4   5  100.39   40.30
   0   4  -5   53.99   20.70
   0   4  -5   49.80   15.30
   0   4   5   64.69   20.40
   0   4   5   46.40   30.20
   0   4   5    1.80   39.10
  -1  -4  -5  375.66   29.30
   1  -4   5  335.17   32.00
   1  -4   5  339.67   22.20
   1  -4   5  358.16   55.69
  -1   4  -5  338.37   36.00
  -1   4  -5  362.36   32.40
   1   4   5  388.56   54.19
   1   4   5  385.96   44.20
   1   4   5  352.86   36.90
   1   4   5  351.76   46.30
   2  -4   5  407.96   51.19
   2  -4   5  424.96   23.30
  -2  -4  -5  455.15   31.90
   2  -4   5  417.16   45.40
   2  -4   5  340.57   28.90
   2  -4   5  450.25   61.89
  -2   4  -5  430.56   38.70
   2   4   5  406.86   41.40
  -2   4  -5  412.76   41.40
   2   4   5  379.86   55.79
  -2   4  -5  378.86   34.20
   2   4   5  345.97   49.10
   2   4   5  298.47   44.50
  -3  -4  -5  403.76   36.70
   3  -4   5  399.86   27.10
   3  -4   5  410.96   45.10
   3  -4   5  387.96   23.60
   3  -4   5  365.86   41.30
  -3   4  -5  368.06   33.70
   3   4   5  401.56   43.60
   3   4   5  386.06   58.99
  -3   4  -5  401.36   38.80
   3   4   5  364.56   42.90
  -3   4  -5  350.06   49.00
   4  -4   5   83.79   21.30
   4  -4   5   79.19   11.70
   4  -4   5   73.99   24.30
   4  -4   5   54.59   11.40
   4  -4   5   52.29   30.60
   4   4   5   49.40   22.90
   4   4   5   42.50   21.60
  -4   4  -5   36.20   19.80
  -4   4  -5   79.59   21.00
  -4   4  -5   92.19   26.90
   4   4   5   73.09   41.00
   5  -4   5  405.46   25.50
   5  -4   5  454.75   37.80
   5  -4   5  403.26   25.70
   5  -4   5  423.56   59.99
   5  -4   5  389.76   42.20
   5   4   5  514.45   78.79
  -5   4  -5  385.86   36.90
   5   4   5  402.16   41.80
  -5   4  -5  446.96   38.00
  -5   4  -5  422.96   46.40
   5   4   5  439.36   45.10
   6  -4   5   60.59   34.40
   6  -4   5   39.10   10.50
   6  -4   5   45.80   13.20
   6  -4   5   25.10   18.20
   6  -4   5   37.40   17.00
  -6   4  -5   33.40   22.20
  -6   4  -5   71.59   19.90
   6   4   5   29.30   20.90
  -6   4  -5   46.40   21.40
   6   4   5   20.20   20.20
   7  -4   5   94.39   12.40
   7  -4   5  118.49   23.50
   7  -4   5   63.49   45.90
   7   4   5  110.49   24.10
  -7   4  -5   76.69   21.00
   8  -4   5   82.69   17.90
   8  -4   5   49.90   17.00
   8  -4   5   61.49   32.90
  -8   4  -5   50.79   17.20
  -8   4  -5   72.99   18.70
   8   4   5   61.49   18.20
   8   4   5   49.60   17.80
   9  -4   5   18.70   14.40
   9  -4   5   17.30   13.90
   9  -4   5   56.69   25.90
   9  -4   5   46.00   22.10
  -9   4  -5   33.00   15.50
  -9   4  -5   15.90   16.00
   9   4   5   30.40   15.60
   9   4   5   30.40   14.30
  10  -4   5   67.59   14.40
 -10   4  -5   55.59   14.70
  10   4   5   77.59   19.60
  10   4   5   29.80   16.30
 -10   4  -5   60.89   17.70
   9  -5  -5  146.99   20.30
   9  -5  -5  121.79   16.90
  -9   5   5   95.99   14.30
  -9   5   5  153.98   17.50
   8  -5  -5   21.30   16.30
   8  -5  -5   30.20   17.70
   8  -5  -5   -0.50   11.60
  -8   5   5   19.70   14.40
   8   5  -5   13.70   11.40
  -8   5   5   20.90   16.40
   7  -5  -5    6.10    7.70
   7  -5  -5   35.00   17.20
   7  -5  -5   16.00   11.60
   7  -5  -5   22.80   17.70
   7   5  -5   37.90   10.10
  -7   5   5   22.70   16.10
  -7   5   5   19.70   17.40
   6  -5  -5   21.10   13.10
   6  -5  -5    9.90   18.20
   6  -5  -5   13.30   21.50
   6  -5  -5    6.70    7.80
   6  -5  -5   39.80   17.40
   6   5  -5   31.00   10.30
  -6   5   5   30.90   18.60
  -6   5   5   38.30   20.90
   5  -5  -5   53.69   18.20
   5  -5  -5   57.79   12.90
   5  -5  -5   40.70   23.50
   5   5  -5   77.99   13.30
  -5   5   5   75.79   23.60
  -5   5   5   57.59   19.80
   4  -5  -5  223.18   21.30
   4  -5  -5  201.28   22.00
   4  -5  -5  225.18   32.60
   4  -5  -5  228.98   33.20
  -4   5   5  189.18   26.80
   4   5  -5  241.88   21.40
  -4   5   5  248.08   32.10
   3  -5  -5  231.68   27.10
   3  -5  -5  294.67   23.80
  -3  -5   5  293.27   25.10
  -3   5   5  277.77   32.10
   3   5  -5  283.67   22.70
   2  -5  -5   70.09   15.40
   2  -5  -5  159.48   41.50
   2  -5  -5  117.49   23.70
  -2  -5   5  149.69   19.30
   2  -5  -5  101.09   15.10
  -2   5   5  122.09   20.60
   2   5  -5  115.89   27.40
   2   5  -5  111.19   15.50
  -2   5   5   98.39   19.10
  -2   5   5  110.59   28.40
  -2   5   5  125.49   26.90
   1  -5  -5  183.08   56.19
  -1  -5   5  105.89   23.40
   1  -5  -5  129.29   19.70
   1  -5  -5  130.59   37.10
   1  -5  -5  112.89   15.50
  -1  -5   5  161.48   18.40
  -1   5   5  111.79   20.60
  -1   5   5  200.28   28.90
   1   5  -5  126.39   19.80
  -1   5   5  132.79   31.30
   1   5  -5  114.49   15.50
   0  -5  -5   87.19   15.40
   0  -5  -5   43.10   19.80
   0  -5   5  110.89   41.80
   0  -5   5   75.69   16.00
   0  -5   5  112.59   16.50
   0   5  -5   94.09   15.80
   0   5   5  111.49   30.80
   0   5  -5   92.39   19.60
   0   5   5   67.59   19.00
   0   5   5   65.89   19.90
  -1  -5  -5  143.69   18.80
   1  -5   5  196.58   18.20
   1  -5   5  207.08   22.00
  -1  -5  -5  195.48   27.10
   1   5   5  190.38   31.30
   1   5   5  189.98   36.90
   1   5   5  197.28   31.60
  -1   5  -5  187.78   22.50
  -1   5  -5  210.68   25.00
   2  -5   5  185.88   37.80
   2  -5   5  283.57   44.20
   2  -5   5  210.98   17.50
   2  -5   5  206.48   29.60
  -2  -5  -5  167.78   25.70
   2   5   5  144.09   21.90
  -2   5  -5  131.59   21.00
  -2   5  -5  201.88   25.00
   2   5   5  187.08   36.70
   2   5   5  209.38   31.10
   3  -5   5   -1.10   20.50
  -3  -5  -5   12.50   17.00
   3  -5   5   13.80    9.10
   3  -5   5    9.60    9.40
   3  -5   5   26.50   21.00
  -3   5  -5   15.10   18.10
  -3   5  -5   14.70   12.60
   3   5   5   26.30   17.20
   3   5   5   97.89   28.30
   4  -5   5  233.88   18.80
   4  -5   5  243.78   32.80
  -4  -5  -5  230.48   26.10
   4  -5   5  252.97   19.20
   4  -5   5  218.58   34.60
   4   5   5  208.98   29.30
  -4   5  -5  217.28   23.90
  -4   5  -5  244.88   29.70
   4   5   5  230.68   29.70
   5  -5   5   80.09   18.70
   5  -5   5   95.89   14.10
   5  -5   5  106.59   17.60
   5  -5   5   80.89   18.40
  -5   5  -5   68.69   14.50
   5   5   5   47.20   23.80
  -5   5  -5   71.69   17.00
   5   5   5   60.59   17.40
   6  -5   5   94.69   18.20
   6  -5   5   69.49    9.40
   6  -5   5   89.89   16.80
   6  -5   5   78.79   20.40
   6  -5   5   48.60   14.50
  -6   5  -5   72.69   15.80
   6   5   5   55.79   15.70
   6   5   5   57.89   22.60
   7  -5   5   26.30   17.00
   7  -5   5   37.70   13.10
   7  -5   5   36.20   12.60
   7   5   5   15.30   13.90
  -7   5  -5   30.20   12.70
   7   5   5   27.80   21.80
   8  -5   5  144.89   26.10
   8  -5   5  137.79   22.50
   8  -5   5  121.79   16.90
  -8   5  -5  154.38   19.70
   5  -6  -5   31.20    6.80
   5  -6  -5   44.80   10.50
   5  -6  -5   39.50   15.30
   5   6  -5   42.30    8.20
  -5   6   5   35.90    8.50
   4  -6  -5    4.40    5.30
   4  -6  -5   -5.10    9.80
   4  -6  -5    7.30   19.50
  -4   6   5   -4.90    8.40
   4   6  -5    3.90    6.60
   3  -6  -5   14.20    9.10
   3  -6  -5    0.70   12.50
   3  -6  -5    6.60   23.10
   3  -6  -5    3.10    6.10
  -3   6   5    8.10   11.30
   3   6  -5    2.20    6.60
   2  -6  -5  127.99   30.80
  -2  -6   5  153.78   23.20
  -2  -6   5  148.49   18.10
   2  -6  -5  164.38   17.80
   2  -6  -5  135.59   14.20
  -2   6   5  157.58   18.10
   2   6  -5  183.18   14.10
  -1  -6   5  151.88   16.80
  -1  -6   5  161.18   18.70
   1  -6  -5  130.29   19.00
   1  -6  -5  132.09   14.50
  -1   6   5  156.58   19.20
   0  -6  -5   19.60   10.60
   0  -6  -5   22.60   15.20
   0  -6   5   37.40   12.40
   0  -6   5   28.50    9.50
   0   6   5   38.00   11.50
   0   6   5   14.50   13.60
   0   6  -5   20.30    7.60
  -1  -6  -5    7.70   11.30
   1  -6   5    7.40    7.00
   1  -6   5   -4.90    8.10
  -1  -6  -5   17.30   10.00
  -1   6  -5   25.80   14.70
   1   6   5   24.20   14.20
  -1   6  -5   13.00    7.90
   2  -6   5   69.39   10.10
  -2  -6  -5   79.19   15.00
   2  -6   5   84.09   22.80
  -2  -6  -5   73.19   13.20
   2   6   5   92.49   23.60
  -2   6  -5   44.70    9.30
  -2   6  -5   75.89   14.60
   3  -6   5   66.59   17.40
   3  -6   5   67.49   11.00
   3  -6   5   73.69   13.10
   3  -6   5   52.59    7.60
  -3   6  -5   67.59   13.00
   3   6   5  100.99   18.30
  -3   6  -5   57.99    9.00
   4  -6   5  104.59   10.80
   4  -6   5  108.99   15.80
   4  -6   5  113.49   17.30
  -4   6  -5   92.99   13.20
   4   6   5  129.19   17.30
  14   0  -6  203.48   30.80
 -14   0   6  155.38   18.20
 -14   0   6  209.28   23.80
  14   0  -6  189.48   22.00
  13   0  -6  365.76   46.20
 -13   0   6  374.26   40.00
  13   0  -6  462.85   41.10
  13   0  -6  435.76   39.00
 -13   0   6  499.05   37.30
 -13   0   6  414.96   31.50
  13   0  -6  417.46   31.70
  12   0  -6   39.90   28.60
 -12   0   6   -4.70   19.50
  12   0  -6    1.50   23.00
 -12   0   6   18.40   15.20
  12   0  -6  -16.10   30.50
 -12   0   6   -2.70   20.70
  11   0  -6  164.78   34.30
 -11   0   6  102.69   26.00
  11   0  -6  111.29   26.20
  11   0  -6   56.99   24.20
  11   0  -6   72.39   23.90
 -11   0   6   84.09   18.20
  11   0  -6   42.80   26.50
  11   0  -6   94.39   17.20
  10   0  -6   37.30   25.10
 -10   0   6  -16.30   26.10
  10   0  -6    2.80   18.50
 -10   0   6    9.90   15.80
  10   0  -6    5.10   27.30
  10   0  -6   -3.50   23.50
  10   0  -6   -5.90   14.60
  -9   0   6  371.66   30.50
   9   0  -6  369.36   47.90
  -9   0   6  366.96   57.69
   9   0  -6  371.56   41.60
   9   0  -6  308.27   50.89
  -9   0   6  409.16   41.30
   9   0  -6  416.46   63.89
   9   0  -6  405.16   33.40
   8   0  -6  150.68   25.70
  -8   0   6   84.79   37.60
   8   0  -6  170.88   28.90
  -8   0   6  170.28   34.90
   8   0  -6  169.18   26.10
  -8   0   6  226.28   35.60
  -8   0   6  151.08   23.30
   8   0  -6  160.18   31.50
   8   0  -6  197.68   32.80
  -7   0   6   25.10   13.10
   7   0  -6  -11.60   14.40
   7   0  -6   22.50   31.00
   7   0  -6   63.39   26.70
   7   0  -6   42.90   26.10
  -7   0   6   25.30   20.80
   6   0  -6  904.91   67.49
  -6   0   6  910.31   43.70
  -6   0   6  939.81   47.00
   5   0  -6   84.59   23.20
  -5   0   6   63.69   13.10
  -5   0   6  160.38   50.49
   4   0  -6   19.50   17.80
   4   0  -6   26.40    9.00
   4   0  -6   26.80    3.80
  -4   0   6   23.30    9.20
  -4   0   6   15.90   30.10
  -3   0   6  118.89   22.30
   3   0  -6  143.69   21.00
  -3   0   6   91.59   13.50
   3   0  -6  119.39    7.40
  -2   0   6 2280.77   92.79
  -2   0   6 2376.06  100.79
   2   0  -6 2275.97   99.79
   2   0  -6 2407.46   90.09
  -1   0   6  260.97   17.30
  -1   0   6  262.97   26.90
   1   0  -6  280.07   13.30
   1   0  -6  276.97   27.20
   0   0  -6   -6.60   13.40
   0   0   6    3.00    6.70
   0   0  -6    3.10    3.30
   1   0   6 1008.60   54.89
  -1   0  -6 1061.99   43.30
  -1   0  -6 1013.20   54.49
   1   0   6 1195.68   47.20
  -2   0  -6 1940.21   76.99
  -2   0  -6 1958.50   89.49
   2   0   6 1994.40   79.39
  -3   0  -6 1009.20   56.49
   3   0   6  952.70   42.70
  -3   0  -6 1025.10   41.60
  -4   0  -6   35.80   12.40
  -4   0  -6   28.60    8.00
  -4   0  -6   27.50   21.50
   4   0   6   21.00    7.20
  -5   0  -6  276.87   20.00
  -5   0  -6  228.08   37.20
  -5   0  -6  224.38   22.90
   6   0   6 2470.15  117.79
  -6   0  -6 2904.81  107.99
   6   0   6 2582.64  116.99
  -6   0  -6 2513.95  109.19
  -6   0  -6 2527.95  135.29
   6   0   6 2858.91  121.69
   7   0   6  745.73   53.69
  -7   0  -6  853.31  117.19
   7   0   6  636.64   52.99
   7   0   6  658.73   61.39
  -7   0  -6  646.84   55.89
  -7   0  -6  697.83   62.29
  -7   0  -6  647.64   39.80
  -7   0  -6  726.83   39.00
   7   0   6  693.63   51.79
   7   0   6  721.33   56.29
   7   0   6  828.12   72.59
   8   0   6  196.28   37.50
   8   0   6  176.18   32.90
  -8   0  -6  188.38   24.60
   8   0   6  225.38   45.20
  -8   0  -6  176.28   25.50
   8   0   6  217.58   33.60
  -8   0  -6  224.08   32.00
  -8   0  -6  173.38   28.20
  -9   0  -6  564.74   46.80
   9   0   6  591.14   48.60
   9   0   6  597.24   50.69
   9   0   6  562.64   50.59
  -9   0  -6  589.74   52.39
  -9   0  -6  611.24   37.30
   9   0   6  577.74   54.19
   9   0   6  622.64   50.29
 -10   0  -6   17.50   18.30
  10   0   6  -15.00   23.30
 -10   0  -6  -20.50   23.00
  10   0   6   -7.10   24.60
  10   0   6   18.10   21.90
  10   0   6    8.10   20.50
 -10   0  -6   25.70   15.00
  10   0   6    8.40   20.70
  11   0   6   89.99   24.40
  11   0   6   42.50   27.40
  11   0   6   67.29   21.30
  11   0   6   56.99   32.90
 -11   0  -6  100.29   24.60
  11   0   6   76.59   24.70
 -11   0  -6  107.89   16.70
 -11   0  -6   61.99   17.60
  12   0   6   42.10   16.50
 -12   0  -6   59.89   23.30
 -12   0  -6   44.20   14.60
 -12   0  -6   46.10   14.30
  12   0   6   27.00   25.10
  12   0   6   15.10   20.30
  13   0   6   75.09   16.40
  13   0   6   20.00   20.90
 -13   0  -6   53.89   14.20
  14  -1  -6   27.90   14.00
  14  -1  -6   27.40   39.20
 -14  -1   6   23.90   16.10
 -14  -1   6   16.90   15.00
  14  -1  -6   21.30   14.70
  14   1  -6   10.60   14.20
 -14   1   6   10.00   12.30
 -14   1   6   -3.60   17.20
  13  -1  -6   21.30   14.60
  13  -1  -6   38.50   21.40
  13  -1  -6   28.00   18.20
  13  -1  -6   43.90   16.80
  13  -1  -6   34.10   20.80
 -13  -1   6   41.40   15.70
 -13  -1   6   39.10   21.50
  13   1  -6   13.50   13.80
 -13   1   6   60.59   16.20
 -13   1   6   61.29   18.90
 -13   1   6   55.49   13.80
  12  -1  -6   21.70   18.80
  12  -1  -6   28.30   18.00
  12  -1  -6   -8.50   21.10
 -12  -1   6  -17.80   26.50
  12  -1  -6   33.40   21.60
 -12  -1   6  -11.80   16.20
  12   1  -6   -6.80   15.40
 -12   1   6   23.80   18.10
  12   1  -6   18.10   17.80
  12   1  -6   27.90   25.10
 -12   1   6   19.30   15.40
 -12   1   6   14.60   14.40
  11  -1  -6  294.07   35.50
  11  -1  -6  268.37   44.80
  11  -1  -6  321.27   34.30
 -11  -1   6  271.27   33.40
  11  -1  -6  363.66   45.10
 -11   1   6  273.57   35.40
 -11   1   6  363.66   58.29
  11   1  -6  225.58   29.20
  11   1  -6  326.67   34.20
  11   1  -6  286.77   46.50
 -11   1   6  319.37   30.80
 -11   1   6  312.67   35.50
 -10  -1   6  231.68   30.50
  10  -1  -6  234.98   34.80
  10  -1  -6  260.87   43.60
  10  -1  -6  283.97   46.80
  10   1  -6  178.98   30.90
  10   1  -6  199.48   27.30
  10   1  -6  233.88   29.00
 -10   1   6  209.78   37.20
 -10   1   6  282.47   39.10
 -10   1   6  232.68   27.80
   9  -1  -6  313.97   44.70
   9  -1  -6  366.16   37.30
   9  -1  -6  331.07   29.70
   9  -1  -6  391.96   48.00
  -9  -1   6  339.27   33.30
   9   1  -6  295.67   45.70
   9   1  -6  357.86   40.20
   9   1  -6  304.37   40.20
  -9   1   6  369.26   44.00
  -9   1   6  354.96   30.50
  -9   1   6  275.37   43.90
  -9   1   6  372.56   42.10
   8  -1  -6  633.34   54.19
   8  -1  -6  660.03   38.50
   8  -1  -6  644.84   46.80
   8  -1  -6  631.04   51.09
  -8  -1   6  662.43   39.90
   8  -1  -6  762.62   54.69
  -8   1   6  602.74   52.59
  -8   1   6  668.13   38.20
   8   1  -6  669.13   48.40
  -8   1   6  600.54   50.29
  -8   1   6  664.53   43.90
   8   1  -6  710.83   49.00
   8   1  -6  738.93   55.59
   8   1  -6  678.83   38.90
   7  -1  -6   35.70   78.59
   7  -1  -6   96.89   17.30
   7  -1  -6  131.69   30.90
   7  -1  -6  150.38   32.30
   7  -1  -6   73.49   23.70
   7  -1  -6   98.79   28.30
  -7   1   6  119.49   26.20
   7   1  -6  150.48   27.30
   7   1  -6  108.29   17.80
   7   1  -6   76.29   34.20
  -7   1   6  155.98   28.90
  -7   1   6   91.19   14.90
  -7   1   6  103.99   17.60
   6  -1  -6  206.68   36.60
  -6   1   6  303.27   23.00
  -6   1   6  292.37   24.90
   5  -1  -6  527.65   23.90
   5  -1  -6  545.35   46.50
  -5   1   6  535.65   29.40
  -5   1   6  513.65   30.70
   4  -1  -6 1222.98   48.60
  -4  -1   6  927.81   84.69
  -4  -1   6 1234.18   55.29
   4  -1  -6 1142.79   61.19
   4   1  -6 1198.78   65.09
  -4   1   6 1261.97   51.79
   4   1  -6 1202.58   53.89
  -3  -1   6  445.06   37.60
  -3  -1   6  482.85   28.90
   3  -1  -6  436.96   35.50
   3  -1  -6  506.55   21.80
  -3   1   6  477.65   24.30
   3   1  -6  439.76   38.50
   3   1  -6  427.26   28.00
  -2  -1   6  663.03   42.40
  -2  -1   6  585.34   32.40
   2  -1  -6  657.43   39.20
   2  -1  -6  597.94   32.50
   2  -1  -6  600.84   27.00
  -2   1   6  580.64   29.10
   2   1  -6  653.93   41.10
   2   1  -6  671.93   33.50
  -1  -1   6  810.32   50.29
   1  -1  -6  798.62   33.30
   1  -1  -6  804.62   44.20
  -1  -1   6  739.83   37.70
   1   1  -6  816.12   39.60
   1   1  -6  778.52   31.30
  -1   1   6  809.22   35.50
   1   1  -6  801.72   47.60
   1   1  -6  732.03   36.00
   0  -1   6  248.28   32.60
   0  -1  -6  209.88   13.40
   0  -1   6  237.88   20.20
   0  -1  -6  250.97   24.50
   0   1  -6  220.18   11.70
   0   1   6  244.98   16.00
   0   1  -6  248.08   28.20
  -1  -1  -6  779.62   44.50
   1  -1   6  725.23   61.59
   1  -1   6  777.62   37.40
  -1  -1  -6  783.42   33.10
  -1   1  -6  753.42   31.90
   1   1   6  779.52   33.50
  -1   1  -6  707.53   47.00
   2  -1   6 1258.77   56.09
  -2  -1  -6 1267.67   52.29
  -2  -1  -6 1418.26   65.29
   2   1   6 1204.58   49.80
  -2   1  -6 1374.26   68.69
   2   1   6 1258.07   50.29
  -2   1  -6 1253.97   51.89
  -3  -1  -6  794.82   49.40
   3  -1   6  719.23   36.10
  -3  -1  -6  715.73   33.40
  -3   1  -6  767.22   32.70
  -3   1  -6  672.43   38.70
  -3   1  -6  838.72   54.59
   4  -1   6  838.92   38.40
  -4  -1  -6  746.03   42.10
  -4  -1  -6  804.32   57.59
  -4  -1  -6  825.12   37.50
   4  -1   6  665.63   49.40
  -4   1  -6  856.61   61.39
  -4   1  -6  781.52   40.00
  -4   1  -6  878.81   36.30
  -5  -1  -6  103.19   34.10
   5  -1   6   82.99   12.50
  -5  -1  -6   60.49   17.20
  -5  -1  -6   73.89   15.40
  -5   1  -6   84.99   14.00
  -5   1  -6   84.49   11.80
  -5   1  -6   23.20   40.70
   6  -1   6  138.69   29.10
  -6  -1  -6  116.69   46.70
   6  -1   6  137.09   32.40
   6  -1   6   95.19   24.00
   6  -1   6  122.79   30.90
   6  -1   6  130.69   17.30
   6  -1   6  111.49   32.30
  -6  -1  -6   96.39   16.70
  -6   1  -6  130.29   23.20
  -6   1  -6  142.49   57.79
   6   1   6  128.09   32.70
   6   1   6  104.19   32.90
   6   1   6  182.98   31.90
   6   1   6  214.78   28.80
  -6   1  -6  183.78   29.80
   6   1   6  155.18   35.30
   6   1   6  198.38   47.10
  -6   1  -6  134.69   20.90
  -6   1  -6  138.39   17.90
   7  -1   6  140.59   35.40
  -7  -1  -6  144.39   19.60
   7  -1   6  114.69   28.50
   7  -1   6  188.88   36.90
   7  -1   6  279.77   43.00
   7  -1   6  147.59   32.10
  -7  -1  -6  207.28   80.09
   7   1   6  147.29   27.10
   7   1   6  152.28   49.70
   7   1   6  187.88   26.80
  -7   1  -6  184.58   28.00
  -7   1  -6  159.58   23.80
  -7   1  -6  147.89   23.70
   7   1   6  174.88   31.20
  -7   1  -6  171.28   22.50
   7   1   6  179.08   31.00
   7   1   6  186.58   33.90
   8  -1   6  145.79   28.20
   8  -1   6  170.98   29.70
  -8  -1  -6  129.49   19.10
   8  -1   6  130.29   25.40
   8   1   6  149.19   32.70
  -8   1  -6  139.09   22.00
   8   1   6  160.18   29.50
   8   1   6  113.79   29.10
   8   1   6  129.29   60.09
   8   1   6  176.08   26.20
  -8   1  -6  210.18   33.70
   8   1   6  133.29   25.70
  -8   1  -6  149.49   23.70
  -8   1  -6  170.98   27.80
   9  -1   6   51.49   35.40
   9  -1   6    2.40   23.10
   9  -1   6   12.70   24.90
  -9  -1  -6   27.40   16.10
  -9  -1  -6   33.10   27.60
   9  -1   6   38.80   23.60
   9  -1   6   58.89   22.80
   9   1   6   19.20   20.60
  -9   1  -6   14.40   18.00
   9   1   6   27.60   23.60
  -9   1  -6   11.10   15.50
  -9   1  -6   22.90   21.00
  -9   1  -6   25.00   25.10
   9   1   6   59.59   24.40
   9   1   6   24.90   25.20
   9   1   6    4.40   27.10
  10  -1   6   60.39   23.10
  10  -1   6   88.79   24.90
 -10  -1  -6   48.80   23.30
  10  -1   6   47.50   22.20
  10  -1   6   81.49   24.80
 -10  -1  -6   54.29   16.80
  10   1   6   63.29   28.20
  10   1   6   52.59   21.80
 -10   1  -6   54.99   19.00
 -10   1  -6  129.29   37.40
 -10   1  -6   39.30   17.10
 -10   1  -6   59.99   21.40
  10   1   6   57.09   23.00
  11  -1   6  -19.10   18.90
 -11  -1  -6   15.30   20.10
 -11  -1  -6   22.50   15.20
  11  -1   6   -4.00   21.50
  11  -1   6   -9.80   18.30
  11  -1   6   23.70   19.20
 -11   1  -6   17.50   17.50
 -11   1  -6   -0.30   14.40
  11   1   6   -7.00   16.30
  11   1   6   -2.50   19.90
  11   1   6    3.30   26.40
 -11   1  -6   13.60   14.60
 -12  -1  -6   60.39   16.10
  12  -1   6   19.50   18.70
  12  -1   6   44.10   17.70
  12  -1   6   28.50   16.40
  12  -1   6   30.80   17.80
 -12   1  -6   44.30   30.20
 -12   1  -6   49.50   13.00
  12   1   6   40.00   17.00
  12   1   6   49.30   17.10
  12   1   6   56.59   24.10
 -12   1  -6   60.89   17.20
  13  -1   6   84.29   17.50
 -13  -1  -6   75.09   13.10
  13  -1   6   66.19   18.50
 -13  -1  -6   54.79   14.00
 -13   1  -6   98.39   16.20
  13   1   6   55.59   15.50
 -13   1  -6   84.79   14.60
  13   1   6   53.29   17.50
  13  -2  -6  160.98   23.40
  13  -2  -6  148.79   21.80
  13  -2  -6  102.89   18.20
  13  -2  -6  124.39   22.50
  13   2  -6  159.38   23.70
 -13   2   6  161.78   22.00
 -13   2   6  160.78   19.20
  12  -2  -6    9.50   20.10
  12  -2  -6   19.90   18.10
 -12  -2   6   40.80   22.00
  12  -2  -6   40.60   23.40
  12  -2  -6   14.20   15.10
 -12   2   6   51.29   23.80
  12   2  -6   45.40   17.90
 -12   2   6    4.50   14.70
 -12   2   6   29.90   14.50
  11  -2  -6   55.59   28.50
  11  -2  -6  121.39   34.90
  11  -2  -6  109.09   31.90
 -11  -2   6   75.89   24.40
  11  -2  -6   76.19   25.40
 -11   2   6   97.69   32.60
 -11   2   6   65.79   18.30
  11   2  -6  104.19   18.20
 -11   2   6   87.89   21.00
  11   2  -6   89.79   28.80
  10  -2  -6  106.19   27.10
  10  -2  -6  114.39   21.00
  10  -2  -6  104.09   29.50
  10   2  -6  109.99   26.30
 -10   2   6  132.29   34.70
  10   2  -6   90.29   15.50
  10   2  -6   60.29   35.80
 -10   2   6  134.69   22.60
 -10   2   6   65.69   20.30
 -10   2   6   95.09   20.50
   9  -2  -6   79.99   43.10
   9  -2  -6   79.69   26.60
   9  -2  -6   43.70   29.00
   9  -2  -6   58.39   41.90
   9  -2  -6   52.09   20.60
  -9   2   6   90.79   22.40
   9   2  -6    1.70   15.20
   9   2  -6   51.29   25.50
  -9   2   6   38.10   23.90
  -9   2   6   66.99   19.90
   9   2  -6  100.19   35.80
  -9   2   6   37.10   18.00
   8  -2  -6   62.09   33.90
   8  -2  -6   13.70   54.99
   8  -2  -6   42.50   31.90
   8  -2  -6   62.89   27.60
   8  -2  -6   85.89   18.60
  -8   2   6   87.19   18.30
   8   2  -6   67.69   27.30
  -8   2   6    1.70   61.19
  -8   2   6   62.69   19.60
  -8   2   6   50.89   20.10
   8   2  -6   31.20   43.00
   8   2  -6   51.99   15.00
  -8   2   6   80.89   21.10
   7  -2  -6  181.98   38.30
   7  -2  -6  290.17  101.09
   7  -2  -6   99.89   37.80
   7  -2  -6  223.78   35.20
   7  -2  -6  155.38   23.30
   7  -2  -6  180.18   16.60
   7   2  -6  150.98   31.70
  -7   2   6  162.78   23.90
  -7   2   6  102.79   17.90
  -7   2   6  163.38   27.20
  -7   2   6  159.08   52.39
  -7   2   6  237.68   33.60
   7   2  -6  139.59   18.10
   6  -2  -6   77.79   38.90
   6  -2  -6   12.70   32.70
   6  -2  -6   31.50   20.60
   6  -2  -6    6.90   17.40
   6  -2  -6   52.09   35.60
   6  -2  -6    0.90   15.60
   6  -2  -6   16.60    8.10
   6  -2  -6   40.10   51.29
  -6   2   6  -41.20   23.60
   6   2  -6   24.70   14.70
  -6   2   6   20.40   15.00
   6   2  -6  -12.10   25.60
   6   2  -6   17.70   32.10
  -6   2   6    5.20   11.60
  -6   2   6    2.80   20.30
  -6   2   6   61.29   50.09
   5  -2  -6   76.49   13.10
   5  -2  -6   79.79   21.80
   5  -2  -6   62.99   10.00
   5  -2  -6   70.29   34.20
   5  -2  -6   47.00   18.70
   5  -2  -6   89.79   37.40
  -5   2   6   79.19   28.60
   5   2  -6   71.39   15.10
  -5   2   6   62.59   23.50
  -5   2   6   99.49   17.80
  -5   2   6   51.19   12.20
   5   2  -6   96.49   31.00
   4  -2  -6  211.98   33.60
   4  -2  -6  218.78   18.60
  -4   2   6  211.08   29.50
   4   2  -6  150.78   33.40
  -4   2   6  184.08   18.80
   3  -2  -6 1144.59   54.19
   3  -2  -6 1301.17   53.29
   3   2  -6 1275.47   66.19
  -3   2   6 1314.57   54.29
   2  -2  -6 1301.07   68.09
  -2  -2   6 1322.57   70.19
   2  -2  -6 1316.47   55.49
   2   2  -6 1335.47   66.89
   2   2  -6 1297.67   74.39
  -2   2   6 1338.67   55.79
  -1  -2   6  494.55   40.20
   1  -2  -6  570.14   27.20
  -1  -2   6  566.14   69.89
   1  -2  -6  477.85   30.30
   1  -2  -6  497.25   39.60
  -1   2   6  548.85   26.10
   1   2  -6  529.25   41.60
   1   2  -6  546.55   54.59
   0  -2   6    9.70    9.00
   0  -2  -6   25.40   14.20
   0  -2   6  -13.20   48.20
   0  -2   6   16.50   17.70
   0  -2  -6   22.30   18.20
   0  -2  -6   15.90    8.80
   0   2  -6   -5.00   26.40
   0   2  -6   10.80   14.00
  -1  -2  -6 1289.97   66.49
   1  -2   6 1261.07   52.89
  -1  -2  -6 1282.57   54.69
   1  -2   6 1294.47   61.49
  -1  -2  -6 1099.59   69.99
  -1   2  -6 1389.76   77.59
  -1   2  -6 1306.77   51.09
  -1   2  -6 1304.87   65.59
   2  -2   6  170.68   14.10
  -2  -2  -6  191.58   22.10
  -2  -2  -6  185.08   28.70
   2  -2   6  164.28   24.20
  -2  -2  -6  201.68   25.30
  -2   2  -6  149.88   40.80
  -2   2  -6  166.88   12.60
  -2   2  -6  195.48   31.80
  -3  -2  -6  680.33   45.40
   3  -2   6  617.04   40.00
   3  -2   6  695.93   31.10
  -3   2  -6  651.23   75.29
  -3   2  -6  776.92   52.29
  -3   2  -6  679.63   32.10
  -4  -2  -6  152.78   35.60
   4  -2   6  179.38   28.60
   4  -2   6  138.09   18.00
  -4  -2  -6  146.39   24.30
   4  -2   6  138.79   21.70
   4  -2   6  150.98   14.90
   4   2   6  181.58   27.70
  -4   2  -6  150.98   27.70
  -4   2  -6  185.48   55.89
   4   2   6  165.28   38.50
  -4   2  -6  217.38   35.70
  -4   2  -6  163.08   24.50
  -4   2  -6  143.99   15.60
   5  -2   6  145.19   22.50
   5  -2   6  171.68   27.00
   5  -2   6  108.39   26.00
  -5  -2  -6  151.88   45.20
   5  -2   6  126.09   19.20
  -5  -2  -6   92.59   23.30
   5  -2   6  149.69   40.20
   5  -2   6  146.39   21.20
  -5   2  -6  137.49   17.60
  -5   2  -6  147.39   24.60
  -5   2  -6  200.98   27.90
   5   2   6  152.88   31.40
  -5   2  -6  191.98   74.09
   5   2   6  155.38   23.90
   5   2   6  130.49   35.60
  -5   2  -6  217.48   47.80
  -5   2  -6  163.38   32.40
   5   2   6  116.69   49.40
  -5   2  -6  136.49   21.10
   5   2   6  100.99   43.60
   6  -2   6  -15.40   20.20
   6  -2   6   25.30   13.10
   6  -2   6    0.00   22.80
  -6  -2  -6   25.90   20.10
   6  -2   6   -0.10   13.50
   6  -2   6    9.60   30.50
   6  -2   6    1.50   23.00
  -6   2  -6   18.50   11.00
  -6   2  -6   21.00   17.20
   6   2   6   35.80   21.00
   6   2   6   37.00   34.20
   6   2   6   16.30   25.20
  -6   2  -6   30.40   28.50
  -6   2  -6    6.60   20.20
  -6   2  -6   22.70   19.10
   6   2   6  -27.70   41.80
   7  -2   6  104.59   24.90
  -7  -2  -6  155.78   22.90
   7  -2   6  131.59   19.10
   7  -2   6  145.39   25.20
   7  -2   6  157.18   33.50
   7  -2   6  122.79   23.20
   7   2   6  139.69   24.10
   7   2   6   99.89   32.30
  -7   2  -6  110.19   24.30
   7   2   6  106.49   28.50
  -7   2  -6  104.49   21.00
  -7   2  -6  126.19   20.80
  -7   2  -6  198.08   26.30
   8  -2   6  104.29   22.80
   8  -2   6  102.49   28.00
  -8  -2  -6  105.99   22.00
   8  -2   6  101.09   30.40
   8  -2   6   80.49   26.00
   8  -2   6  142.89   29.50
  -8   2  -6   86.09   32.20
  -8   2  -6   83.69   19.50
   8   2   6   93.19   21.80
   8   2   6   94.19   32.70
  -8   2  -6  101.19   23.40
   8   2   6   85.09   25.20
  -8   2  -6   97.89   21.20
   8   2   6  110.39   79.49
  -8   2  -6   91.09   22.20
   9  -2   6  145.69   29.00
   9  -2   6  171.78   29.80
   9  -2   6  125.39   26.50
   9  -2   6   99.99   23.70
   9  -2   6  112.79   29.30
  -9   2  -6  157.88   29.40
   9   2   6   66.99   32.40
  -9   2  -6  107.69   20.30
   9   2   6   90.39   24.10
  -9   2  -6  134.69   23.90
  -9   2  -6  135.79   24.30
   9   2   6   98.49   20.20
  10  -2   6  354.86   53.19
 -10  -2  -6  308.67   32.60
  10  -2   6  259.27   38.40
  10  -2   6  265.77   41.60
 -10   2  -6  328.57   40.70
  10   2   6  203.58   35.20
  11  -2   6   35.00   19.50
  11  -2   6   66.99   20.00
 -11  -2  -6   44.00   17.80
  11  -2   6   35.00   18.70
  11  -2   6   57.89   19.50
 -11  -2  -6   30.60   25.00
 -11   2  -6   57.89   14.90
 -11   2  -6   48.60   15.40
  11   2   6   55.19   17.10
  11   2   6   36.40   16.30
  12  -2   6  -33.00   19.20
  12  -2   6    2.30   14.40
 -12  -2  -6    4.90   18.30
 -12  -2  -6   -2.40   14.60
  12   2   6   25.20   12.80
 -12   2  -6  -23.70   15.70
 -12   2  -6   -1.60   16.00
 -12   2  -6    4.20   12.80
  12   2   6   20.50   13.70
  12  -3  -6  100.89   19.20
  12  -3  -6   97.39   14.20
  12   3  -6  100.99   23.70
 -12   3   6  107.49   21.90
 -12   3   6  128.49   17.80
  11  -3  -6  -16.60   21.00
  11  -3  -6   17.10   13.60
  11  -3  -6   49.40   23.60
 -11   3   6  -20.90   21.20
  11   3  -6   30.30   15.30
  11   3  -6   25.20   23.20
 -11   3   6    1.10   15.00
 -11   3   6   54.69   40.80
  10  -3  -6  134.39   25.50
  10  -3  -6  113.79   28.40
  10  -3  -6   88.99   35.80
  10  -3  -6  100.59   34.30
  10  -3  -6  145.09   20.90
  10   3  -6   67.39   15.60
 -10   3   6   76.69   38.10
 -10   3   6  115.39   21.40
  10   3  -6   76.09   26.00
   9  -3  -6  222.68   30.90
   9  -3  -6  138.69   34.20
   9  -3  -6  216.38   37.90
   9  -3  -6  211.98   33.80
   9   3  -6  175.38   33.20
  -9   3   6  137.99   37.10
  -9   3   6  121.89   35.40
  -9   3   6  115.99   21.50
  -9   3   6  189.78   25.20
   9   3  -6  146.49   22.70
   8  -3  -6  336.57   46.40
   8  -3  -6  357.06   58.09
   8  -3  -6  299.87   42.00
   8  -3  -6  316.97   30.50
   8  -3  -6  317.37   34.70
   8  -3  -6  389.76   53.79
   8   3  -6  353.16   27.20
  -8   3   6  273.57   46.00
  -8   3   6  395.76   59.09
  -8   3   6  364.26   44.80
  -8   3   6  282.97   38.00
   7  -3  -6  218.58   47.40
   7  -3  -6  267.67   26.40
   7  -3  -6  194.58   34.40
   7  -3  -6  256.87   51.89
   7  -3  -6  299.07   34.10
  -7   3   6  247.78   39.00
   7   3  -6  235.98   23.90
  -7   3   6  268.67   30.60
  -7   3   6  245.08   30.90
   6  -3  -6  925.01   47.60
   6  -3  -6  932.61   52.39
   6  -3  -6  955.50   46.10
   6  -3  -6 1058.69   70.59
   6  -3  -6  917.01   46.80
  -6   3   6  944.61   71.39
   6   3  -6  985.20   46.70
  -6   3   6  885.11   50.89
  -6   3   6 1035.80   59.59
   5  -3  -6   72.09   30.10
   5  -3  -6   39.90   20.70
   5  -3  -6   41.00   12.40
   5  -3  -6   43.50   57.99
   5  -3  -6   43.00   15.40
   5   3  -6    1.00   28.50
  -5   3   6   53.49   29.00
  -5   3   6   78.79   26.90
  -5   3   6   33.30   44.80
   5   3  -6   33.80   13.80
  -5   3   6   55.69   18.80
   4  -3  -6  166.58   18.40
   4  -3  -6  174.78   25.00
   4  -3  -6  120.09   20.40
   4  -3  -6  211.48   27.30
   4  -3  -6  204.08   37.10
   4   3  -6  176.28   31.70
   4   3  -6  160.98   22.50
  -4   3   6  205.08   33.70
  -4   3   6  152.08   23.80
  -4   3   6  205.08   33.20
   4   3  -6  129.09   23.60
  -4   3   6  184.88   43.30
  -4   3   6  126.79   35.00
   3  -3  -6   22.40   11.40
   3  -3  -6   12.50   10.80
   3  -3  -6   14.50   18.40
   3  -3  -6  -30.10   42.80
   3  -3  -6   -3.40   34.00
  -3   3   6   28.40   23.80
   3   3  -6   25.70   18.90
   3   3  -6    3.80   14.30
   3   3  -6   -6.80   30.20
   3   3  -6   12.80   48.30
  -3   3   6  -16.20   41.40
  -3   3   6   13.50   34.40
  -3   3   6  -17.20   20.00
  -2  -3   6  170.68   27.70
   2  -3  -6  137.29   26.90
   2  -3  -6  159.18   38.20
   2  -3  -6  144.69   39.40
   2  -3  -6  152.38   22.10
   2  -3  -6  161.98   19.00
   2   3  -6  172.88   44.40
  -2   3   6  159.18   31.80
  -2   3   6  164.68   25.20
  -2   3   6  121.59   26.90
  -2   3   6  148.49   38.30
   2   3  -6  154.48   23.00
   2   3  -6  185.68   25.60
   2   3  -6  157.98   34.70
  -1  -3   6   27.20   11.30
   1  -3  -6   19.30   12.70
   1  -3  -6   31.70   16.00
   1  -3  -6   13.40   35.10
   1  -3  -6   19.50   42.40
   1   3  -6   -4.40   21.70
  -1   3   6   28.20   21.30
  -1   3   6   70.99   27.20
   1   3  -6   42.90   30.10
  -1   3   6   10.60   23.90
  -1   3   6   29.90   38.00
   1   3  -6   -0.30   30.80
  -1   3   6    4.10   34.90
   1   3  -6   23.70   16.20
   0  -3  -6  365.16   33.90
   0  -3  -6  351.46   28.00
   0  -3   6  423.36   44.40
   0  -3   6  356.56   21.30
   0  -3  -6  367.26   47.40
   0   3   6  263.37   43.70
   0   3   6  353.96   36.10
   0   3  -6  311.67   33.40
   0   3   6  278.37   41.60
   0   3   6  289.17   37.10
   0   3  -6  325.47   39.00
   0   3  -6  332.07   38.40
   0   3  -6  347.07   44.20
   0   3   6  390.26   46.90
   1  -3   6  238.88   16.80
   1  -3   6  230.48   24.30
   1  -3   6  193.28   39.70
  -1  -3  -6  252.87   26.40
  -1  -3  -6  241.98   45.50
   1  -3   6  362.26   59.89
   1   3   6  166.18   39.00
   1   3   6  242.98   43.50
  -1   3  -6  302.07   35.70
  -1   3  -6  249.08   28.60
   1   3   6  157.88   29.90
  -1   3  -6  248.98   27.90
   1   3   6  316.77   38.40
   1   3   6  253.87   41.10
  -2  -3  -6   23.30   46.80
   2  -3   6   32.40   31.90
  -2  -3  -6   84.69   18.20
   2  -3   6   84.69   29.90
   2  -3   6   47.60    9.30
   2  -3   6   82.69   15.50
   2   3   6   65.79   38.20
   2   3   6   32.10   35.40
   2   3   6   60.09   24.00
   2   3   6   21.80   27.00
  -2   3  -6   48.70   24.20
  -2   3  -6   63.49   22.20
  -2   3  -6   86.19   27.10
   2   3   6   56.99   23.60
   3  -3   6  361.66   45.50
   3  -3   6  351.96   43.80
   3  -3   6  244.58   34.20
   3  -3   6  299.37   18.70
  -3  -3  -6  267.67   38.20
   3  -3   6  319.97   23.90
  -3   3  -6  296.27   31.90
  -3   3  -6  293.97   44.20
   3   3   6  281.87   48.70
   3   3   6  245.88   38.90
   3   3   6  197.98   41.80
   3   3   6  327.57   39.50
  -3   3  -6  264.47   32.80
   4  -3   6   37.10   11.00
   4  -3   6   39.40   23.90
   4  -3   6   27.10   18.90
  -4  -3  -6   30.00   27.90
   4  -3   6   48.40   20.70
   4  -3   6   22.70    8.30
  -4   3  -6   39.00   19.90
   4   3   6   16.00   22.20
  -4   3  -6   54.59   23.30
   4   3   6   29.90   44.30
   4   3   6   52.39   25.00
  -4   3  -6   42.20   13.90
   4   3   6   -3.10   34.00
   5  -3   6  241.38   18.40
   5  -3   6  213.58   27.90
   5  -3   6  249.78   21.10
   5  -3   6  239.38   36.70
   5  -3   6  250.07   80.69
   5  -3   6  235.78   37.60
  -5   3  -6  191.18   28.70
   5   3   6  232.38   31.80
   5   3   6  266.77   34.80
  -5   3  -6  182.98   26.30
   5   3   6  190.88   42.20
  -5   3  -6  253.37   37.40
   6  -3   6  427.86   27.20
   6  -3   6  449.86   27.20
   6  -3   6  486.35   39.80
   6  -3   6  411.36   41.10
   6  -3   6  462.65   71.19
   6  -3   6  394.46   50.69
  -6   3  -6  397.96   40.00
   6   3   6  380.96   39.30
   6   3   6  286.47   46.50
   6   3   6  386.46   47.10
  -6   3  -6  405.06   39.70
   7  -3   6   -1.00   12.40
   7  -3   6   48.00   20.40
   7  -3   6   13.30   24.50
   7  -3   6   30.10   35.10
   7  -3   6    6.30   17.10
   7  -3   6   22.90   20.90
   7   3   6   22.40   23.20
  -7   3  -6   34.70   21.60
  -7   3  -6    2.10   25.30
   7   3   6   -5.30   19.10
  -7   3  -6   39.70   21.10
   7   3   6   62.19   42.30
   8  -3   6   33.20   19.30
   8  -3   6   10.70   18.60
   8  -3   6   20.30   28.90
   8  -3   6   25.40   21.20
  -8  -3  -6    9.60   24.30
  -8   3  -6   41.60   36.10
  -8   3  -6   41.00   18.10
   8   3   6   14.90   18.40
  -8   3  -6   28.20   20.80
   8   3   6   51.99   21.70
   9  -3   6  236.58   34.90
   9  -3   6  205.38   30.60
   9  -3   6  228.98   40.60
   9  -3   6  190.28   31.20
  -9  -3  -6  179.18   27.50
  -9   3  -6  256.27   39.00
   9   3   6  214.28   30.00
  -9   3  -6  229.68   31.10
   9   3   6  246.78   37.60
  10  -3   6   27.70   23.40
  10  -3   6   78.69   21.40
  10  -3   6   91.39   18.60
 -10  -3  -6   81.79   24.50
 -10   3  -6  106.49   17.80
  10   3   6   77.19   17.50
 -10   3  -6  114.09   27.50
  10   3   6   63.59   14.40
  11  -3   6   14.20   16.80
  11  -3   6   26.20   15.10
  11  -3   6   66.19   25.80
  11   3   6   56.99   15.10
 -11   3  -6   37.60   12.30
  11   3   6   40.80   14.10
  11  -4  -6   13.90   17.50
  11  -4  -6    8.00   11.40
 -11   4   6   32.10   12.60
  10  -4  -6   50.29   13.90
  10  -4  -6   23.60   27.00
  10  -4  -6   57.39   18.60
  10  -4  -6   56.29   24.40
 -10   4   6   82.69   24.50
 -10   4   6   52.59   15.40
  10   4  -6   41.70   13.40
   9  -4  -6   67.99   17.20
   9  -4  -6   60.99   22.40
   9  -4  -6   80.99   31.20
   9  -4  -6   75.59   15.30
  -9   4   6   75.29   26.60
   9   4  -6   76.49   13.20
  -9   4   6   83.09   18.80
   8  -4  -6   19.60   23.90
   8  -4  -6   48.60   16.40
   8  -4  -6   52.59   36.20
   8  -4  -6   51.09   18.20
  -8   4   6   58.49   21.10
  -8   4   6   76.99   26.60
   8   4  -6   38.10   13.00
   7  -4  -6  333.57   44.70
   7  -4  -6  300.27   23.00
   7  -4  -6  275.67   95.29
   7  -4  -6  329.47   31.80
   7  -4  -6  360.26   34.00
  -7   4   6  249.78   36.50
  -7   4   6  327.07   45.00
   7   4  -6  262.47   23.30
   6  -4  -6  450.95   68.89
   6  -4  -6  399.16   29.60
   6  -4  -6  367.66   48.30
   6  -4  -6  402.66   35.10
   6  -4  -6  402.26   28.20
   6  -4  -6  358.86   39.30
  -6   4   6  398.46   46.20
  -6   4   6  407.96   43.30
  -6   4   6  408.36   69.99
   6   4  -6  409.36   27.80
   5  -4  -6   45.60   28.40
   5  -4  -6   40.70   20.10
   5  -4  -6   31.60   13.00
   5  -4  -6   24.70   18.20
  -5   4   6   17.60   25.90
  -5   4   6   10.40   26.50
  -5   4   6    9.40   36.90
  -5   4   6   34.10   16.10
   5   4  -6    7.10   12.90
   4  -4  -6  115.79   19.70
   4  -4  -6  124.79   23.60
   4  -4  -6   98.29   17.30
   4  -4  -6   90.99   21.20
   4  -4  -6  122.09   29.10
  -4   4   6   99.69   19.80
  -4   4   6   72.99   25.90
  -4   4   6   98.19   36.20
  -4   4   6  128.29   33.90
   4   4  -6  124.39   21.00
   4   4  -6  119.79   16.50
   3  -4  -6  150.18   25.70
   3  -4  -6  107.89   22.30
   3  -4  -6  125.19   18.40
   3  -4  -6   96.49   30.30
   3  -4  -6  129.79   19.10
   3   4  -6  103.59   20.90
  -3   4   6  121.69   41.10
   3   4  -6  148.99   21.30
  -3   4   6   93.79   32.00
  -3   4   6  109.09   26.40
  -3   4   6  120.49   21.90
   2  -4  -6    4.20   16.20
   2  -4  -6   20.10   11.10
   2  -4  -6    4.40   23.50
  -2  -4   6   19.60   11.40
   2  -4  -6   22.10   33.50
   2   4  -6   20.50   17.60
  -2   4   6   34.20   23.80
   2   4  -6   14.10   13.00
  -2   4   6   10.40   30.00
  -2   4   6    7.40   19.60
  -1  -4   6  249.48   19.60
   1  -4  -6  199.88   26.10
   1  -4  -6  188.48   41.60
   1  -4  -6  246.78   22.90
  -1   4   6  164.38   34.30
  -1   4   6  243.28   40.00
  -1   4   6  248.68   36.20
   1   4  -6  200.38   30.10
   1   4  -6  259.47   26.60
   1   4  -6  199.78   35.10
  -1   4   6  290.67   45.70
   0  -4   6   63.09   10.30
   0  -4  -6   15.00   25.00
   0  -4   6   69.29   20.20
   0  -4  -6   94.79   15.40
   0  -4   6   21.40   33.90
   0  -4  -6   71.19   44.70
   0   4  -6   65.79   15.80
   0   4  -6   53.79   21.40
   0   4   6   55.89   24.40
   0   4   6   87.59   28.10
   0   4   6   38.00   19.40
   0   4   6   29.50   30.50
   0   4  -6   86.89   30.90
   1  -4   6 1366.76   57.19
  -1  -4  -6 1348.37   61.39
   1  -4   6 1295.27   77.29
   1  -4   6 1324.67   61.49
   1   4   6 1427.66   70.99
   1   4   6 1355.96   71.29
  -1   4  -6 1443.06   76.79
  -1   4  -6 1433.76   68.59
   1   4   6 1171.88   81.29
   1   4   6 1242.58   71.39
  -1   4  -6 1373.36   63.49
   1   4   6 1266.57   73.29
   2  -4   6  217.58   43.00
   2  -4   6  284.37   47.10
   2  -4   6  166.08   16.90
   2  -4   6  224.88   23.20
  -2  -4  -6  235.48   25.90
   2  -4   6  211.88   31.40
   2   4   6  183.88   34.30
  -2   4  -6  220.68   28.80
  -2   4  -6  180.48   24.70
   2   4   6  190.38   28.90
   2   4   6  143.99   35.20
  -2   4  -6  181.18   30.40
   3  -4   6   59.39   22.80
   3  -4   6   22.80   21.40
   3  -4   6    9.40    8.70
  -3  -4  -6   50.89   18.50
   3  -4   6   40.30   36.50
   3  -4   6   27.10   11.40
   3   4   6   11.50   21.90
  -3   4  -6   26.60   26.10
  -3   4  -6   15.40   18.10
   3   4   6   20.60   20.40
  -3   4  -6   23.90   18.90
   3   4   6   10.10   32.90
   4  -4   6   70.29   22.30
   4  -4   6   55.49   11.50
   4  -4   6   59.59   34.90
   4  -4   6   25.70   19.70
   4   4   6  104.19   38.40
  -4   4  -6   52.19   23.10
  -4   4  -6   39.20   19.60
  -4   4  -6   66.09   20.70
   4   4   6   64.19   23.00
   4   4   6   84.49   21.40
   5  -4   6  624.04   68.59
   5  -4   6  567.64   41.30
  -5  -4  -6  624.14   46.10
   5  -4   6  591.14   31.40
   5  -4   6  524.05   43.50
   5  -4   6  589.94   30.80
   5   4   6  534.35   48.10
   5   4   6  534.25   42.70
  -5   4  -6  584.54   46.20
   5   4   6  440.16   75.69
  -5   4  -6  524.65   40.70
  -5   4  -6  538.65   42.20
   6  -4   6   61.69   11.10
   6  -4   6   88.49   15.30
   6  -4   6   95.99   20.30
   6  -4   6   66.39   17.80
   6   4   6   83.29   21.50
   6   4   6   57.29   21.30
  -6   4  -6   52.19   18.20
  -6   4  -6   60.69   20.20
   7  -4   6   77.99   42.90
   7  -4   6   68.99   19.30
   7  -4   6   72.79   18.50
   7  -4   6   88.79   19.80
   7  -4   6   65.69   11.90
  -7   4  -6   75.69   20.50
   7   4   6   68.89   21.00
   7   4   6   42.00   18.10
  -7   4  -6   54.49   18.50
   8  -4   6    2.20   15.20
   8  -4   6   14.80   14.60
   8  -4   6   13.20   16.10
   8  -4   6   59.89   32.20
  -8   4  -6   22.10   15.80
   8   4   6   13.10   17.00
   8   4   6   21.50   15.00
  -8   4  -6   16.40   16.40
   9  -4   6   17.30   25.30
   9  -4   6   36.20   14.00
   9  -4   6   20.10   25.00
   9  -4   6   -0.70   14.30
   9   4   6   10.90   13.70
  -9   4  -6   51.49   16.80
  -9   4  -6    9.80   14.00
   9   4   6    7.20   13.70
  10  -4   6   97.89   15.40
  10  -4   6   60.89   19.90
 -10   4  -6   91.29   14.60
  10   4   6   75.99   14.90
  10   4   6  115.59   20.40
   9  -5  -6   43.10   19.00
  -9   5   6   30.80    9.30
  -9   5   6   38.60   14.20
   8  -5  -6   42.10   17.00
   8  -5  -6   35.20   15.40
   8  -5  -6   24.60   14.80
   8   5  -6   40.60   10.30
  -8   5   6   29.70   15.50
  -8   5   6   61.79   15.10
   7  -5  -6  197.98   23.70
   7  -5  -6  183.18   31.20
   7  -5  -6  160.08   18.10
  -7   5   6  194.98   26.70
  -7   5   6  180.28   22.40
   7   5  -6  149.49   17.20
   6  -5  -6   -7.50   14.80
   6  -5  -6   31.20   15.50
   6  -5  -6    5.80   13.50
   6  -5  -6    4.80   20.60
   6  -5  -6   14.00    8.10
  -6   5   6   21.30   22.00
   6   5  -6    6.50    9.00
  -6   5   6   20.20   17.00
   5  -5  -6    7.60    8.40
   5  -5  -6   33.20   12.60
   5  -5  -6   15.40   20.90
   5  -5  -6   -7.40   15.40
   5   5  -6   11.70   10.40
  -5   5   6   49.99   18.60
  -5   5   6   14.70   23.60
   4  -5  -6   72.49   12.90
   4  -5  -6   60.59   11.90
   4  -5  -6   56.79   24.60
   4  -5  -6   55.29   17.20
   4   5  -6   63.39   11.80
  -4   5   6   57.69   21.90
   3  -5  -6   29.10   12.30
   3  -5  -6   18.10   25.90
  -3  -5   6   37.90   13.40
   3  -5  -6   29.70   12.10
   3  -5  -6   27.60   18.20
  -3   5   6   20.40   27.80
   3   5  -6   27.60   14.20
  -3   5   6   31.80   21.90
  -2  -5   6  149.88   18.40
   2  -5  -6  149.29   22.30
   2  -5  -6  113.69   34.00
   2  -5  -6  132.99   20.40
  -2   5   6  104.89   19.10
  -2   5   6  103.59   28.80
  -2   5   6  125.69   35.20
   2   5  -6  142.59   19.80
   2   5  -6   98.89   24.60
   1  -5  -6  208.58   22.90
  -1  -5   6  168.38   26.90
   1  -5  -6  267.47   40.40
  -1  -5   6  212.88   19.40
   1  -5  -6  231.68   26.00
  -1   5   6  179.88   32.10
  -1   5   6  225.88   31.50
   1   5  -6  206.08   32.30
   1   5  -6  233.48   21.10
  -1   5   6  261.47   32.10
   0  -5  -6  179.18   26.00
   0  -5   6  138.79   21.80
   0  -5  -6  153.98   22.30
   0  -5  -6  232.18   47.40
   0  -5   6  171.18   33.00
   0  -5   6  156.48   16.80
   0  -5  -6  138.79   20.70
   0   5  -6  146.89   20.10
   0   5  -6  129.09   19.90
   0   5   6  184.38   34.00
   0   5   6  170.48   24.30
   0   5   6  228.48   30.70
   1  -5   6  191.58   30.50
   1  -5   6  168.48   16.80
  -1  -5  -6  132.99   22.00
   1  -5   6  149.29   21.70
  -1  -5  -6  203.48   34.30
  -1  -5  -6  208.78   26.90
   1   5   6  210.38   31.70
   1   5   6  159.28   37.00
   1   5   6  184.58   29.00
  -1   5  -6  221.08   35.60
   2  -5   6  155.88   24.50
   2  -5   6  167.28   19.40
  -2  -5  -6  157.38   26.80
  -2  -5  -6  148.39   23.80
   2  -5   6  159.28   16.10
  -2   5  -6  130.29   22.80
   2   5   6  212.98   36.60
  -2   5  -6  149.79   22.60
   2   5   6  135.99   32.50
   2   5   6  160.48   29.40
   3  -5   6   30.90   41.70
   3  -5   6   16.40   18.90
   3  -5   6   23.90    8.80
  -3  -5  -6   10.40   16.70
   3  -5   6   28.30    9.60
  -3   5  -6   59.99   17.70
   3   5   6   47.70   16.90
   3   5   6   73.89   25.00
  -3   5  -6   42.80   13.20
   4  -5   6  123.29   23.70
   4  -5   6   88.89   11.70
  -4  -5  -6   76.99   22.80
   4  -5   6   84.09   19.30
   4  -5   6   94.39   14.90
  -4   5  -6   82.79   17.50
   4   5   6  107.49   23.40
  -4   5  -6  118.59   16.10
   4   5   6  147.69   27.20
  -5  -5  -6   11.50   23.20
   5  -5   6   41.70    8.40
   5  -5   6   85.69   16.80
   5  -5   6   38.50   19.50
   5  -5   6   43.10   14.50
   5  -5   6   47.70   19.70
  -5   5  -6   47.30   15.70
   5   5   6   52.99   21.10
  -5   5  -6   55.99   35.50
  -5   5  -6   48.00   14.50
   5   5   6   63.29   15.50
   6  -5   6   42.40   18.70
   6  -5   6   45.30   13.40
   6  -5   6   50.79    8.90
   6  -5   6   59.69   14.90
  -6   5  -6   66.59   14.60
   6   5   6   32.90   24.00
   6   5   6   53.09   13.90
   7  -5   6   69.69   17.10
   7  -5   6   32.70   11.30
   7  -5   6   35.20   15.40
   7   5   6   63.99   20.60
  -7   5  -6   56.59   12.90
   7   5   6   64.69   14.70
   8  -5   6   -5.00   10.50
   8   5   6   32.70   14.80
  -8   5  -6    8.60   11.20
   4  -6  -6   -3.70    9.50
   4  -6  -6   27.50   19.30
   4  -6  -6   12.00    5.50
   4   6  -6   14.20    6.70
  -4   6   6    6.70    8.60
   3  -6  -6   22.50    6.90
   3  -6  -6   -4.90   22.30
   3  -6  -6    4.00   10.30
   3  -6  -6   -4.60    9.60
   3   6  -6   16.10    8.30
  -3   6   6   15.60    9.70
   2  -6  -6  122.99   30.40
  -2  -6   6  100.39   13.60
   2  -6  -6   96.89   13.20
   2  -6  -6  153.58   16.50
  -2   6   6  114.59   15.70
   2   6  -6  105.59   11.90
  -1  -6   6   37.20    9.10
   1  -6  -6   33.50   10.10
   1  -6  -6   26.00   10.40
  -1  -6   6   55.09   20.20
  -1  -6   6   48.50   10.00
   1   6  -6   52.49    8.20
  -1   6   6   47.90   11.90
   0  -6   6   20.20    7.70
   0  -6   6   21.70    9.20
   0  -6   6   45.40   15.70
   0  -6  -6   32.50   10.70
   0  -6  -6   33.80    8.60
   0   6  -6   12.50    6.70
   0   6   6    5.40   12.60
   1  -6   6   61.49    8.10
   1  -6   6   81.19   15.00
  -1  -6  -6   61.29   12.50
   1  -6   6   57.29    9.70
  -1   6  -6   40.00   13.60
  -1   6  -6   45.30    9.90
   1   6   6   73.69   18.80
   2  -6   6   28.70   12.60
   2  -6   6   20.70    6.40
   2  -6   6  -33.10   25.90
  -2  -6  -6   26.40   11.00
   2  -6   6   27.10    9.50
   2   6   6   32.70   13.90
  -2   6  -6   35.80   12.00
  -2   6  -6   21.50    7.70
   3  -6   6   11.10   11.50
   3  -6   6   15.40    5.20
   3  -6   6  -23.70   15.80
   3   6   6   30.20   13.60
  -3   6  -6   38.30   11.50
  -3   6  -6    5.50   11.50
 -14   0   7  122.29   23.20
 -14   0   7  116.59   15.60
  14   0  -7   96.79   14.60
  13   0  -7  251.27   27.20
  13   0  -7  204.08   27.80
  13   0  -7  299.47   37.20
 -13   0   7  263.07   26.40
 -13   0   7  318.17   31.50
 -13   0   7  259.17   31.20
 -12   0   7  -15.20   18.30
 -12   0   7   12.10   14.50
 -12   0   7  -10.00   17.70
  12   0  -7   28.10   23.80
  12   0  -7   19.00   16.40
  12   0  -7   -5.30   24.20
  12   0  -7   66.99   47.00
  11   0  -7   35.30   26.00
 -11   0   7   23.10   22.30
  11   0  -7   -0.80   13.70
  11   0  -7   21.80   24.80
 -11   0   7    6.50   15.50
  11   0  -7   -7.60   19.30
  11   0  -7   85.69   35.20
  11   0  -7   19.30   24.90
  10   0  -7   98.09   23.20
 -10   0   7  115.89   28.20
  10   0  -7   73.29   16.50
  10   0  -7   62.39   26.60
 -10   0   7   49.00   16.80
 -10   0   7   54.39   26.20
  10   0  -7   56.99   26.90
  10   0  -7   75.79   27.50
  -9   0   7   95.39   16.50
   9   0  -7  130.79   26.20
   9   0  -7   89.39   30.10
   9   0  -7  120.39   18.50
   9   0  -7   65.59   27.40
   8   0  -7   28.80   27.20
   8   0  -7   12.60   29.50
   8   0  -7    9.90   27.50
  -8   0   7   27.50   22.80
  -8   0   7  -18.60   29.30
   8   0  -7   19.90   23.30
   8   0  -7   26.70   14.70
  -8   0   7   33.70   14.00
  -8   0   7   71.69   33.40
   7   0  -7  156.28   24.60
   7   0  -7  171.78   28.30
   7   0  -7  148.79   28.30
  -7   0   7  103.89   46.10
  -7   0   7  179.28   28.80
  -7   0   7  161.88   26.20
  -6   0   7   39.20   16.80
   6   0  -7   30.10   54.79
  -6   0   7   50.79   12.10
   5   0  -7  124.59   31.40
  -5   0   7   82.29   14.50
   4   0  -7 1754.42   86.39
  -4   0   7 1706.03   74.99
  -4   0   7 1761.62   74.29
   4   0  -7 1825.32   70.39
   4   0  -7 1787.02   68.69
  -4   0   7 1857.01  102.99
   3   0  -7  113.99   14.50
   3   0  -7  167.08   25.00
  -3   0   7  110.19   15.70
   3   0  -7  116.59    8.10
  -3   0   7  109.59   28.70
  -2   0   7  991.70   57.39
  -2   0   7  945.11   43.60
   2   0  -7 1028.60   55.49
   2   0  -7  969.40   39.40
  -1   0   7  242.88   35.10
  -1   0   7  208.78   16.90
   1   0  -7  198.68   11.30
   1   0  -7  210.58   30.60
   0   0   7  262.37   18.90
   0   0  -7  267.07   13.50
   0   0  -7  254.97   31.80
  -1   0  -7 1882.21   73.89
  -1   0  -7 1788.32   87.79
   1   0   7 1955.40   77.59
  -2   0  -7  210.68   30.50
   2   0   7  209.28   16.90
  -2   0  -7  206.58   13.00
  -3   0  -7  341.87   43.30
  -3   0  -7  335.27   18.50
   3   0   7  341.37   20.50
   4   0   7    9.90    8.00
  -4   0  -7   10.60    7.40
  -4   0  -7   15.60   28.80
  -4   0  -7   25.60   12.50
  -5   0  -7  684.93   33.30
  -5   0  -7  596.74   35.00
  -5   0  -7  620.54   69.29
   6   0   7 1174.18   74.29
   6   0   7 1051.99   65.19
  -6   0  -7 1234.88   67.69
  -6   0  -7 1059.89   76.59
   6   0   7 1127.79   70.59
  -6   0  -7 1108.09   51.29
   6   0   7 1113.59   77.29
  -6   0  -7 1045.80  102.19
   6   0   7 1065.19   65.09
  -6   0  -7 1151.38   52.69
  -7   0  -7   64.69   24.50
   7   0   7   21.40   23.50
  -7   0  -7    9.80   13.20
  -7   0  -7   23.10   16.20
  -7   0  -7    6.70   32.70
   7   0   7   30.50   33.70
   7   0   7   25.70   30.10
   7   0   7   54.49   32.20
   7   0   7   57.29   26.70
   7   0   7   24.60   26.10
   8   0   7   82.89   27.90
  -8   0  -7  115.79   23.90
  -8   0  -7   74.99   29.10
   8   0   7  172.38   39.20
  -8   0  -7  103.89   17.50
   8   0   7   89.39   28.30
  -8   0  -7   80.79   23.80
   8   0   7  137.59   25.60
   8   0   7  107.69   31.30
   8   0   7  105.79   27.50
  -9   0  -7   95.99   38.20
   9   0   7   92.09   26.60
  -9   0  -7   93.09   28.70
   9   0   7  126.59   24.20
  -9   0  -7  100.09   22.80
  -9   0  -7   99.59   17.70
   9   0   7   48.80   24.40
   9   0   7  208.48   43.40
   9   0   7  101.99   29.30
   9   0   7  104.49   24.50
  10   0   7    5.00   20.10
  10   0   7   24.70   20.90
  10   0   7   23.90   19.80
  10   0   7   14.00   25.30
 -10   0  -7   19.80   15.50
 -10   0  -7   24.40   18.00
  10   0   7   39.40   25.90
 -10   0  -7   18.20   25.20
 -11   0  -7   30.60   24.20
  11   0   7  -36.00   25.60
 -11   0  -7   18.30   16.10
 -11   0  -7    9.00   13.60
  11   0   7    5.10   18.70
  11   0   7   31.80   19.30
  11   0   7    5.50   20.70
  12   0   7   92.99   21.10
 -12   0  -7   58.29   22.50
 -12   0  -7  102.89   15.40
  12   0   7   95.89   18.50
  13   0   7   36.30   15.80
  13   0   7   78.19   20.10
 -13   0  -7   49.90   14.80
 -14  -1   7  210.48   28.40
  14  -1  -7  112.09   18.70
  14  -1  -7  151.98   20.30
 -14   1   7  139.59   19.40
  14   1  -7  168.18   20.80
 -14   1   7  212.68   34.30
  13  -1  -7  162.58   21.00
 -13  -1   7  156.48   24.30
  13  -1  -7  148.79   18.80
  13  -1  -7  233.38   32.80
  13  -1  -7  151.88   20.30
  13  -1  -7  165.28   24.60
 -13  -1   7  184.38   24.10
 -13   1   7  238.98   29.10
 -13   1   7  199.38   25.40
 -13   1   7  195.88   25.00
  13   1  -7  189.38   24.10
  12  -1  -7   -1.30   18.20
  12  -1  -7   31.90   22.30
 -12  -1   7   13.80   16.70
  12  -1  -7   43.80   18.60
 -12  -1   7   -6.80   24.30
  12  -1  -7   17.20   20.60
  12   1  -7    9.00   24.30
 -12   1   7   26.70   14.80
 -12   1   7   18.90   15.20
  12   1  -7    9.10   14.70
  12   1  -7   -4.70   15.00
 -12   1   7   26.40   17.30
  11  -1  -7   40.50   25.30
  11  -1  -7   87.69   22.00
 -11  -1   7   58.49   18.70
 -11  -1   7   55.89   31.40
  11  -1  -7   74.79   27.50
  11  -1  -7   67.09   21.90
  11   1  -7   46.20   14.60
 -11   1   7   84.39   21.90
  11   1  -7   71.99   27.70
  11   1  -7   82.39   20.40
 -11   1   7   58.99   17.80
 -11   1   7   22.70   17.20
  10  -1  -7  372.86   39.80
  10  -1  -7  416.26   44.80
 -10  -1   7  387.56   35.10
  10  -1  -7  455.55   52.09
  10   1  -7  392.36   30.40
 -10   1   7  420.86   41.80
  10   1  -7  356.16   39.00
 -10   1   7  383.56   62.99
  10   1  -7  396.16   48.50
 -10   1   7  364.06   32.40
   9  -1  -7   38.60   13.90
   9  -1  -7   24.50   26.10
   9  -1  -7   31.80   21.20
  -9  -1   7   47.30   17.50
   9  -1  -7   34.30   25.00
   9   1  -7   31.40   27.50
   9   1  -7    5.40   21.60
  -9   1   7   29.70   22.60
   9   1  -7   52.29   23.00
  -9   1   7   17.10   20.80
  -9   1   7   57.49   27.40
  -9   1   7   37.40   16.40
   9   1  -7   69.49   15.10
   8  -1  -7  -14.00   24.80
   8  -1  -7   24.20   13.70
   8  -1  -7   18.00   20.30
  -8  -1   7   32.90   15.80
   8  -1  -7   23.80   25.90
   8  -1  -7   11.40   27.00
   8   1  -7   16.90   35.40
  -8   1   7   38.50   23.00
  -8   1   7   16.80   13.80
   8   1  -7   21.40   23.80
   8   1  -7   37.90   23.10
   8   1  -7    1.80   13.20
  -8   1   7   -6.10   21.60
   8   1  -7   34.10   26.90
  -8   1   7   17.50   18.70
   7  -1  -7  129.59   29.70
  -7  -1   7   93.19   16.00
   7  -1  -7   76.49   17.10
   7  -1  -7  115.99   23.10
   7  -1  -7   59.49   26.20
   7  -1  -7   87.39   29.40
   7   1  -7   49.20   36.80
   7   1  -7  102.19   32.50
  -7   1   7  123.89   26.10
  -7   1   7  102.09   25.60
   7   1  -7  107.79   25.20
  -7   1   7   78.79   15.20
   7   1  -7   88.79   15.30
  -7   1   7   69.99   16.30
  -6  -1   7  606.94   36.40
   6  -1  -7  678.23   28.00
   6  -1  -7  628.84   70.69
   6  -1  -7  595.74   36.70
   6  -1  -7  564.54   51.19
   6  -1  -7  569.04   53.29
   6   1  -7  641.94   37.80
  -6   1   7  540.05   56.79
  -6   1   7  750.82   68.59
  -6   1   7  681.13   36.40
   6   1  -7  613.94   46.70
  -6   1   7  687.53   34.70
   6   1  -7  604.84   47.30
  -5  -1   7  380.16   28.60
   5  -1  -7  323.57   51.19
   5   1  -7  439.86   33.20
  -5   1   7  353.76   25.30
  -5   1   7  367.26   25.10
   4  -1  -7  177.98   30.20
   4  -1  -7  180.68   11.60
  -4  -1   7  173.68   28.20
  -4   1   7  145.49   16.60
   4   1  -7  157.88   35.10
   4   1  -7  160.18   23.40
  -4   1   7  159.28   20.20
  -3  -1   7  181.28   32.10
  -3  -1   7  195.28   23.70
   3  -1  -7  143.89   24.30
   3  -1  -7  137.69   22.70
   3  -1  -7  175.88   11.80
   3   1  -7  153.98   22.20
   3   1  -7  187.58   29.60
  -3   1   7  184.98   16.20
  -3   1   7  176.98   20.90
   2  -1  -7  333.37   34.70
  -2  -1   7  327.17   26.30
   2  -1  -7  352.16   17.40
  -2  -1   7  305.57   45.20
   2   1  -7  372.46   38.00
  -2   1   7  344.27   20.70
   2   1  -7  321.27   25.30
  -1  -1   7  158.58   34.10
   1  -1  -7  123.39   21.50
  -1  -1   7  179.08   21.10
   1  -1  -7  158.58   11.40
  -1   1   7  138.29   15.00
   1   1  -7  156.78    9.20
   1   1  -7  139.89   20.70
   1   1  -7  105.29   23.30
   0  -1  -7  377.46   33.20
   0  -1   7  389.46   27.20
   0  -1  -7  427.36   20.70
   0  -1   7  401.46   59.69
   0   1   7  418.46   22.80
   0   1  -7  462.25   42.90
   0   1  -7  412.46   18.90
   1  -1   7  754.42   37.40
  -1  -1  -7  718.93   31.40
  -1  -1  -7  597.74   43.70
  -1   1  -7  733.13   30.60
  -1   1  -7  656.63   49.40
   1   1   7  735.13   32.80
  -2  -1  -7 1637.44   65.09
   2  -1   7 1604.04   69.19
  -2  -1  -7 1675.63   79.89
  -2  -1  -7 1384.96   75.89
  -2   1  -7 1624.74   64.69
   2   1   7 1609.24   63.59
  -2   1  -7 1743.53   86.69
  -3  -1  -7   18.10   14.60
   3  -1   7    7.10    8.60
  -3  -1  -7   11.20   23.90
  -3  -1  -7   16.90    8.60
  -3   1  -7   24.50   30.00
  -3   1  -7   -6.70   13.10
  -3   1  -7    1.70    5.50
   4  -1   7  352.96   41.00
  -4  -1  -7  480.65   55.19
   4  -1   7  472.55   28.00
  -4  -1  -7  432.96   30.80
  -4  -1  -7  485.55   26.60
  -4   1  -7  469.35   58.89
  -4   1  -7  434.46   29.00
  -5  -1  -7  246.48   28.30
   5  -1   7  311.37   47.30
   5  -1   7  336.57   45.40
   5  -1   7  241.78   37.80
  -5  -1  -7  270.77   45.50
   5  -1   7  281.77   22.20
  -5  -1  -7  284.97   26.20
  -5   1  -7  281.37   26.70
  -5   1  -7  288.07   34.90
  -5   1  -7  256.87   20.30
   5   1   7  266.57   63.99
  -5   1  -7  308.07   57.49
   5   1   7  387.96   64.59
  -5   1  -7  362.76   38.00
   5   1   7  340.27   56.69
   5   1   7  292.27   46.00
   5   1   7  308.87   45.90
   6  -1   7  151.58   35.60
   6  -1   7  102.19   13.80
   6  -1   7  107.29   29.70
  -6  -1  -7  126.09   58.89
   6  -1   7  124.99   30.90
  -6  -1  -7   90.19   17.10
   6  -1   7  117.19   26.50
   6  -1   7   71.29   25.20
   6   1   7  129.99   30.40
  -6   1  -7  123.89   19.30
   6   1   7  165.78   40.40
  -6   1  -7  205.18   72.89
   6   1   7   94.89   26.60
   6   1   7  115.99   32.60
   6   1   7  106.89   28.30
   6   1   7   76.39   29.10
  -6   1  -7  134.89   21.30
  -6   1  -7   41.00   25.10
  -6   1  -7   80.19   21.90
  -7  -1  -7  126.49   34.00
   7  -1   7  152.58   30.40
   7  -1   7  150.98   30.00
   7  -1   7  114.99   25.40
  -7  -1  -7  132.69   18.90
   7  -1   7  189.28   31.30
   7  -1   7  161.78   30.20
   7   1   7  122.89   28.80
  -7   1  -7  108.59   18.10
   7   1   7   85.99   27.40
   7   1   7  136.09   31.80
   7   1   7   93.79   25.10
  -7   1  -7   92.69   24.70
  -7   1  -7  145.39   23.70
  -7   1  -7  127.99   22.10
   7   1   7  106.99   41.30
   7   1   7  111.59   29.90
  -8  -1  -7   24.70   15.80
   8  -1   7    9.80   27.20
  -8  -1  -7   32.00   28.70
   8  -1   7   29.40   24.20
   8  -1   7   18.20   28.20
   8  -1   7   42.00   25.00
   8  -1   7   28.60   23.50
   8   1   7   17.30   24.00
   8   1   7    2.30   43.10
  -8   1  -7   24.30   21.60
   8   1   7   -4.40   21.40
  -8   1  -7   35.90   20.30
  -8   1  -7    6.80   14.10
   8   1   7   10.20   26.80
   8   1   7  -11.20   22.70
  -8   1  -7   48.50   18.50
   9  -1   7   29.60   31.20
   9  -1   7   19.10   22.30
   9  -1   7    0.60   22.70
   9  -1   7   -5.40   21.30
  -9  -1  -7   -4.80   23.00
  -9  -1  -7    0.90   17.00
   9  -1   7   32.40   24.80
   9   1   7   29.30   20.70
  -9   1  -7   59.39   27.60
  -9   1  -7   30.70   21.10
   9   1   7  -13.80   20.50
  -9   1  -7   21.90   20.40
   9   1   7    0.00   22.30
  -9   1  -7    7.20   17.40
   9   1   7   33.20   26.40
  10  -1   7  471.85   44.20
  10  -1   7  536.05   44.20
 -10  -1  -7  560.44   35.50
 -10  -1  -7  464.65   42.80
  10  -1   7  410.76   45.10
  10  -1   7  355.96   41.10
  10   1   7  318.47   52.59
 -10   1  -7  512.35   34.60
  10   1   7  460.85   39.90
 -10   1  -7  457.95   37.00
 -10   1  -7  407.16   40.70
  10   1   7  467.55   45.60
  11  -1   7   84.99   19.60
 -11  -1  -7   78.29   18.60
  11  -1   7   53.39   20.30
  11  -1   7   63.09   20.70
  11  -1   7   67.69   20.90
 -11  -1  -7   91.59   16.00
  11   1   7   70.79   19.50
 -11   1  -7  110.09   21.00
  11   1   7   75.29   18.20
 -11   1  -7   96.19   17.20
  11   1   7   40.20   24.60
  12  -1   7    9.40   16.30
  12  -1   7    0.60   16.60
  12  -1   7   31.70   16.70
 -12  -1  -7   14.60   13.20
 -12  -1  -7    8.80   12.70
  12   1   7   -1.50   15.40
  12   1   7   23.90   17.70
 -12   1  -7   18.80   11.40
 -12   1  -7    3.20   15.70
  12   1   7   38.20   20.70
 -12   1  -7   12.10   17.20
  13  -1   7   72.29   19.50
 -13  -1  -7   53.79   11.30
  13  -1   7   81.19   17.90
 -13  -1  -7   58.69   10.30
 -13   1  -7   58.39   10.50
  13   1   7   68.79   14.00
 -13   1  -7   67.39   12.00
  13  -2  -7   62.99   17.90
  13  -2  -7   32.20   20.40
  13  -2  -7   41.50   15.70
  13  -2  -7   52.69   13.40
  13   2  -7   64.59   22.00
 -13   2   7   97.89   16.90
 -13   2   7   71.09   14.90
  12  -2  -7   -1.20   21.10
  12  -2  -7   19.60   15.20
  12  -2  -7   49.99   19.00
 -12  -2   7  -17.90   20.30
  12  -2  -7    2.20   19.10
 -12   2   7   51.89   22.20
 -12   2   7   12.10   13.90
  12   2  -7   32.30   18.10
 -12   2   7   25.10   15.90
  12   2  -7   18.80   15.40
  11  -2  -7   60.39   24.00
  11  -2  -7   54.99   18.70
  11  -2  -7   74.39   26.40
 -11  -2   7   65.79   23.60
  11  -2  -7   51.89   20.10
 -11   2   7   75.89   17.30
 -11   2   7   83.29   21.10
  11   2  -7   66.09   15.20
 -11   2   7   70.39   20.80
  11   2  -7   58.79   20.70
 -10  -2   7  244.38   40.50
  10  -2  -7  304.37   45.30
  10  -2  -7  288.77   33.20
  10  -2  -7  261.77   37.20
  10   2  -7  206.28   39.10
 -10   2   7  230.48   35.70
  10   2  -7  213.78   28.10
  10   2  -7  248.08   24.70
 -10   2   7  284.57   33.00
 -10   2   7  256.77   41.20
 -10   2   7  263.17   34.60
   9  -2  -7  214.78   47.10
   9  -2  -7  209.78   37.30
   9  -2  -7  163.48   23.50
   9  -2  -7  134.29   29.40
   9   2  -7  196.78   28.80
   9   2  -7  158.58   18.90
  -9   2   7  207.48   33.70
   9   2  -7  119.29   39.50
  -9   2   7  216.28   31.40
  -9   2   7  225.48   33.00
  -9   2   7  219.68   30.00
   8  -2  -7  194.28   19.90
   8  -2  -7  202.08   36.40
   8  -2  -7  210.58   33.20
   8  -2  -7  229.68   26.30
   8  -2  -7  271.77   44.80
  -8   2   7  267.67   34.40
   8   2  -7  155.08   53.39
  -8   2   7  169.18   56.09
  -8   2   7  268.07   34.20
   8   2  -7  347.47   49.60
   8   2  -7  214.28   32.50
   8   2  -7  248.08   25.20
  -8   2   7  180.98   29.00
   7  -2  -7  216.38   41.40
   7  -2  -7  146.09   17.70
   7  -2  -7  228.48   34.80
   7  -2  -7  149.19   36.70
   7  -2  -7  202.78   50.69
   7  -2  -7  220.78   31.10
  -7   2   7  166.08   27.10
  -7   2   7  189.68   25.10
   7   2  -7  286.47   41.60
   7   2  -7  278.87   38.70
  -7   2   7  167.68   28.40
  -7   2   7  311.67   55.79
  -7   2   7  232.68   27.20
   6  -2  -7   43.70   19.90
   6  -2  -7   71.09   69.59
   6  -2  -7   42.30   36.30
   6  -2  -7   67.39   36.80
   6  -2  -7   59.79   18.70
   6  -2  -7   36.40    9.00
   6  -2  -7   22.60   31.90
  -6   2   7   83.19   17.70
   6   2  -7   48.60   24.60
   6   2  -7   72.79   32.50
  -6   2   7   33.10   47.20
  -6   2   7   19.40   26.80
  -6   2   7   56.69   14.00
  -6   2   7   51.29   20.10
   6   2  -7   68.59   14.10
   5  -2  -7  188.68   51.39
   5  -2  -7  235.98   45.70
   5  -2  -7  292.47   46.10
   5  -2  -7  242.08   36.80
   5  -2  -7  240.18   22.30
   5  -2  -7  282.47   18.80
   5  -2  -7  267.17   32.50
   5  -2  -7  379.56   49.70
   5   2  -7  231.48   25.20
  -5   2   7  293.77   40.60
  -5   2   7  321.07   41.50
  -5   2   7  207.88   28.10
  -5   2   7  278.97   24.00
   5   2  -7  253.57   32.70
  -5   2   7  227.38   46.60
  -5   2   7  289.37   49.30
   4  -2  -7   21.50   35.20
   4  -2  -7   44.40   11.20
   4  -2  -7   29.20    8.30
   4   2  -7   44.90   26.20
  -4   2   7   40.20   11.50
  -4   2   7   22.50   18.20
   3  -2  -7 1600.64   66.29
   3  -2  -7 1589.24   84.99
   3  -2  -7 1549.74   67.39
  -3   2   7 1592.54   71.19
   3   2  -7 1636.84   82.09
   2  -2  -7   12.90   10.50
  -2  -2   7   34.80   11.40
  -2  -2   7   30.50   26.40
   2  -2  -7   23.20    8.00
   2  -2  -7   12.00   22.70
   2   2  -7   15.50   20.00
  -2   2   7   35.20    8.70
  -1  -2   7  732.43   49.50
  -1  -2   7  788.62   35.40
   1  -2  -7  760.02   55.79
   1  -2  -7  771.72   36.00
   1  -2  -7  762.22   38.50
   1   2  -7  760.22   67.29
   1   2  -7  842.02   51.39
  -1   2   7  767.82   35.80
   0  -2  -7  439.06   29.60
   0  -2   7  542.45   39.80
   0  -2  -7  424.06   56.89
   0  -2  -7  515.45   26.60
   0  -2   7  449.26   24.00
   0   2  -7  485.15   60.29
   0   2  -7  472.05   40.60
  -1  -2  -7  103.09   16.40
   1  -2   7  108.79   12.80
  -1  -2  -7   96.29   12.90
  -1  -2  -7   73.99   25.00
  -1   2  -7   90.29   10.80
  -1   2  -7  105.69   40.80
  -1   2  -7  122.09   23.60
  -2  -2  -7  820.22   61.19
   2  -2   7  816.82   45.70
  -2  -2  -7  835.92   41.40
   2  -2   7  811.02   36.10
  -2  -2  -7  758.32   43.20
  -2   2  -7  885.91   56.99
  -2   2  -7  801.22   79.99
  -2   2  -7  855.61   36.20
   3  -2   7  174.58   23.50
   3  -2   7  231.98   25.50
  -3  -2  -7  166.88   37.70
  -3  -2  -7  177.98   28.00
   3  -2   7  194.38   15.00
   3  -2   7  197.88   30.50
   3   2   7  197.08   51.69
  -3   2  -7  120.69   53.69
  -3   2  -7  171.28   15.70
   3   2   7  184.38   28.30
   3   2   7   91.89   38.80
  -3   2  -7  205.18   28.30
  -3   2  -7  234.78   34.50
   4  -2   7   84.49   25.10
   4  -2   7   79.49   46.80
   4  -2   7   70.49   16.30
   4  -2   7   79.29   13.50
  -4  -2  -7  107.99   19.80
   4  -2   7   83.99   11.40
   4  -2   7   89.49   29.50
  -4  -2  -7  138.19   44.50
   4   2   7   89.09   31.70
   4   2   7  112.29   39.20
   4   2   7   44.00   34.30
   4   2   7  103.79   23.20
  -4   2  -7  197.38   68.39
  -4   2  -7  125.09   39.90
   4   2   7   85.89   30.30
  -4   2  -7   96.59   15.30
  -4   2  -7   96.29   25.70
  -4   2  -7   86.49   30.40
  -4   2  -7   52.09   24.50
   5  -2   7  173.98   26.40
   5  -2   7  160.88   26.60
   5  -2   7  111.79   25.10
   5  -2   7  142.29   24.20
   5  -2   7  151.08   41.40
  -5  -2  -7  117.59   20.20
   5  -2   7  146.09   18.70
   5  -2   7  132.49   21.50
  -5  -2  -7  114.19   62.09
  -5   2  -7  143.09   31.00
  -5   2  -7  245.98   94.29
   5   2   7  244.28   45.60
   5   2   7  109.59   37.50
   5   2   7   82.79   32.70
   5   2   7  145.69   24.50
  -5   2  -7  121.99   22.30
  -5   2  -7  123.99   24.50
   5   2   7  155.18   31.20
  -5   2  -7  101.79   23.40
  -5   2  -7  148.19   19.00
   6  -2   7   49.20   33.70
  -6  -2  -7   71.59   19.90
   6  -2   7   34.60   16.20
   6  -2   7   77.39   23.60
   6  -2   7   82.19   23.10
   6  -2   7   74.69   24.10
  -6   2  -7   28.20   19.00
   6   2   7   65.29   29.20
   6   2   7   50.19   26.30
   6   2   7   -2.20   37.60
   6   2   7   44.10   26.90
  -6   2  -7   62.09   29.70
  -6   2  -7   39.90   34.40
  -6   2  -7   41.10   13.40
  -6   2  -7   40.40   20.30
   6   2   7   80.69   44.10
   7  -2   7  239.68   40.90
   7  -2   7  242.08   36.00
   7  -2   7  268.07   37.40
  -7  -2  -7  232.78   31.80
   7  -2   7  263.17   37.50
   7  -2   7  275.77   40.20
   7  -2   7  256.57   31.70
   7   2   7  286.97   34.60
  -7   2  -7  226.88   26.60
  -7   2  -7  285.17   30.50
  -7   2  -7  241.18   37.60
   7   2   7  245.68   46.60
  -7   2  -7  338.37   37.70
  -7   2  -7  245.98   32.10
   7   2   7  281.27   43.60
   7   2   7  190.58   37.00
   8  -2   7    5.60   28.70
   8  -2   7   19.30   23.50
   8  -2   7   -1.60   24.20
   8  -2   7   28.10   26.10
   8  -2   7    9.30   20.30
   8   2   7   18.20   42.40
   8   2   7   16.30   29.20
   8   2   7   45.60   22.60
  -8   2  -7    5.10   19.40
  -8   2  -7   20.00   17.70
  -8   2  -7  -28.00   27.10
   8   2   7   46.60   20.00
  -8   2  -7    2.30   21.70
   9  -2   7  518.05   50.19
  -9  -2  -7  554.94   37.50
   9  -2   7  514.45   48.90
   9  -2   7  521.15   43.60
   9  -2   7  568.34   49.20
   9  -2   7  505.45   52.59
  -9   2  -7  486.95   40.60
   9   2   7  515.35   39.50
  -9   2  -7  504.35   55.19
   9   2   7  616.14   47.60
  -9   2  -7  505.55   45.60
  -9   2  -7  549.45   39.70
 -10  -2  -7  158.68   20.60
  10  -2   7  250.27   35.00
  10  -2   7  156.68   33.80
  10  -2   7  175.38   25.70
  10  -2   7  198.18   27.00
 -10  -2  -7  203.68   28.90
  10   2   7  182.18   33.20
 -10   2  -7  206.48   29.70
  10   2   7  207.38   29.80
 -10   2  -7  184.88   29.70
 -10   2  -7  182.28   29.50
  10   2   7  143.59   32.10
  11  -2   7   46.10   17.70
  11  -2   7   50.99   21.70
 -11  -2  -7   79.29   19.90
  11  -2   7   47.80   17.10
 -11  -2  -7   66.39   15.90
  11   2   7   78.89   18.00
  11   2   7   74.39   16.60
 -11   2  -7   84.29   15.70
 -11   2  -7   64.59   16.20
 -12  -2  -7  104.69   16.30
  12  -2   7   97.89   17.60
 -12  -2  -7  106.69   18.20
  12  -2   7  113.99   21.50
  12  -2   7  138.69   22.10
  12   2   7  159.58   22.90
 -12   2  -7  114.49   19.10
 -12   2  -7  137.49   20.40
  12   2   7  173.08   22.40
  12  -3  -7   44.20   16.60
  12  -3  -7   12.50   11.60
 -12   3   7   15.10   13.40
  11  -3  -7  100.89   21.30
  11  -3  -7  103.69   48.50
  11  -3  -7   39.80   21.80
  11  -3  -7   61.89   15.70
  11   3  -7   57.89   14.40
 -11   3   7   48.90   26.00
 -11   3   7   44.20   16.60
 -11   3   7   82.79   42.80
  10  -3  -7   37.10   34.90
  10  -3  -7   82.09   33.40
  10  -3  -7   59.59   27.40
  10  -3  -7   30.40   16.00
  10  -3  -7    9.50   25.00
 -10   3   7   19.10   26.50
  10   3  -7   20.20   13.40
 -10   3   7   27.40   37.60
 -10   3   7   14.00   16.80
   9  -3  -7   23.60   17.50
   9  -3  -7   35.90   28.40
   9  -3  -7   46.80   29.50
   9  -3  -7   45.10   31.10
  -9   3   7    4.30   17.00
   9   3  -7   27.10   12.90
  -9   3   7   18.30   40.10
   8  -3  -7  204.98   35.10
   8  -3  -7  269.67   32.80
   8  -3  -7  232.38   40.90
   8  -3  -7  200.98   39.90
   8  -3  -7  259.67   37.20
  -8   3   7  308.27   44.60
   8   3  -7  274.97   24.40
  -8   3   7  269.77   30.90
  -8   3   7  244.48   42.80
  -8   3   7  220.98   33.30
   7  -3  -7  109.59   35.80
   7  -3  -7  119.19   20.40
   7  -3  -7  126.19   41.10
   7  -3  -7   80.79   31.50
   7  -3  -7  139.69   22.60
  -7   3   7  104.29   25.00
   7   3  -7   83.49   14.80
  -7   3   7  115.69   25.40
  -7   3   7   44.80   36.70
   6  -3  -7  569.74   41.00
   6  -3  -7  649.24   61.99
   6  -3  -7  551.64   35.00
   6  -3  -7  575.14   34.50
   6  -3  -7  603.54   65.39
   6  -3  -7  523.05   33.80
   6  -3  -7  512.95   80.09
  -6   3   7  575.54   87.79
  -6   3   7  576.74   55.39
   6   3  -7  625.44   34.40
  -6   3   7  558.74   48.10
  -6   3   7  612.04   42.10
   6   3  -7  526.25   50.89
   5  -3  -7   90.89   55.99
   5  -3  -7   25.30   12.30
   5  -3  -7   27.30   11.90
   5   3  -7   53.39   26.90
  -5   3   7   51.89   17.60
  -5   3   7  -12.10   44.60
  -5   3   7   49.90   26.70
  -5   3   7   22.00   27.30
   4  -3  -7  103.09   17.80
   4  -3  -7   92.29   21.80
   4  -3  -7  106.79   14.20
   4  -3  -7  128.99   20.60
   4  -3  -7  110.09   33.00
  -4   3   7  180.08   37.40
  -4   3   7  151.48   23.70
   4   3  -7  123.09   21.10
  -4   3   7  119.99   18.20
   4   3  -7  125.59   29.30
   4   3  -7  146.09   21.70
  -4   3   7   97.59   29.10
  -4   3   7   74.89   39.50
   3  -3  -7  229.58   33.10
   3  -3  -7  250.37   21.70
   3  -3  -7  227.18   39.00
   3  -3  -7  220.18   23.00
   3   3  -7  244.88   33.40
   3   3  -7  262.47   23.30
  -3   3   7  240.38   42.80
  -3   3   7  258.37   38.40
  -3   3   7  277.37   42.00
   3   3  -7  249.97   28.60
   2  -3  -7  407.96   61.09
   2  -3  -7  359.66   55.79
  -2  -3   7  334.57   25.20
   2  -3  -7  376.76   24.90
   2  -3  -7  289.67   36.70
   2  -3  -7  339.07   26.80
  -2   3   7  412.66   48.00
   2   3  -7  338.37   31.50
  -2   3   7  405.46   40.70
   2   3  -7  335.17   28.40
  -2   3   7  395.36   41.60
  -2   3   7  359.66   45.30
   2   3  -7  316.27   47.30
   1  -3  -7   60.09   39.90
  -1  -3   7   29.40   10.20
   1  -3  -7   36.70   11.50
   1  -3  -7   44.00   13.00
   1  -3  -7   43.70   27.60
   1  -3  -7  -11.10   46.60
  -1   3   7   16.70   24.20
  -1   3   7   23.30   37.80
   1   3  -7   59.19   27.20
   1   3  -7   14.90   19.40
  -1   3   7   67.49   24.30
  -1   3   7   42.50   20.90
   1   3  -7   23.80   15.70
  -1   3   7   51.79   32.60
   0  -3   7  485.95   45.10
   0  -3  -7  524.45   78.79
   0  -3   7  383.26   46.50
   0  -3  -7  390.66   54.29
   0  -3  -7  410.26   59.29
   0  -3   7  376.76   22.70
   0  -3  -7  396.16   28.20
   0  -3   7  378.26   60.19
   0   3   7  391.76   43.60
   0   3  -7  407.46   36.30
   0   3  -7  426.26   33.00
   0   3   7  347.17   55.49
   0   3  -7  513.85   48.30
   0   3   7  427.66   58.79
   0   3   7  351.76   39.80
   0   3   7  356.96   40.80
   1  -3   7  130.79   25.70
  -1  -3  -7   85.89   51.89
   1  -3   7  112.59   13.80
   1  -3   7  132.89   34.10
  -1  -3  -7  134.39   23.00
   1  -3   7  193.88   27.50
  -1  -3  -7  208.08   53.79
   1   3   7  100.19   35.00
   1   3   7  116.09   25.20
  -1   3  -7  115.79   23.70
   1   3   7  102.09   26.10
  -1   3  -7  129.39   28.60
   1   3   7  119.29   24.20
  -1   3  -7  144.79   21.80
   1   3   7  145.19   37.00
   2  -3   7   33.30   21.80
  -2  -3  -7   47.40   63.09
   2  -3   7   -8.40   24.20
   2  -3   7   20.10   12.40
   2  -3   7    7.90    7.70
  -2  -3  -7   22.40   15.90
   2   3   7    3.30   22.50
   2   3   7   -2.50   33.80
  -2   3  -7    1.60   21.80
   2   3   7  -20.50   36.00
  -2   3  -7   -0.20   20.40
   2   3   7    1.80   21.20
   2   3   7   -5.80   24.50
  -2   3  -7   19.40   22.80
  -3  -3  -7   35.00   18.00
   3  -3   7   23.00   25.10
   3  -3   7   43.30    9.00
   3  -3   7   38.70   21.20
   3  -3   7   46.60   12.10
   3  -3   7   68.69   29.00
   3   3   7   32.40   36.40
  -3   3  -7   65.19   24.10
   3   3   7   75.69   24.70
   3   3   7   12.10   22.30
  -3   3  -7   60.99   37.60
   3   3   7   38.40   26.50
   3   3   7   42.10   38.60
  -3   3  -7   53.59   21.50
   4  -3   7   60.79   23.40
   4  -3   7  109.69   18.40
   4  -3   7  124.69   25.60
   4  -3   7   99.09   12.40
  -4  -3  -7  128.69   21.90
   4  -3   7  117.99   22.60
   4   3   7   40.60   56.09
   4   3   7   71.69   26.10
   4   3   7   78.59   43.80
  -4   3  -7   94.39   24.00
   4   3   7  107.89   24.80
  -5  -3  -7  117.09   22.50
   5  -3   7  102.99   17.10
   5  -3   7  108.89   25.40
   5  -3   7  122.79   24.10
   5  -3   7  132.59   49.90
   5  -3   7  140.59   25.70
   5  -3   7  122.99   19.40
   5   3   7  118.09   26.20
   5   3   7  126.89   40.00
  -5   3  -7  106.09   21.10
  -5   3  -7  121.39   24.30
  -5   3  -7  111.29   23.30
   5   3   7  173.08   25.30
   6  -3   7  179.98   26.40
   6  -3   7  184.58   20.20
   6  -3   7  161.08   40.40
   6  -3   7  234.18   34.80
   6  -3   7  180.78   24.70
  -6  -3  -7  227.48   34.70
   6  -3   7  157.28   25.00
   6  -3   7  166.68   27.70
  -6   3  -7  177.48   25.70
   6   3   7  163.08   29.70
  -6   3  -7  241.98   37.10
   6   3   7  119.79   23.40
   6   3   7  106.79   41.30
  -6   3  -7  152.58   26.40
  -7  -3  -7  167.38   26.00
   7  -3   7  198.58   30.80
   7  -3   7  163.08   17.50
   7  -3   7  224.68   40.30
   7  -3   7  149.19   22.60
   7  -3   7  176.58   34.70
   7  -3   7  182.88   33.70
   7   3   7  174.78   27.50
  -7   3  -7  180.68   34.10
   7   3   7  208.48   33.10
  -7   3  -7  166.68   22.70
   7   3   7  189.68   40.70
  -7   3  -7  191.28   27.00
   8  -3   7   49.70   29.80
   8  -3   7   62.29   22.60
   8  -3   7   35.90   18.40
  -8  -3  -7   42.00   21.70
   8  -3   7   44.20   18.90
  -8   3  -7   44.60   35.30
  -8   3  -7   52.09   17.90
   8   3   7   -1.90   39.70
   8   3   7   67.49   19.10
   8   3   7   48.80   23.10
   9  -3   7  -19.80   17.70
   9  -3   7  -25.00   29.70
  -9  -3  -7   -8.50   19.00
   9  -3   7   17.30   16.60
   9  -3   7   -0.60   20.20
   9  -3   7   50.89   23.70
  -9   3  -7   30.40   15.70
   9   3   7    5.60   15.10
   9   3   7   13.70   16.20
  -9   3  -7   25.60   24.10
  10  -3   7   17.20   18.60
  10  -3   7   55.39   17.20
 -10  -3  -7   14.20   20.20
 -10   3  -7   51.99   15.20
  10   3   7   47.20   16.20
  10   3   7   27.40   14.10
  11  -3   7   75.99   22.50
  11  -3   7   53.99   15.50
 -11   3  -7   64.39   14.50
  11   3   7   77.69   16.70
  11   3   7   60.59   12.90
  11  -4  -7    0.10   17.00
  11  -4  -7   22.10   11.10
 -11   4   7   36.20   13.70
  10  -4  -7   57.79   21.40
  10  -4  -7   35.40   12.20
  10  -4  -7  -16.40   24.50
  10  -4  -7   -0.20   22.40
  10   4  -7   22.90   11.30
 -10   4   7   34.60   22.50
 -10   4   7   16.60   13.50
   9  -4  -7   27.60   21.50
   9  -4  -7   33.10   29.70
   9  -4  -7   31.00   13.60
   9  -4  -7   39.60   16.90
   9   4  -7   60.39   12.30
  -9   4   7   42.80   23.20
  -9   4   7   55.99   18.20
   8  -4  -7   -2.80   36.20
   8  -4  -7    0.00   23.10
   8  -4  -7   26.00   17.40
   8  -4  -7   11.90   14.20
   8   4  -7   11.80   10.70
  -8   4   7    9.40   21.70
  -8   4   7   20.40   19.00
   7  -4  -7  268.77   33.20
   7  -4  -7  202.18   29.60
   7  -4  -7  280.87   49.60
   7  -4  -7  270.87   31.40
  -7   4   7  231.18   40.80
   7   4  -7  249.78   22.00
  -7   4   7  314.67   42.00
   6  -4  -7  149.49   18.70
   6  -4  -7  205.98   29.70
   6  -4  -7  198.18   32.40
   6  -4  -7  166.88   22.30
   6  -4  -7  161.68   24.80
   6  -4  -7  206.58   58.89
  -6   4   7  124.49   27.50
  -6   4   7  194.08   41.90
  -6   4   7  137.79   25.30
   6   4  -7  161.48   19.40
   5  -4  -7  297.57   25.30
   5  -4  -7  272.47   37.00
   5  -4  -7  290.87   32.40
   5  -4  -7  269.97   26.70
   5  -4  -7  265.97   35.60
  -5   4   7  211.88   32.80
  -5   4   7  228.58   39.90
  -5   4   7  279.67   46.00
   5   4  -7  261.27   22.80
   4  -4  -7   61.79   29.60
   4  -4  -7   55.19   22.30
   4  -4  -7   49.90   14.50
   4  -4  -7   56.89   19.00
   4  -4  -7   69.99   13.10
  -4   4   7   51.59   35.20
  -4   4   7   43.00   31.90
   4   4  -7   81.89   32.70
   4   4  -7   71.29   13.50
  -4   4   7   23.50   26.10
  -4   4   7   54.09   19.00
   3  -4  -7   62.79   23.30
   3  -4  -7   17.10   29.90
   3  -4  -7   79.39   20.40
   3  -4  -7   53.59   12.50
  -3  -4   7   64.89   13.40
   3  -4  -7   77.69   16.70
  -3   4   7   50.69   24.50
  -3   4   7   54.19   21.30
   3   4  -7   52.59   18.50
   3   4  -7   27.80   29.80
  -3   4   7   37.40   31.40
   3   4  -7   60.39   14.00
  -2  -4   7  165.58   19.10
   2  -4  -7  211.48   39.80
   2  -4  -7  189.38   29.70
   2  -4  -7  173.88   36.10
   2  -4  -7  196.38   21.30
   2   4  -7  197.28   30.00
   2   4  -7  196.28   23.10
  -2   4   7  256.97   36.90
  -2   4   7  174.68   25.60
   2   4  -7  238.78   32.00
  -2   4   7  236.58   39.50
   1  -4  -7  124.79   20.30
   1  -4  -7   88.29   22.50
   1  -4  -7  110.29   36.30
  -1  -4   7   91.49   15.80
   1   4  -7   80.69   27.90
  -1   4   7  112.29   21.10
  -1   4   7  102.79   29.70
   1   4  -7  125.39   17.40
  -1   4   7  121.49   24.60
   1   4  -7  142.39   21.60
  -1   4   7  179.38   28.30
   0  -4  -7  188.68   22.50
   0  -4  -7  136.39   24.20
   0  -4   7  158.78   16.60
   0  -4  -7  162.68   43.90
   0  -4   7  191.88   34.60
   0  -4   7  200.88   27.40
   0   4  -7  165.18   24.60
   0   4  -7  204.68   30.20
   0   4   7  176.88   27.20
   0   4   7  195.68   28.10
   0   4   7  184.98   35.30
   0   4   7  183.08   26.30
   0   4  -7  137.29   28.70
  -1  -4  -7  -39.00   48.90
  -1  -4  -7   65.99   15.10
   1  -4   7  104.79   15.80
  -1  -4  -7   69.09   28.50
   1  -4   7   43.20   27.20
   1  -4   7   69.59   10.60
   1   4   7   81.49   20.30
  -1   4  -7   66.89   25.30
   1   4   7  129.89   25.50
  -1   4  -7   53.99   20.80
   1   4   7  110.69   25.90
   1   4   7   86.59   31.50
  -1   4  -7   65.19   15.80
   2  -4   7   68.79   42.40
   2  -4   7   56.09   10.00
   2  -4   7   37.50   11.40
  -2  -4  -7   72.99   15.10
   2  -4   7   22.10   23.90
   2   4   7   38.80   23.90
  -2   4  -7   76.89   17.60
   2   4   7   15.40   29.60
  -2   4  -7   86.09   24.60
   2   4   7   49.70   19.30
  -2   4  -7   38.80   19.40
   3  -4   7  121.99   18.90
   3  -4   7  144.89   27.30
   3  -4   7   96.09   24.40
   3  -4   7  131.39   41.20
   3  -4   7  108.89   17.50
   3   4   7  139.59   26.30
  -3   4  -7  107.39   19.50
   3   4   7   82.89   34.80
  -3   4  -7  110.89   25.60
  -3   4  -7   80.29   20.20
   3   4   7   85.09   23.90
   4  -4   7  120.39   22.50
   4  -4   7  159.58   39.50
   4  -4   7  125.89   18.90
   4  -4   7  125.19   17.60
   4  -4   7  128.49   25.60
  -4  -4  -7  131.09   21.80
  -4   4  -7  107.29   21.40
   4   4   7  125.79   24.00
  -4   4  -7  134.49   25.80
  -4   4  -7  113.79   23.30
   4   4   7   67.29   38.10
   4   4   7  122.79   24.60
   5  -4   7  326.67   22.90
  -5  -4  -7  276.07   36.40
   5  -4   7  251.07   36.20
   5  -4   7  284.37   22.60
   5  -4   7  260.07   33.70
   5  -4   7  272.67   43.50
   5   4   7  225.78   52.49
  -5   4  -7  265.77   32.00
   5   4   7  331.07   35.50
   5   4   7  313.87   38.10
  -5   4  -7  316.07   37.10
   6  -4   7   91.79   27.40
   6  -4   7  133.29   21.60
   6  -4   7  119.59   17.90
   6  -4   7  174.28   25.70
  -6  -4  -7  123.79   24.90
   6   4   7   79.89   28.70
  -6   4  -7   71.19   28.00
  -6   4  -7  131.19   30.80
   7  -4   7  108.89   14.20
   7  -4   7   96.09   17.80
   7  -4   7  106.79   18.70
   7  -4   7  101.89   20.70
   7  -4   7   65.49   41.60
   7   4   7   53.99   18.50
   7   4   7  118.09   22.40
  -7   4  -7   83.99   18.80
   8  -4   7   69.99   16.80
   8  -4   7   64.39   14.50
   8  -4   7   63.39   16.80
   8  -4   7   -6.30   30.10
  -8   4  -7   42.00   14.90
  -8   4  -7   74.09   18.00
   8   4   7   37.00   15.20
   8   4   7   49.40   15.60
   9  -4   7   28.70   14.00
   9  -4   7   52.59   19.80
   9  -4   7   13.30   13.80
   9  -4   7  -13.80   25.40
   9   4   7    8.60   12.30
  -9   4  -7   31.70   17.40
   9   4   7   38.90   14.50
  -9   4  -7   37.30   13.60
  10  -4   7   41.00   21.40
  10  -4   7   24.60   13.30
  10   4   7    7.80   11.90
  10   4   7   46.90   12.40
 -10   4  -7   35.40   13.00
   8  -5  -7  130.09   23.00
   8  -5  -7   88.19   14.70
   8  -5  -7  104.79   15.80
   8   5  -7  113.09   13.70
  -8   5   7  139.29   27.60
  -8   5   7  100.29   19.10
   7  -5  -7    7.10   15.10
   7  -5  -7   12.40   15.80
   7  -5  -7   15.60   12.90
  -7   5   7    6.20   19.20
  -7   5   7   32.40   16.40
   7   5  -7   15.30    8.90
   6  -5  -7   63.09   14.10
   6  -5  -7   71.79    9.20
   6  -5  -7   89.99   15.70
   6  -5  -7   50.99   19.80
  -6   5   7   63.79   25.60
   6   5  -7   96.29   14.60
  -6   5   7   74.39   17.90
   5  -5  -7   78.09   10.80
   5  -5  -7   95.29   14.20
   5  -5  -7   80.09   16.10
   5  -5  -7   90.79   24.30
  -5   5   7   60.69   20.00
   4  -5  -7   59.69   24.70
   4  -5  -7  131.59   20.30
   4  -5  -7   75.29   16.90
   4  -5  -7   76.39   11.50
  -4   5   7   92.79   21.30
   4   5  -7   96.99   13.50
   3  -5  -7   71.59   18.40
   3  -5  -7   82.89   14.30
  -3  -5   7   83.09   12.90
   3  -5  -7   42.50   26.90
   3  -5  -7   69.39   13.10
  -3   5   7   41.80   27.00
  -3   5   7   34.50   15.90
   3   5  -7   58.69   11.00
  -3   5   7   71.69   22.00
  -2  -5   7  178.38   18.10
   2  -5  -7  152.68   23.00
  -2  -5   7  175.18   19.90
   2  -5  -7  169.28   31.50
   2  -5  -7  135.19   20.50
   2  -5  -7  157.48   20.90
   2   5  -7  146.49   20.30
  -2   5   7  156.58   32.80
  -2   5   7  140.59   22.50
   2   5  -7  145.99   18.50
  -2   5   7  184.08   29.60
  -2   5   7  147.29   25.50
  -1  -5   7   61.59   14.70
  -1  -5   7   38.60   10.00
   1  -5  -7   50.59   15.00
   1  -5  -7   78.49   34.70
   1  -5  -7   19.20   18.50
   1  -5  -7   51.09   13.50
   1   5  -7   30.70   12.50
  -1   5   7   61.69   27.80
   1   5  -7   38.30   16.30
  -1   5   7   30.40   18.30
  -1   5   7   37.10   26.80
   0  -5   7  501.55   30.70
   0  -5   7  611.44   55.19
   0  -5  -7  499.75   53.59
   0  -5   7  505.45   27.00
   0  -5  -7  525.05   31.50
   0  -5  -7  438.36   35.90
   0  -5  -7  449.16   40.00
   0   5  -7  475.15   29.80
   0   5  -7  553.64   38.20
   0   5   7  582.24   69.39
   0   5   7  489.15   39.20
   1  -5   7  268.97   41.90
  -1  -5  -7  181.38   29.60
   1  -5   7  221.08   20.80
  -1  -5  -7  167.18   22.30
   1  -5   7  198.18   17.70
   1   5   7  220.28   30.00
  -1   5  -7  211.78   21.90
   1   5   7  153.88   30.10
  -1   5  -7  236.98   29.30
   2  -5   7  599.04   43.10
   2  -5   7  586.24   29.20
   2  -5   7  582.04   30.80
  -2  -5  -7  553.54   34.40
  -2  -5  -7  576.54   41.90
   2   5   7  537.65   46.40
   2   5   7  603.64   41.70
   2   5   7  552.34   55.79
  -2   5  -7  558.04   33.10
  -2   5  -7  572.14   38.10
   3  -5   7   68.19   18.10
   3  -5   7   38.70    9.40
   3  -5   7   56.49    9.60
  -3  -5  -7   58.49   23.70
  -3  -5  -7   43.10   16.00
  -3   5  -7   59.49   15.60
  -3   5  -7   69.39   14.20
   3   5   7   90.49   18.20
  -3   5  -7   61.89   28.40
   3   5   7   83.69   22.70
  -4  -5  -7  163.48   26.20
   4  -5   7  253.67   17.10
   4  -5   7  227.68   29.70
   4  -5   7  218.08   19.10
  -4   5  -7  276.17   45.20
  -4   5  -7  207.38   25.70
   4   5   7  235.58   33.80
  -4   5  -7  173.98   24.00
   4   5   7  253.17   28.70
   5  -5   7  343.87   27.60
  -5  -5  -7  250.97   31.80
   5  -5   7  361.66   26.20
   5  -5   7  285.17   18.90
   5  -5   7  261.37   37.40
   5  -5   7  322.97   27.80
   5   5   7  339.47   32.90
   5   5   7  368.66   29.50
  -5   5  -7  318.57   37.50
  -5   5  -7  340.77   27.10
   6  -5   7   65.99   12.50
   6  -5   7  106.69   20.20
   6  -5   7   79.09   11.30
   6  -5   7   81.69   22.60
  -6   5  -7   66.49   13.60
   6   5   7   73.09   14.00
   6   5   7   55.99   19.30
  -6   5  -7   67.99   24.00
   7  -5   7  107.19   20.60
   7   5   7  118.59   21.70
   7   5   7  165.48   25.50
   4  -6  -7   39.60    6.00
  -4   6   7   52.49    9.90
   4   6  -7   67.39    9.60
   3  -6  -7   71.59   23.50
   3  -6  -7   67.19   11.40
   3  -6  -7   80.29   10.40
  -3   6   7   87.49   11.70
   3   6  -7   90.09    9.70
   2  -6  -7  169.78   31.40
   2  -6  -7  166.98   13.20
  -2  -6   7  131.19   17.30
   2   6  -7  192.78   13.10
  -2   6   7  199.88   18.40
   1  -6  -7   -5.60    6.60
   1  -6  -7    3.40    9.90
  -1  -6   7    6.40   11.30
  -1  -6   7   17.50    8.70
   1   6  -7    7.30    6.80
   0  -6  -7   48.70   11.10
   0  -6  -7   39.80    7.90
   0  -6   7   57.99   17.70
   0  -6   7   23.40    7.50
   0  -6   7   27.10    8.90
   0   6  -7   30.10    7.30
   0   6   7   29.60   12.10
  -1  -6  -7  101.59   15.30
  -1  -6  -7  103.99   20.10
   1  -6   7   90.49   11.80
   1  -6   7   90.49   11.40
   1   6   7  117.19   15.40
  -1   6  -7   85.79   11.70
   2  -6   7   34.00    6.40
  -2  -6  -7   43.60   12.70
   2  -6   7   48.00   13.10
   2   6   7   59.29   13.30
  -2   6  -7   23.80   11.90
  -2   6  -7   11.00    9.30
 -14   0   8   84.49   13.20
  14   0  -8   74.29   14.50
 -14   0   8   68.49   14.30
 -13   0   8  117.29   19.10
  13   0  -8  139.09   22.50
 -13   0   8  127.59   28.40
 -13   0   8   83.89   16.40
  13   0  -8   90.89   15.30
 -12   0   8  -23.90   17.50
 -12   0   8   -1.90   14.20
  12   0  -8   -1.40   26.60
  12   0  -8   26.90   22.80
  12   0  -8    9.60   16.00
 -11   0   8  238.68   38.70
  11   0  -8  185.08   24.00
  11   0  -8  258.77   30.20
 -11   0   8  286.97   30.80
  11   0  -8  227.18   30.70
  11   0  -8  203.38   23.80
  11   0  -8  228.08   31.40
 -10   0   8   27.10   22.20
  10   0  -8   58.29   25.10
  10   0  -8   31.40   14.20
  10   0  -8   49.30   28.20
 -10   0   8   57.39   17.20
 -10   0   8   42.70   27.60
  10   0  -8   26.80   26.90
  -9   0   8  424.86   48.40
   9   0  -8  424.16   49.40
  -9   0   8  426.46   31.20
   9   0  -8  441.76   31.10
  -9   0   8  372.36   49.40
   9   0  -8  433.06   47.30
   9   0  -8  331.07   54.09
   9   0  -8  459.15   41.80
  -8   0   8   31.20   27.40
   8   0  -8   45.70   31.90
  -8   0   8   54.99   24.90
   8   0  -8   57.49   23.20
   8   0  -8   44.90   14.90
   8   0  -8   76.79   28.00
  -8   0   8   41.50   15.50
  -8   0   8   62.29   27.30
  -7   0   8  146.59   20.40
  -7   0   8  164.38   30.20
  -7   0   8  163.68   32.20
   7   0  -8  190.18   32.30
   7   0  -8   98.19   26.70
   7   0  -8  136.09   17.30
  -7   0   8   84.99   21.00
   7   0  -8  171.68   27.60
   6   0  -8 2485.65  110.29
   6   0  -8 2350.56  105.99
  -6   0   8 2412.26  103.69
  -6   0   8 2440.06   99.09
   6   0  -8 2481.55  100.19
   6   0  -8 2400.86  110.39
  -5   0   8   22.00   13.80
   5   0  -8  -28.70   36.70
  -4   0   8 1766.52   78.09
  -4   0   8 1832.52   75.69
   4   0  -8 1989.50   95.59
   4   0  -8 1830.92   71.49
  -3   0   8 2034.10   80.59
   3   0  -8 1802.42   93.99
  -3   0   8 1813.12   78.29
   3   0  -8 2034.00   75.29
  -2   0   8 6311.37  235.78
   2   0  -8 5828.72  245.58
   2   0  -8 6072.89  231.58
   1   0  -8 6803.12  266.37
   1   0  -8 6313.37  250.87
  -1   0   8 6651.53  254.87
   0   0  -8 2326.97   89.29
   0   0   8 2395.26   93.79
   0   0  -8 2099.59  103.99
  -1   0  -8 4171.68  181.88
   1   0   8 4431.46  170.38
  -1   0  -8 4368.26  166.58
  -2   0  -8    1.10    5.30
  -2   0  -8    3.40   24.20
   2   0   8   -6.70    8.00
  -3   0  -8   19.80   35.70
   3   0   8    0.50    8.20
  -3   0  -8  -20.50   11.30
  -3   0  -8    6.30    6.80
  -4   0  -8   -0.40   12.00
  -4   0  -8   14.90    8.70
  -4   0  -8   48.20   33.30
   4   0   8    3.50    8.80
   5   0   8  286.87   50.79
  -5   0  -8  222.78   53.49
   5   0   8  240.18   41.10
  -5   0  -8  194.58   23.30
   5   0   8  216.98   32.10
  -5   0  -8  249.78   30.70
   5   0   8  297.97   47.20
  -5   0  -8  238.88   20.00
   6   0   8  -10.60   30.40
  -6   0  -8   16.50   12.50
   6   0   8   13.80   23.10
  -6   0  -8    3.90   36.80
   6   0   8   15.20   25.90
  -6   0  -8   14.50   13.30
   6   0   8    4.30   34.50
  -6   0  -8   11.80   22.20
   6   0   8   21.40   27.90
   7   0   8   82.79   34.50
  -7   0  -8   52.99   18.40
   7   0   8   88.09   30.60
  -7   0  -8   75.59   28.40
  -7   0  -8   97.69   33.10
  -7   0  -8   65.19   15.60
   7   0   8  104.69   36.90
   7   0   8   77.99   29.20
  -8   0  -8   -6.50   14.40
   8   0   8  -18.60   32.90
  -8   0  -8   -8.90   29.40
   8   0   8    3.90   31.20
   8   0   8   57.19   26.30
   8   0   8    0.60   26.00
  -8   0  -8   31.50   25.80
   8   0   8   21.10   26.00
   8   0   8    4.20   21.70
  -8   0  -8  -11.40   18.60
  -9   0  -8   47.80   20.80
   9   0   8   51.19   25.40
   9   0   8  134.89   38.10
  -9   0  -8   70.29   17.00
   9   0   8   62.89   22.90
  -9   0  -8   76.19   43.10
  -9   0  -8   45.70   28.00
   9   0   8   85.59   29.10
   9   0   8   70.59   23.60
   9   0   8   65.39   24.90
 -10   0  -8  103.09   18.60
  10   0   8   75.49   29.90
  10   0   8  118.49   27.40
  10   0   8  115.69   32.10
 -10   0  -8   88.99   18.80
  10   0   8   87.79   27.00
 -10   0  -8  101.39   27.00
  11   0   8    7.20   19.60
 -11   0  -8    0.00   14.30
  11   0   8   -4.10   18.20
 -11   0  -8    2.10   14.40
  11   0   8    4.30   18.00
  12   0   8   82.69   18.80
  12   0   8   70.09   19.50
 -12   0  -8  121.19   19.70
 -12   0  -8   79.89   15.00
  13   0   8  443.16   38.00
 -13   0  -8  549.74   25.40
 -13   0  -8  584.34   28.60
  14  -1  -8   78.99   13.50
 -14   1   8   84.09   26.00
 -14   1   8   83.49   12.00
  13  -1  -8   78.69   15.50
 -13  -1   8   98.59   15.90
 -13  -1   8   65.19   19.20
  13  -1  -8   84.09   19.60
  13  -1  -8   62.89   17.70
  13  -1  -8   72.79   30.50
 -13   1   8   85.79   14.30
 -13   1   8   98.49   16.90
 -13   1   8   80.29   23.20
  13   1  -8   89.79   15.70
  12  -1  -8  385.86   39.00
  12  -1  -8  426.56   35.40
 -12  -1   8  410.16   33.10
  12  -1  -8  397.86   35.90
  12  -1  -8  362.56   53.19
 -12  -1   8  391.36   46.50
  12  -1  -8  472.55   43.30
  12   1  -8  421.66   43.80
 -12   1   8  355.66   34.20
 -12   1   8  426.96   33.80
 -12   1   8  428.66   33.10
  12   1  -8  444.06   34.40
  12   1  -8  388.26   28.80
  11  -1  -8   44.30   20.20
  11  -1  -8   52.09   24.60
 -11  -1   8   78.19   19.10
 -11  -1   8   80.09   34.20
  11  -1  -8   69.39   19.60
  11  -1  -8   61.49   25.50
 -11   1   8   96.09   18.30
  11   1  -8   77.69   20.40
  11   1  -8   37.70   24.80
  11   1  -8   62.59   14.10
 -11   1   8   84.29   18.80
  10  -1  -8  514.65   41.40
 -10  -1   8  442.96   51.19
  10  -1  -8  385.36   52.09
  10  -1  -8  540.65   47.30
 -10  -1   8  440.66   36.40
 -10   1   8  666.33   73.89
  10   1  -8  446.06   31.60
  10   1  -8  448.86   43.10
  10   1  -8  437.66   51.19
 -10   1   8  479.45   42.70
 -10   1   8  514.55   37.00
   9  -1  -8  429.16   49.60
   9  -1  -8  445.16   40.10
   9  -1  -8  400.06   43.70
  -9  -1   8  445.96   33.80
   9  -1  -8  457.65   31.60
  -9   1   8  443.56   34.30
  -9   1   8  407.96   41.20
  -9   1   8  397.66   44.90
   9   1  -8  474.75   41.20
  -9   1   8  477.95   52.09
   9   1  -8  425.76   43.20
   9   1  -8  410.36   48.50
   9   1  -8  499.95   30.30
  -8  -1   8  161.78   24.70
   8  -1  -8  142.49   28.40
   8  -1  -8  123.59   23.50
   8  -1  -8  194.68   46.10
  -8   1   8  141.69   23.00
  -8   1   8  100.89   23.30
   8   1  -8  157.68   31.80
   8   1  -8  182.28   35.30
   7  -1  -8  149.79   31.20
   7  -1  -8   84.89   22.40
   7  -1  -8   96.69   25.90
  -7  -1   8   68.49   14.70
   7  -1  -8   32.30   30.00
   7  -1  -8  105.79   16.70
   7   1  -8   40.10   29.60
  -7   1   8   60.89   24.60
  -7   1   8  106.69   16.70
   7   1  -8   84.09   16.60
  -7   1   8   88.39   18.40
   7   1  -8   83.29   33.90
  -7   1   8  102.49   21.70
   7   1  -8   97.19   26.70
  -6  -1   8  160.88   22.60
   6  -1  -8  203.48   34.70
   6  -1  -8  226.28   29.30
   6  -1  -8  183.48   33.40
   6  -1  -8  193.88   35.40
   6  -1  -8  169.08   57.19
   6  -1  -8  156.68   23.40
   6  -1  -8  213.58   13.40
   6   1  -8  184.48   29.00
  -6   1   8  207.88   26.40
  -6   1   8  237.38   21.40
   6   1  -8  164.98   22.90
   6   1  -8  181.38   29.20
   6   1  -8  187.68   44.50
   6   1  -8  211.08   34.50
  -6   1   8  216.18   24.50
  -6   1   8  166.98   27.70
   5  -1  -8  246.08   14.80
  -5  -1   8  257.57   43.00
  -5  -1   8  233.18   22.50
   5  -1  -8  225.88   46.50
  -5   1   8  254.87   24.00
  -5   1   8  232.18   22.30
   4  -1  -8  411.06   51.99
  -4  -1   8  437.06   35.50
  -4  -1   8  331.07   25.00
  -4   1   8  390.46   25.20
   4   1  -8  401.66   49.00
  -4   1   8  405.46   26.50
   4   1  -8  416.16   34.60
   3  -1  -8  997.40   63.29
   3  -1  -8  919.01   52.29
  -3  -1   8  905.81   43.40
  -3  -1   8 1014.30   49.90
   3   1  -8 1006.80   67.09
   3   1  -8  955.70   51.49
  -3   1   8 1032.70   45.10
  -3   1   8  984.40   46.00
  -2  -1   8 1210.88   53.99
  -2  -1   8 1368.26   59.39
   2  -1  -8 1277.67   70.99
  -2  -1   8 1204.88   88.69
   2   1  -8 1358.56   75.49
  -2   1   8 1323.77   61.69
  -2   1   8 1314.77   56.09
   2   1  -8 1233.88   61.49
  -1  -1   8  667.73   33.00
  -1  -1   8  689.13   39.40
   1  -1  -8  751.42   51.69
   1   1  -8  791.42   57.59
   1   1  -8  740.93   30.20
  -1   1   8  730.13   35.10
   1   1  -8  755.22   43.40
   0  -1  -8  100.79   11.00
   0  -1   8   72.49   14.50
   0  -1  -8  125.59   26.00
   0   1  -8   85.69    8.80
   0   1   8  101.99   14.40
   0   1  -8  168.08   32.40
  -1  -1  -8  369.96   40.20
  -1  -1  -8  344.87   24.40
  -1  -1  -8  303.37   17.60
   1  -1   8  271.37   25.50
   1   1   8  270.37   19.80
  -1   1  -8  286.57   16.10
  -1   1  -8  402.06   51.79
  -2  -1  -8 2598.84  109.09
   2  -1   8 2643.44  110.59
  -2  -1  -8 2719.83  106.39
  -2  -1  -8 2857.01  138.89
   2  -1   8 2675.03  106.39
  -2   1  -8 2794.12  128.59
  -2   1  -8 2705.83  106.09
   2   1   8 2649.63  105.29
  -3  -1  -8  499.15   55.39
  -3  -1  -8  532.15   31.30
   3  -1   8  483.25   32.90
   3  -1   8  495.15   27.20
  -3  -1  -8  545.65   27.50
  -3   1  -8  502.85   32.50
  -3   1  -8  568.24   67.39
  -3   1  -8  409.96   32.60
  -4  -1  -8   36.60   40.90
  -4  -1  -8   67.29   13.00
   4  -1   8   71.89   24.60
  -4  -1  -8   61.19   14.80
   4  -1   8   60.59   13.10
   4  -1   8   29.50   15.50
   4   1   8   49.10   37.10
  -4   1  -8   74.49   24.00
   4   1   8    7.60   45.80
  -4   1  -8   60.09   10.50
  -4   1  -8   57.39   14.90
  -4   1  -8   33.90   41.90
   4   1   8   21.70   32.70
   5  -1   8   49.30   29.50
   5  -1   8   87.09   14.10
  -5  -1  -8  104.19   52.49
  -5  -1  -8   66.59   15.20
   5  -1   8   66.89   32.10
  -5  -1  -8   45.40   39.10
  -5  -1  -8   80.29   18.10
   5  -1   8   39.20   24.80
   5  -1   8   80.19   55.19
   5  -1   8   82.89   26.30
   5   1   8   44.00   30.30
  -5   1  -8   44.70   64.99
  -5   1  -8   56.19   20.00
   5   1   8   49.40   25.30
  -5   1  -8   68.89   15.20
   5   1   8  112.49   26.50
   5   1   8   81.19   34.80
   5   1   8   83.89   33.40
  -5   1  -8   70.49   11.90
  -5   1  -8   40.80   26.00
  -6  -1  -8  385.76   33.60
   6  -1   8  512.35   46.50
   6  -1   8  569.64   64.59
   6  -1   8  402.16   43.90
  -6  -1  -8  323.87   30.00
   6  -1   8  385.76   27.60
   6  -1   8  327.97   41.50
  -6  -1  -8  364.16   57.09
   6  -1   8  450.05   45.30
   6  -1   8  454.75   43.80
  -6   1  -8  392.56   29.20
   6   1   8  412.16   53.39
   6   1   8  317.57   51.99
   6   1   8  498.35   62.59
  -6   1  -8  382.46   37.60
   6   1   8  383.46   43.80
  -6   1  -8  341.37   45.50
  -6   1  -8  415.96   28.40
   6   1   8  426.16   44.90
   7  -1   8   21.50   25.60
  -7  -1  -8    6.60   15.70
   7  -1   8   61.49   29.90
   7  -1   8   55.59   22.80
   7  -1   8   48.00   26.40
   7  -1   8   46.60   31.10
   7   1   8   31.70   24.80
   7   1   8   31.20   27.20
  -7   1  -8   34.70   25.40
   7   1   8   26.60   28.50
   7   1   8   84.89   38.10
  -7   1  -8   55.59   17.90
   7   1   8   36.30   24.10
  -7   1  -8   31.90   14.70
  -7   1  -8   36.80   19.80
  -8  -1  -8  346.77   45.70
   8  -1   8  345.57   44.80
   8  -1   8  384.26   54.09
   8  -1   8  344.67   46.70
  -8  -1  -8  229.38   28.50
   8  -1   8  308.47   42.30
   8  -1   8  280.97   42.20
  -8   1  -8  279.67   39.80
   8   1   8  276.57   37.80
   8   1   8  326.07   48.20
   8   1   8  311.77   39.60
   8   1   8  328.87   49.90
   8   1   8  338.87   43.30
  -8   1  -8  351.76   40.70
  -8   1  -8  341.97   30.70
  -8   1  -8  309.57   35.10
  -9  -1  -8   10.40   15.10
   9  -1   8   37.20   27.50
   9  -1   8   11.20   23.70
  -9  -1  -8   11.50   20.70
   9  -1   8   22.30   22.40
   9  -1   8  -36.50   24.70
   9  -1   8  -16.50   25.00
   9   1   8   17.10   28.10
   9   1   8  -11.00   20.50
  -9   1  -8   21.90   30.40
  -9   1  -8    4.60   16.50
   9   1   8    4.90   21.50
  -9   1  -8   -7.50   16.30
   9   1   8   -0.50   39.20
  -9   1  -8  -17.60   20.80
   9   1   8   31.20   20.40
  10  -1   8  188.28   28.20
  10  -1   8  156.88   26.50
 -10  -1  -8  296.67   27.70
 -10  -1  -8  279.07   34.90
  10  -1   8  184.18   38.20
 -10   1  -8  217.18   33.30
  10   1   8  241.18   35.90
 -10   1  -8  248.88   29.40
  10   1   8  279.67   45.20
  10   1   8  178.58   41.30
 -11  -1  -8    9.30   13.30
  11  -1   8    8.50   17.40
  11  -1   8   24.60   18.60
  11  -1   8   39.00   19.50
 -11  -1  -8    1.00   13.90
  11   1   8   37.40   19.10
  11   1   8  -13.40   15.90
 -11   1  -8    6.30   16.00
 -11   1  -8   11.90   17.30
  11   1   8   14.70   21.80
 -11   1  -8   13.70   12.60
 -12  -1  -8   11.20   11.70
  12  -1   8   17.30   27.20
  12  -1   8    5.70   18.50
 -12  -1  -8   13.40   11.90
  12  -1   8   -6.90   14.80
 -12   1  -8    3.40   21.30
  12   1   8   49.00   20.40
 -12   1  -8   32.90   16.60
 -12   1  -8   -3.90    9.50
  12   1   8   10.60   20.40
 -12   1  -8   -6.30   10.70
  12   1   8    7.50   14.70
  13  -2  -8   60.89   17.40
  13  -2  -8   25.30   19.10
  13  -2  -8   75.19   15.20
 -13   2   8   93.29   14.20
  13   2  -8   63.89   17.70
 -13   2   8   43.80   16.00
 -12  -2   8   53.89   20.40
  12  -2  -8   64.99   20.30
  12  -2  -8   94.59   17.90
  12  -2  -8   73.99   22.30
  12  -2  -8   77.99   16.20
 -12   2   8   87.19   15.80
  12   2  -8   72.49   14.60
 -12   2   8   64.39   15.40
 -12   2   8   89.89   24.40
  12   2  -8   77.39   20.10
  11  -2  -8  170.78   28.70
 -11  -2   8  222.68   35.30
  11  -2  -8  207.58   30.00
  11  -2  -8  127.39   26.60
  11   2  -8  168.18   24.20
 -11   2   8  138.59   19.20
 -11   2   8  249.58   30.40
  11   2  -8  184.58   23.30
 -11   2   8  192.58   24.80
  10  -2  -8  367.46   34.40
  10  -2  -8  303.07   40.90
  10  -2  -8  384.56   44.60
 -10  -2   8  350.56   38.60
  10   2  -8  297.37   43.10
 -10   2   8  330.07   46.60
 -10   2   8  288.77   36.70
 -10   2   8  347.47   36.50
  10   2  -8  247.88   41.40
 -10   2   8  344.47   33.70
  10   2  -8  336.47   25.50
   9  -2  -8  312.87   45.50
   9  -2  -8  321.57   34.40
   9  -2  -8  369.06   51.99
   9   2  -8  355.16   45.80
   9   2  -8  347.47   40.30
  -9   2   8  403.76   37.70
  -9   2   8  294.97   34.60
   9   2  -8  364.06   46.10
  -9   2   8  368.56   54.59
  -9   2   8  238.78   85.89
   9   2  -8  318.37   26.70
   8  -2  -8   42.80   19.70
   8  -2  -8   23.40   36.80
   8  -2  -8   36.80   30.60
   8  -2  -8   13.00   25.30
  -8   2   8  -37.90   49.99
   8   2  -8   41.50   14.60
  -8   2   8   41.00   22.90
   8   2  -8   50.29   23.60
  -8   2   8   58.89   20.00
  -8   2   8   62.79   30.00
   8   2  -8  113.99   32.00
  -8   2   8   13.30   17.40
   7  -2  -8  130.99   37.00
   7  -2  -8  189.38   54.79
   7  -2  -8  124.79   20.70
  -7   2   8  120.69   22.20
  -7   2   8   97.89   20.90
   7   2  -8  161.18   36.70
  -7   2   8  106.49   18.90
   7   2  -8   99.49   15.70
  -7   2   8   72.39   23.90
  -7   2   8  129.19   46.70
   6  -2  -8  286.77   35.80
   6  -2  -8  260.57   34.70
   6  -2  -8  251.87   19.70
   6  -2  -8  270.07   42.50
   6  -2  -8  283.67   33.80
   6  -2  -8  279.17   42.30
   6   2  -8  236.58   37.40
   6   2  -8  261.07   31.60
  -6   2   8  248.68   49.30
  -6   2   8  265.37   30.40
   6   2  -8  238.08   24.40
  -6   2   8  333.17   42.00
  -6   2   8  280.07   35.90
  -6   2   8  225.48   27.20
   5  -2  -8  260.97   18.30
   5  -2  -8  255.57   33.60
   5  -2  -8  261.27   35.90
   5  -2  -8  202.48   31.20
   5  -2  -8  242.28   42.40
   5  -2  -8  256.77   48.70
   5  -2  -8  243.58   65.89
  -5   2   8  287.27   42.80
   5   2  -8  244.78   30.30
  -5   2   8  234.38   25.00
  -5   2   8  277.07   58.49
  -5   2   8  252.27   28.20
   5   2  -8  232.68   33.60
   5   2  -8  232.38   24.40
  -5   2   8  316.57   46.90
   4  -2  -8   81.89   12.90
   4  -2  -8  114.89   36.80
   4  -2  -8   29.70   42.80
   4  -2  -8   75.09   10.80
  -4  -2   8  108.09   14.80
   4  -2  -8   94.59   32.90
   4  -2  -8   65.19   19.20
  -4   2   8   81.19   26.40
   4   2  -8   83.79   26.00
  -4   2   8   62.89   20.20
  -4   2   8   67.09   28.20
  -4   2   8   49.90   33.70
   4   2  -8  104.79   16.20
  -4   2   8   64.99   13.70
   4   2  -8   68.69   35.60
  -3  -2   8 1613.54   64.99
   3  -2  -8 1629.94   92.59
   3  -2  -8 1570.54   66.79
   3  -2  -8 1528.45   81.39
   3  -2  -8 1514.55   65.19
   3   2  -8 1594.44   86.89
  -3   2   8 1613.04   67.99
   3   2  -8 1402.46   91.29
   2  -2  -8   54.99   11.70
  -2  -2   8   49.40   10.80
   2  -2  -8   -1.60   30.20
   2  -2  -8   44.30   10.00
  -2  -2   8   83.89   29.70
   2   2  -8   72.09   27.10
  -2   2   8   62.89   11.40
  -1  -2   8  564.84   28.30
   1  -2  -8  586.64   29.70
  -1  -2   8  607.84   47.20
   1  -2  -8  574.54   32.10
   1  -2  -8  540.25   55.09
   1   2  -8  625.54   78.89
  -1   2   8  594.24   30.40
   1   2  -8  554.24   51.29
   0  -2   8   10.90    7.70
   0  -2  -8    6.70   11.60
   0  -2  -8   -4.80    8.80
   0  -2  -8    0.30   28.00
   0  -2   8   29.10   21.30
   0   2  -8  -33.70   44.90
   0   2  -8   10.50   20.60
  -1  -2  -8  538.25   34.10
   1  -2   8  585.04   42.00
  -1  -2  -8  612.84   59.19
   1  -2   8  590.84   28.10
  -1  -2  -8  595.34   31.70
  -1   2  -8  583.44   52.79
  -1   2  -8  597.94   26.90
  -1   2  -8  572.54   83.89
  -2  -2  -8  246.68   24.30
   2  -2   8  176.88   28.30
   2  -2   8  244.68   16.00
  -2  -2  -8  252.17   42.90
   2  -2   8  195.78   26.30
   2  -2   8  270.97   40.80
  -2   2  -8  233.98   30.00
  -2   2  -8  214.78   16.40
   2   2   8  172.58   40.20
   2   2   8  240.48   32.10
  -2   2  -8  287.97   49.10
   2   2   8  197.08   43.30
   3  -2   8  437.96   43.90
  -3  -2  -8  379.56   53.59
   3  -2   8  376.76   21.20
  -3  -2  -8  340.37   33.30
  -3  -2  -8  381.36   29.20
   3  -2   8  389.86   26.80
   3  -2   8  382.76   32.40
  -3   2  -8  292.47   77.29
  -3   2  -8  355.66   22.60
   3   2   8  344.77   40.90
   3   2   8  258.97   49.90
  -3   2  -8  349.77   61.49
  -3   2  -8  380.06   40.70
   3   2   8  338.27   62.29
   3   2   8  386.06   43.60
   3   2   8  375.56   37.70
  -3   2  -8  382.36   45.40
  -3   2  -8  333.37   49.99
   4  -2   8   25.20   15.50
   4  -2   8   53.69   21.80
   4  -2   8   30.10   20.30
   4  -2   8   22.40   12.60
   4  -2   8   25.20   28.20
   4  -2   8   45.60    9.90
  -4  -2  -8   61.99   58.79
  -4  -2  -8   47.90   16.40
   4  -2   8  118.89   45.30
  -4   2  -8  189.08   84.89
  -4   2  -8   40.30   11.00
   4   2   8   60.19   51.19
   4   2   8  -15.30   30.10
  -4   2  -8   35.80   24.50
   4   2   8   25.50   36.60
   4   2   8   30.60   29.70
  -4   2  -8   19.60   29.80
   4   2   8   22.90   22.60
   4   2   8   39.90   25.40
  -4   2  -8   21.60   21.50
   5  -2   8  452.75   39.50
   5  -2   8  347.27   44.10
  -5  -2  -8  410.36   33.40
   5  -2   8  373.36   26.60
   5  -2   8  353.66   26.80
   5  -2   8  384.66   40.20
   5  -2   8  380.66   54.09
   5  -2   8  391.96   32.40
  -5   2  -8  382.86   51.89
  -5   2  -8  428.66   41.00
   5   2   8  314.87   42.80
   5   2   8  330.67   36.20
  -5   2  -8  403.46   39.30
   5   2   8  390.26   50.29
   5   2   8  401.56   43.70
   5   2   8  355.76   48.90
  -5   2  -8  380.06   27.00
  -5   2  -8  362.06   40.00
   6  -2   8   76.19   33.00
   6  -2   8   39.90   19.40
   6  -2   8   34.10   21.40
   6  -2   8   29.90   18.10
   6  -2   8   54.89   24.40
   6  -2   8   43.30   22.00
  -6  -2  -8   48.30   17.40
   6   2   8   43.30   21.70
   6   2   8   -9.10   34.00
   6   2   8   27.60   31.50
  -6   2  -8   36.30   14.70
  -6   2  -8   46.40   20.30
   6   2   8   41.00   24.90
  -6   2  -8   41.30   18.80
  -6   2  -8   54.79   23.60
   7  -2   8   95.19   22.70
   7  -2   8   90.09   29.20
   7  -2   8   82.99   21.90
  -7  -2  -8   85.59   19.00
   7  -2   8  101.19   23.60
   7  -2   8   66.29   22.50
   7   2   8   55.39   31.40
  -7   2  -8  115.19   22.30
   7   2   8  146.39   28.70
  -7   2  -8  105.69   20.60
  -7   2  -8  111.39   25.40
  -7   2  -8   94.49   19.70
   7   2   8   70.69   22.70
   7   2   8   94.69   38.00
   8  -2   8   97.29   23.00
  -8  -2  -8   86.79   19.20
   8  -2   8   76.49   27.90
   8  -2   8  123.49   24.80
   8  -2   8   52.69   32.30
  -8  -2  -8   96.59   30.30
   8  -2   8  147.59   34.10
   8  -2   8  133.59   23.30
   8   2   8   94.99   21.90
  -8   2  -8  105.59   19.40
   8   2   8   60.79   30.80
  -8   2  -8  108.99   20.90
  -8   2  -8   69.09   25.40
  -8   2  -8  111.69   26.10
   8   2   8   98.09   26.00
   8   2   8   53.59   37.70
   9  -2   8  537.45   46.00
   9  -2   8  477.35   42.30
   9  -2   8  438.56   53.09
  -9  -2  -8  571.34   51.39
   9  -2   8  463.15   53.29
   9  -2   8  440.26   69.09
  -9  -2  -8  511.45   35.80
   9   2   8  534.55   37.90
  -9   2  -8  454.25   50.79
   9   2   8  540.55   44.30
  -9   2  -8  540.05   48.40
  -9   2  -8  504.35   38.90
  10  -2   8  115.49   21.60
 -10  -2  -8  108.29   17.60
  10  -2   8   79.49   30.90
 -10  -2  -8  107.19   21.70
  10  -2   8  115.19   22.40
  10  -2   8  128.49   26.80
 -10   2  -8  120.19   18.30
 -10   2  -8  151.38   20.00
  10   2   8   69.49   26.60
  10   2   8  120.69   18.20
  11  -2   8   57.09   25.40
  11  -2   8   21.80   16.10
 -11  -2  -8   22.10   17.50
  11  -2   8   11.90   14.80
 -11  -2  -8  -22.70   15.70
 -11  -2  -8    2.20   13.60
 -11   2  -8   24.10   13.10
  11   2   8   25.10   14.30
  11   2   8   28.30   15.40
 -11   2  -8   24.20   13.60
 -12  -2  -8   40.00   15.10
  12  -2   8   33.80   14.40
  12  -2   8   29.00   13.90
 -12   2  -8   23.00   13.10
  12   2   8   28.00   14.00
 -12   2  -8   20.00   13.60
  12   2   8   56.19   14.30
  12  -3  -8  133.69   27.50
  12  -3  -8  191.28   21.00
  12  -3  -8  242.38   28.20
 -12   3   8  238.48   24.90
  11  -3  -8   31.30   40.20
  11  -3  -8    2.30   16.80
  11  -3  -8   10.30   12.30
  11  -3  -8   15.80   21.20
  11   3  -8   28.40   12.20
 -11   3   8  152.48   68.69
 -11   3   8   -4.90   12.40
  10  -3  -8   50.19   26.00
  10  -3  -8   16.40   15.50
  10  -3  -8   63.69   27.90
 -10   3   8   72.49   37.30
 -10   3   8   23.10   14.60
  10   3  -8    0.40   11.30
   9  -3  -8  650.03   41.80
   9  -3  -8  590.84   76.49
   9  -3  -8  603.14   57.49
   9  -3  -8  627.34   53.49
   9  -3  -8  750.32   77.99
  -9   3   8  645.14   73.39
   9   3  -8  689.43   36.30
  -9   3   8  681.53   44.30
   8  -3  -8  374.16   51.49
   8  -3  -8  419.66   53.89
   8  -3  -8  437.06   36.70
   8  -3  -8  473.35   46.70
   8  -3  -8  444.66   61.39
  -8   3   8  429.66   61.19
  -8   3   8  419.56   39.90
   8   3  -8  463.15   30.10
  -8   3   8  559.64   59.59
   7  -3  -8  306.37   29.00
   7  -3  -8  399.16   29.00
   7  -3  -8  203.38   43.40
   7  -3  -8  229.28   35.80
   7  -3  -8  365.26   33.10
   7  -3  -8  331.37   40.50
  -7   3   8  419.86   47.10
  -7   3   8  295.37   43.60
  -7   3   8  328.97   39.50
   7   3  -8  406.76   55.59
   7   3  -8  302.77   25.20
   6  -3  -8  658.63   80.69
   6  -3  -8  714.83   63.99
   6  -3  -8  702.93   39.50
   6  -3  -8  781.02   64.29
   6  -3  -8  777.62   40.70
   6  -3  -8  732.63   45.70
  -6   3   8  707.13   52.89
  -6   3   8  727.23   60.79
   6   3  -8  727.13   38.60
  -6   3   8  551.84   87.29
  -6   3   8  794.42   57.79
   6   3  -8  686.53   52.89
   5  -3  -8  649.74   63.69
   5  -3  -8  613.94   42.90
   5  -3  -8  643.74   34.70
   5  -3  -8  622.34   38.50
   5  -3  -8  583.14   35.90
   5   3  -8  643.14   48.40
  -5   3   8  608.74   56.39
  -5   3   8  556.44   74.79
   5   3  -8  735.23   35.50
  -5   3   8  659.83   57.49
  -5   3   8  613.24   44.40
  -5   3   8  490.85   42.10
   4  -3  -8  108.59   19.90
   4  -3  -8   93.39   24.40
   4  -3  -8  140.29   36.60
   4  -3  -8   99.69   35.40
   4  -3  -8   96.89   14.20
   4  -3  -8  125.49   16.50
   4   3  -8  123.59   20.60
   4   3  -8  111.99   25.40
  -4   3   8  142.09   32.80
  -4   3   8   50.79   36.70
   4   3  -8   79.79   16.20
  -4   3   8  144.09   36.40
  -4   3   8   90.39   18.50
  -4   3   8  114.79   22.90
   3  -3  -8  190.08   39.40
   3  -3  -8  132.79   37.50
   3  -3  -8  226.68   23.90
  -3  -3   8  238.08   20.80
   3  -3  -8  202.48   31.40
   3  -3  -8  247.48   21.20
  -3   3   8  176.38   28.70
   3   3  -8  242.98   30.80
  -3   3   8  176.08   38.00
   3   3  -8  238.08   22.50
  -3   3   8  232.68   28.80
   3   3  -8  248.48   30.90
   2  -3  -8   54.19   20.20
   2  -3  -8   73.29   42.20
   2  -3  -8   55.49   12.80
  -2  -3   8   61.79   11.00
   2  -3  -8   50.29   31.90
   2  -3  -8   52.79   13.60
  -2   3   8   58.89   23.80
   2   3  -8   71.59   15.00
   2   3  -8   39.40   17.80
  -2   3   8   70.29   38.60
  -2   3   8   18.50   23.40
  -2   3   8   53.79   20.60
   2   3  -8   81.29   26.20
  -2   3   8   24.20   35.40
   2   3  -8   55.49   24.60
   1  -3  -8   65.89   35.00
   1  -3  -8   88.89   15.30
   1  -3  -8  140.69   37.90
   1  -3  -8   57.49   13.30
   1  -3  -8   74.09   24.10
  -1  -3   8   88.59   14.30
  -1  -3   8   43.00   37.00
  -1   3   8   51.39   21.60
   1   3  -8   59.09   24.80
  -1   3   8   41.30   32.00
  -1   3   8   43.00   22.40
   1   3  -8   59.39   17.50
  -1   3   8   56.59   22.30
  -1   3   8   46.50   34.10
   1   3  -8   68.09   16.20
   0  -3  -8  270.27   28.00
   0  -3   8  351.96   53.79
   0  -3  -8  327.27   46.80
   0  -3  -8  270.47   24.60
   0  -3   8  271.97   34.70
   0  -3  -8  259.97   33.40
   0  -3   8  273.67   18.50
   0  -3   8  334.97   54.69
   0  -3  -8  300.07   46.50
   0   3   8  270.07   42.60
   0   3  -8  272.07   30.70
   0   3  -8  279.77   43.00
   0   3  -8  262.37   30.10
   0   3   8  255.27   38.40
   0   3   8  329.67   40.50
   0   3   8  294.77   42.90
   0   3   8  287.97   37.70
  -1  -3  -8   -4.70   13.10
   1  -3   8   -3.40   14.70
   1  -3   8   -6.20    7.70
   1  -3   8  -18.40   25.50
  -1  -3  -8   54.59   43.60
   1  -3   8   59.09   24.10
  -1  -3  -8    9.40   33.10
   1   3   8  -20.50   31.70
   1   3   8    4.80   21.30
   1   3   8    1.70   22.10
   1   3   8  -18.60   29.90
   1   3   8  -35.00   20.70
  -1   3  -8    2.70   19.00
  -1   3  -8    9.00   19.10
  -1   3  -8  -26.20   21.40
   2  -3   8   86.99   13.30
   2  -3   8   74.19   24.90
  -2  -3  -8   63.39   16.10
   2  -3   8  117.59   26.30
   2  -3   8   82.89   14.50
   2   3   8   70.19   23.30
   2   3   8  134.79   37.80
  -2   3  -8  109.29   24.30
  -2   3  -8   90.69   21.90
   2   3   8   84.99   24.70
   2   3   8  141.59   37.50
  -2   3  -8   85.89   21.30
   3  -3   8    6.30   24.00
   3  -3   8   50.59   33.40
   3  -3   8   27.60    9.20
   3  -3   8   18.40   12.20
  -3  -3  -8   41.10   17.00
   3  -3   8   74.99   31.30
   3   3   8  -19.40   23.40
   3   3   8   -5.60   49.10
   3   3   8   28.10   31.40
   3   3   8   -8.50   37.00
   4  -3   8   50.49   24.90
   4  -3   8   26.00   10.70
  -4  -3  -8   62.59   18.50
   4  -3   8   -5.50   24.40
   4  -3   8   19.40   19.70
   4  -3   8   23.60    9.80
  -4   3  -8   35.10   21.50
  -4   3  -8   49.60   21.40
   4   3   8   -3.30   39.80
   4   3   8   19.60   35.70
   4   3   8    9.00   20.00
   4   3   8   17.10   22.60
   5  -3   8  123.59   18.60
   5  -3   8  106.39   21.60
   5  -3   8  119.89   18.90
   5  -3   8  106.09   24.10
   5  -3   8  122.69   22.10
   5  -3   8   91.39   26.50
   5  -3   8   90.29   46.80
  -5  -3  -8  185.28   30.30
   5   3   8  138.19   23.90
   5   3   8   96.69   37.30
   5   3   8  107.19   26.70
  -5   3  -8  147.09   25.00
  -5   3  -8  169.68   26.40
   6  -3   8  570.34   42.20
   6  -3   8  560.64   44.90
   6  -3   8  601.04   54.19
   6  -3   8  621.34   70.29
   6  -3   8  556.94   42.70
   6  -3   8  553.64   30.80
   6  -3   8  620.94   44.80
  -6  -3  -8  503.65   39.70
  -6   3  -8  521.45   42.00
  -6   3  -8  552.24   46.00
   6   3   8  610.64   49.30
   6   3   8  455.35   65.09
   6   3   8  539.55   43.20
  -7  -3  -8   35.00   18.30
   7  -3   8   46.40   32.40
   7  -3   8   60.99   20.90
   7  -3   8   24.30   33.40
   7  -3   8   34.20   19.10
   7  -3   8   37.60   17.80
   7   3   8   84.99   35.90
  -7   3  -8   43.80   17.70
  -7   3  -8   78.29   43.20
  -7   3  -8   50.89   23.20
   7   3   8   46.90   20.30
   7   3   8   35.90   21.90
  -8  -3  -8  209.68   31.50
   8  -3   8  279.27   36.30
   8  -3   8  267.07   36.00
   8  -3   8  240.08   32.80
   8  -3   8  240.78   34.80
   8   3   8  289.37   35.70
   8   3   8  286.37   39.60
  -8   3  -8  317.87   42.70
  -8   3  -8  242.08   34.40
   9  -3   8   62.09   18.80
   9  -3   8   45.00   23.00
   9  -3   8   87.39   22.60
   9  -3   8   83.99   18.60
   9   3   8   93.39   17.90
   9   3   8   58.09   17.70
  -9   3  -8   74.79   16.00
  10  -3   8    1.00   17.40
  10  -3   8   19.50   14.70
  10  -3   8   -0.30   28.70
 -10  -3  -8   14.10   16.70
  10   3   8   20.50   12.80
 -10   3  -8   12.10   11.80
  10   3   8   22.00   14.40
  11  -3   8   50.79   13.30
  11  -3   8   31.30   15.10
 -11   3  -8   69.89   12.00
  11   3   8   45.40   11.80
  11  -4  -8   62.49   11.20
 -11   4   8   72.39   14.00
  10  -4  -8  102.39   26.90
  10  -4  -8  168.98   20.20
  10   4  -8  157.78   17.10
 -10   4   8  164.08   28.00
 -10   4   8  155.88   22.90
   9  -4  -8   30.60   22.00
   9  -4  -8   25.30   28.10
   9  -4  -8   38.80   18.70
   9  -4  -8   20.40   12.00
   9   4  -8   58.89   10.70
  -9   4   8   42.50   24.30
  -9   4   8   39.30   16.80
   8  -4  -8  163.48   39.70
   8  -4  -8  192.38   30.30
   8  -4  -8  159.18   27.10
   8  -4  -8  178.28   25.70
  -8   4   8  173.78   28.90
  -8   4   8  201.38   32.00
   8   4  -8  167.48   18.90
   7  -4  -8  108.69   44.30
   7  -4  -8  104.39   25.80
   7  -4  -8  109.29   21.40
   7  -4  -8  102.79   12.50
   7  -4  -8  119.39   17.90
  -7   4   8  151.98   24.50
  -7   4   8   82.49   26.20
   7   4  -8  103.39   14.70
   6  -4  -8  277.47   30.00
   6  -4  -8   56.39   97.29
   6  -4  -8  120.89   27.30
   6  -4  -8  168.18   21.90
   6  -4  -8  178.08   27.00
  -6   4   8  198.48   29.10
  -6   4   8  212.18   31.90
   6   4  -8  223.58   21.30
  -6   4   8  250.77   66.69
   5  -4  -8  130.49   20.20
   5  -4  -8   78.69   23.10
   5  -4  -8  107.59   28.70
   5  -4  -8  173.38   24.10
   5  -4  -8  148.09   22.30
  -5   4   8  128.89   34.80
  -5   4   8  102.49   29.40
   5   4  -8  150.38   19.70
  -5   4   8   98.89   28.10
   5   4  -8  122.19   30.90
   4  -4  -8  330.17   33.80
   4  -4  -8  347.67   28.60
   4  -4  -8  317.57   25.70
   4  -4  -8  369.26   41.00
  -4  -4   8  247.98   25.00
   4  -4  -8  325.27   51.69
   4   4  -8  267.77   24.40
  -4   4   8  266.37   43.30
  -4   4   8  241.68   33.60
   4   4  -8  314.67   48.50
  -4   4   8  371.96   55.39
   3  -4  -8   69.29   15.30
  -3  -4   8   33.70   15.20
   3  -4  -8   45.90   19.20
   3  -4  -8   42.80   30.00
   3  -4  -8   59.89   13.30
   3  -4  -8   73.79   23.40
  -3   4   8   19.50   27.80
   3   4  -8   60.49   13.70
  -3   4   8   68.99   24.70
   3   4  -8   56.59   17.40
  -3   4   8   52.89   19.10
   3   4  -8   46.30   27.30
  -2  -4   8  297.67   22.30
   2  -4  -8  320.17   56.19
   2  -4  -8  316.67   32.00
   2  -4  -8  313.17   25.00
   2  -4  -8  355.86   46.50
  -2   4   8  315.87   38.30
  -2   4   8  355.56   41.30
   2   4  -8  339.67   32.00
   2   4  -8  361.66   43.90
   2   4  -8  339.67   26.80
  -2   4   8  307.47   51.19
   1  -4  -8  246.58   40.50
  -1  -4   8  214.78   18.90
   1  -4  -8  228.98   32.20
  -1  -4   8  234.28   32.90
   1  -4  -8  239.08   22.90
  -1  -4   8  240.28   37.00
   1   4  -8  220.58   31.30
  -1   4   8  252.17   37.80
  -1   4   8  217.38   33.20
  -1   4   8  252.87   40.40
   1   4  -8  233.88   36.20
   1   4  -8  243.68   23.80
   1   4  -8  259.67   31.90
  -1   4   8  282.87   38.70
   0  -4   8   22.30   13.70
   0  -4   8    1.40   26.60
   0  -4  -8    0.30   18.80
   0  -4  -8   12.10   11.80
   0  -4  -8  -57.69   37.90
   0  -4   8    7.00    8.80
   0   4   8   31.00   21.90
   0   4   8   -7.20   27.00
   0   4  -8    0.00   16.10
   0   4   8    3.20   18.40
   0   4  -8  -20.40   23.40
   0   4  -8   17.00   13.80
   0   4   8  -18.20   21.90
  -1  -4  -8   59.59   43.10
   1  -4   8  120.19   15.60
   1  -4   8  132.59   15.70
  -1  -4  -8  126.49   17.90
   1  -4   8  103.89   25.60
  -1  -4  -8  165.18   26.70
   1   4   8   98.29   20.70
  -1   4  -8  141.89   27.50
   1   4   8   97.09   31.90
  -1   4  -8   91.89   19.20
   1   4   8  142.19   26.70
  -1   4  -8  112.99   18.00
   1   4   8  145.29   24.20
  -2  -4  -8  118.29   30.10
   2  -4   8  120.89   23.50
   2  -4   8  123.29   20.20
   2  -4   8  222.78   50.79
  -2   4  -8   88.49   24.20
  -2   4  -8  117.49   19.30
   2   4   8   95.89   34.40
   2   4   8  117.39   25.10
  -2   4  -8   94.09   21.00
   2   4   8  122.69   22.90
   3  -4   8  135.39   46.00
   3  -4   8   80.29   20.70
   3  -4   8   60.89   12.00
   3  -4   8   62.49   10.90
  -3  -4  -8   73.29   17.30
   3   4   8   35.40   19.60
  -3   4  -8   45.30   21.00
   3   4   8   56.99   21.20
  -3   4  -8   75.09   18.90
  -3   4  -8   80.99   19.90
   3   4   8   84.09   34.80
   4  -4   8  151.78   43.30
   4  -4   8  185.28   24.50
   4  -4   8  137.59   27.20
   4  -4   8  173.28   18.50
  -4  -4  -8  203.98   28.70
   4  -4   8  184.88   19.80
   4   4   8  157.48   39.20
  -4   4  -8  171.48   23.30
   4   4   8  184.68   25.20
  -4   4  -8  235.98   35.40
   4   4   8  190.28   35.60
   5  -4   8   59.59   17.40
   5  -4   8   90.09   13.80
   5  -4   8   87.99   25.20
  -5  -4  -8  109.29   19.80
   5  -4   8   90.89   20.20
   5  -4   8  101.19   16.30
   5   4   8   91.59   21.90
  -5   4  -8  102.99   20.80
   5   4   8  112.19   21.90
  -5   4  -8   84.29   20.40
   5   4   8   94.99   48.40
  -6  -4  -8  219.38   30.40
   6  -4   8  203.48   36.10
   6  -4   8  229.08   28.80
   6  -4   8  269.27   31.60
  -6   4  -8  246.48   32.10
  -6   4  -8  232.38   31.10
   6   4   8  210.38   30.90
   6   4   8  258.87   33.90
  -7  -4  -8  100.89   20.90
   7  -4   8   99.09   17.20
   7  -4   8  104.89   20.60
   7  -4   8   77.69   38.70
   7  -4   8   92.89   15.40
  -7   4  -8   83.69   18.20
   7   4   8   84.69   17.70
   7   4   8   67.49   17.30
  -7   4  -8  122.79   20.20
   8  -4   8    2.10   15.60
   8  -4   8    8.80   40.20
   8  -4   8    5.60   15.60
  -8  -4  -8   20.10   21.10
   8  -4   8  -12.40   11.60
  -8   4  -8    3.70   13.60
   8   4   8   20.80   13.70
  -8   4  -8   19.30   16.50
   8   4   8   21.20   12.70
   9  -4   8   37.30   15.70
   9  -4   8   38.60   18.80
   9  -4   8   76.39   18.00
   9  -4   8   22.90   23.70
   9   4   8   58.99   19.90
   9   4   8   53.59   15.90
  -9   4  -8   53.59   13.00
   8  -5  -8   22.70   13.40
   8  -5  -8   29.50   12.30
   8  -5  -8    5.40   14.50
  -8   5   8    0.80   13.60
   8   5  -8   15.80    8.60
   7  -5  -8   18.30   14.90
   7  -5  -8   46.60   14.60
   7  -5  -8   32.20   15.70
   7   5  -8   28.10    8.30
  -7   5   8   40.40   15.90
   6  -5  -8   36.20   18.10
   6  -5  -8   40.50   14.10
   6  -5  -8   31.70    8.30
   6  -5  -8   60.19   13.40
   6   5  -8   30.80    8.90
  -6   5   8   33.20   16.40
   5  -5  -8   48.90   16.40
   5  -5  -8   19.80    8.00
   5  -5  -8   19.40   21.30
   5  -5  -8   34.50   13.50
   5   5  -8   24.30    8.70
  -5   5   8    6.70   16.90
   4  -5  -8   27.30   20.90
   4  -5  -8   27.60    9.50
  -4  -5   8   32.30   13.60
   4  -5  -8   -6.10   13.90
   4  -5  -8   49.90   12.80
  -4   5   8   28.80   18.70
   4   5  -8   31.30    9.90
   3  -5  -8  504.55   29.40
   3  -5  -8  460.25   50.99
   3  -5  -8  454.95   28.20
   3  -5  -8  419.06   31.70
  -3  -5   8  439.36   26.70
  -3   5   8  399.26   34.10
  -3   5   8  447.46   49.80
  -3   5   8  456.15   40.70
   3   5  -8  466.15   26.80
   2  -5  -8  273.37   35.20
   2  -5  -8  224.98   29.70
  -2  -5   8  227.58   28.50
  -2  -5   8  227.38   19.80
   2  -5  -8  231.78   23.60
   2  -5  -8  246.88   24.40
  -2   5   8  203.58   30.60
   2   5  -8  231.68   26.40
   2   5  -8  261.07   20.60
  -2   5   8  299.37   39.90
  -2   5   8  272.07   43.70
  -2   5   8  307.77   30.30
   1  -5  -8  187.08   23.40
  -1  -5   8  172.88   21.50
   1  -5  -8  170.38   21.60
   1  -5  -8  126.99   35.50
   1  -5  -8  159.78   21.10
  -1  -5   8  147.69   17.00
  -1   5   8  194.98   30.10
   1   5  -8  162.18   20.70
  -1   5   8  188.88   28.30
   1   5  -8  146.29   17.80
  -1   5   8  171.88   22.00
  -1   5   8  118.49   27.70
   0  -5   8  471.45   49.00
   0  -5  -8  455.95   33.30
   0  -5  -8  497.05   36.80
   0  -5  -8  470.25   29.50
   0  -5  -8  378.76   47.20
   0  -5   8  471.45   28.10
   0  -5   8  458.65   25.80
   0   5   8  427.86   47.00
   0   5   8  470.95   39.30
   0   5   8  562.74   40.90
   0   5  -8  498.65   34.60
   0   5  -8  493.25   28.50
   1  -5   8  322.07   22.10
   1  -5   8  292.67   38.30
   1  -5   8  295.17   19.70
  -1  -5  -8  273.57   24.10
  -1  -5  -8  201.48   50.39
  -1  -5  -8  309.87   29.90
  -1   5  -8  339.77   30.70
  -1   5  -8  298.27   23.80
   1   5   8  288.87   46.10
   1   5   8  350.96   32.20
  -2  -5  -8  220.28   31.00
   2  -5   8  201.38   18.10
   2  -5   8  222.38   33.60
  -2  -5  -8  174.98   23.40
   2  -5   8  197.28   18.80
  -2   5  -8  197.28   21.00
   2   5   8  186.68   24.20
  -2   5  -8  234.18   27.20
   2   5   8  158.28   29.90
   2   5   8  188.48   28.10
  -2   5  -8  190.78   29.50
   3  -5   8  111.09   14.80
  -3  -5  -8  123.09   16.70
  -3  -5  -8  140.39   21.40
   3  -5   8  120.79   15.70
   3  -5   8  165.08   29.20
   3  -5   8  156.78   26.10
   3   5   8  130.19   19.20
   3   5   8  132.79   22.30
  -3   5  -8  145.99   16.10
  -3   5  -8  128.79   25.00
  -3   5  -8  145.19   19.70
   4  -5   8   33.40    7.90
   4  -5   8   59.59   15.50
   4  -5   8   47.90   13.30
   4  -5   8   33.20   13.50
  -4  -5  -8   23.50   14.30
  -4  -5  -8   41.00   31.30
   4   5   8   50.19   18.60
   4   5   8   57.59   15.70
  -4   5  -8   46.60   23.80
  -4   5  -8   47.00   14.30
  -5  -5  -8   -0.30   16.40
   5  -5   8   16.60   12.20
   5  -5   8  -13.60   16.70
   5  -5   8    6.10    7.20
   5  -5   8   19.30   12.50
  -5   5  -8   50.69   22.70
  -5   5  -8   23.20   12.50
   5   5   8   33.60   16.80
   5   5   8   31.30   13.60
   6  -5   8   19.00   12.70
   6  -5   8   10.70    9.80
   6   5   8   66.39   16.80
  -6   5  -8   44.50   14.20
   6   5   8   30.00   12.80
  -6   5  -8    9.60   21.60
   7  -5   8   12.50   13.10
   7  -5   8   30.20   10.60
   7   5   8   38.50   13.10
  -7   5  -8   35.00   11.50
   2  -6  -8  126.59   11.20
   2  -6  -8   92.39   15.50
   1  -6  -8   39.80    7.10
  -1  -6   8   47.00    9.40
   1   6  -8   39.40    7.00
   0  -6  -8   83.99   12.50
   0   6  -8   57.99    8.30
   1  -6   8   75.19    8.00
  -1  -6  -8  102.29   12.90
  -1   6  -8   63.29   11.60
 -14   0   9   70.49   12.20
  14   0  -9   84.99   13.30
 -13   0   9  129.19   17.30
  13   0  -9  123.59   23.50
  13   0  -9  126.39   16.70
 -13   0   9  134.09   19.10
 -13   0   9  146.99   17.30
 -12   0   9  -20.70   13.80
  12   0  -9   13.60   16.40
  12   0  -9   -0.50   20.40
 -12   0   9   -7.20   15.50
  11   0  -9   56.49   27.20
 -11   0   9   52.59   17.50
  11   0  -9   -8.40   31.60
  11   0  -9   36.80   12.70
 -11   0   9   21.20   19.20
  11   0  -9   49.10   20.10
 -10   0   9  291.37   42.20
  10   0  -9  308.17   26.60
  10   0  -9  296.67   35.40
  10   0  -9  342.27   41.60
 -10   0   9  358.46   30.80
  10   0  -9  314.57   36.70
 -10   0   9  240.68   43.30
   9   0  -9   18.80   26.40
  -9   0   9   21.40   14.70
   9   0  -9   10.30   23.90
   9   0  -9  -56.39   32.20
   9   0  -9   26.60   13.50
  -9   0   9   11.40   22.10
  -9   0   9   58.99   25.60
   9   0  -9   42.10   24.50
  -8   0   9  273.27   42.20
  -8   0   9  164.78   31.40
   8   0  -9  214.78   40.10
  -8   0   9  198.78   32.50
  -8   0   9  172.18   24.00
   8   0  -9  172.38   24.30
  -7   0   9  443.46   46.90
  -7   0   9  403.16   28.20
   7   0  -9  386.86   45.20
  -7   0   9  360.56   45.40
   7   0  -9  401.06   41.20
   7   0  -9  436.86   43.10
   7   0  -9  365.76   29.10
  -7   0   9  456.75   41.00
   6   0  -9 1326.67   70.69
  -6   0   9 1150.78   67.39
  -6   0   9 1175.88   69.39
   6   0  -9 1115.69   66.19
  -6   0   9 1223.88   65.79
   6   0  -9 1181.98   55.09
  -6   0   9 1275.17   54.69
   6   0  -9 1201.38   64.19
   5   0  -9 2917.21  143.79
  -5   0   9 2575.54  113.29
  -4   0   9 2518.05  106.59
   4   0  -9 2624.24   99.29
  -4   0   9 2577.34  102.89
  -3   0   9 1100.59   50.39
  -3   0   9  995.30   46.20
   3   0  -9  951.10   72.59
   3   0  -9 1128.69   43.00
   2   0  -9  617.14   27.00
  -2   0   9  635.04   34.00
   2   0  -9  589.94   57.29
   1   0  -9 2001.30   98.29
  -1   0   9 1988.10   83.59
   1   0  -9 1990.80   78.59
   0   0   9   54.09   12.00
   0   0  -9   54.89   30.00
   0   0  -9   62.29    8.90
   1   0   9 1368.16   60.19
  -1   0  -9 1347.07   60.09
  -1   0  -9 1353.26   78.19
  -1   0  -9 1363.76   55.49
  -2   0  -9   55.99   13.10
  -2   0  -9   52.79    7.90
  -2   0  -9  -12.80   31.40
   2   0   9   42.90   11.00
  -3   0  -9   95.49   40.30
  -3   0  -9   76.69   14.20
   3   0   9   85.79   13.50
   4   0   9  561.94   29.40
  -4   0  -9  560.14   28.80
   4   0   9  574.14   50.39
  -4   0  -9  642.54   79.79
  -4   0  -9  493.05   36.00
  -4   0  -9  547.65   48.10
   4   0   9  513.15   52.59
   4   0   9  526.05   65.89
  -5   0  -9   -7.80   62.39
   5   0   9   62.99   25.20
  -5   0  -9   35.00   12.20
   5   0   9   35.60   25.50
  -5   0  -9   32.40   21.90
   5   0   9   44.80   31.50
  -5   0  -9   18.50   13.50
   6   0   9  432.66   49.50
   6   0   9  384.16   59.99
  -6   0  -9  427.76   41.50
  -6   0  -9  380.76   29.80
  -6   0  -9  457.25   59.39
   6   0   9  338.77   42.20
  -6   0  -9  379.36   31.00
   6   0   9  422.36   50.79
  -7   0  -9  331.67   38.00
   7   0   9  346.47   47.80
   7   0   9  419.06   54.79
  -7   0  -9  331.17   49.70
   7   0   9  426.36   52.39
   7   0   9  435.86   44.90
  -7   0  -9  358.06   39.90
  -7   0  -9  378.16   30.70
  -8   0  -9  257.27   35.00
  -8   0  -9  301.17   48.80
  -8   0  -9  258.77   34.40
   8   0   9  174.18   31.20
   8   0   9  265.97   48.20
  -8   0  -9  256.07   27.50
   8   0   9  259.47   38.60
   8   0   9  272.17   38.90
   9   0   9   97.79   27.50
  -9   0  -9   80.49   17.00
   9   0   9   42.50   32.80
  -9   0  -9   59.19   28.60
  -9   0  -9   66.19   19.30
  -9   0  -9   30.70   46.60
   9   0   9   69.29   22.10
   9   0   9   43.10   24.60
  10   0   9   29.60   21.40
  10   0   9    1.40   21.50
  10   0   9   14.80   18.80
 -10   0  -9    5.80   14.40
  10   0   9   81.59   41.20
 -10   0  -9   22.40   15.20
  11   0   9   13.20   18.30
 -11   0  -9   18.60   14.00
  11   0   9    0.80   19.30
  11   0   9    9.80   18.40
 -11   0  -9   20.30   13.20
 -12   0  -9    1.50    8.50
 -12   0  -9   19.70   14.10
  12   0   9    7.60   16.50
  12   0   9   33.60   18.30
 -12   0  -9    6.50    9.80
 -14  -1   9   64.19   15.90
  14  -1  -9   58.69   12.30
 -14   1   9   57.19   10.80
  14   1  -9   46.90   14.40
 -13  -1   9  178.78   23.30
 -13  -1   9  131.39   22.30
  13  -1  -9  121.59   22.20
  13  -1  -9  163.88   21.90
  13  -1  -9  182.68   28.00
  13   1  -9  213.88   23.80
 -13   1   9  159.88   23.60
 -13   1   9  184.78   27.40
 -13   1   9  202.38   23.10
  12  -1  -9    0.80   20.40
  12  -1  -9   10.00   19.20
  12  -1  -9   32.00   19.80
  12  -1  -9   33.70   16.20
 -12  -1   9   28.50   15.10
 -12  -1   9   23.40   20.40
 -12   1   9   15.80   15.10
 -12   1   9   20.70   15.50
 -12   1   9    4.10   13.50
  12   1  -9   13.50   11.60
  12   1  -9   11.20   16.00
  12   1  -9   28.60   23.50
 -11  -1   9   67.99   26.30
 -11  -1   9   80.59   18.10
  11  -1  -9   51.79   20.90
  11  -1  -9   62.69   27.30
  11   1  -9   66.39   22.20
 -11   1   9   61.19   15.90
 -11   1   9   61.29   18.10
 -10  -1   9  695.63   56.89
  10  -1  -9  720.13   54.19
 -10  -1   9  719.33   43.70
  10  -1  -9  716.73   58.79
  10  -1  -9  770.32   48.30
 -10   1   9  836.62   45.60
  10   1  -9  759.02   56.89
 -10   1   9  726.53   48.90
 -10   1   9  739.83   50.29
  10   1  -9  728.13   50.69
 -10   1   9  709.23   89.89
  10   1  -9  801.72   40.60
   9  -1  -9   93.79   22.70
   9  -1  -9   98.09   27.80
   9  -1  -9   93.29   15.60
  -9  -1   9  107.49   18.00
   9  -1  -9  107.79   27.90
   9  -1  -9   76.09   24.30
   9   1  -9   94.29   26.30
  -9   1   9  174.48   37.60
  -9   1   9  101.39   21.30
   9   1  -9  126.09   24.40
  -9   1   9  132.49   19.40
   9   1  -9  100.69   25.40
   9   1  -9  112.99   16.30
  -9   1   9   97.29   25.00
  -8  -1   9  185.98   24.10
   8  -1  -9  116.69   16.00
   8  -1  -9  132.89   27.20
   8  -1  -9  135.79   29.30
   8  -1  -9  136.19   26.90
   8  -1  -9  149.39   25.10
   8   1  -9  156.48   27.80
  -8   1   9  118.49   17.70
  -8   1   9  142.09   26.00
  -8   1   9  147.99   27.50
   8   1  -9   95.49   28.30
  -8   1   9  111.69   22.40
   8   1  -9  144.29   22.40
   7  -1  -9    2.60   25.90
   7  -1  -9   61.79   14.10
   7  -1  -9   96.19   29.80
   7  -1  -9   44.90   22.40
   7  -1  -9   55.89   23.50
  -7   1   9   68.29   20.10
   7   1  -9   50.49   23.20
  -7   1   9   35.70   19.30
   7   1  -9    0.60   28.70
  -7   1   9   64.39   14.40
  -7   1   9   26.60   22.80
   7   1  -9   47.20   29.30
   7   1  -9   34.50   14.40
   6  -1  -9   58.79   24.20
   6  -1  -9    6.00   77.99
   6  -1  -9   99.09   30.60
  -6  -1   9   48.40   13.80
   6  -1  -9   87.29   51.59
   6  -1  -9   46.40    7.80
   6  -1  -9   53.09   15.30
   6  -1  -9   69.39   30.80
   6  -1  -9  107.49   24.70
   6   1  -9   83.79   23.40
  -6   1   9   55.29   20.70
  -6   1   9   58.89   22.40
   6   1  -9   24.70   21.40
   6   1  -9   86.89   16.10
   6   1  -9   45.00   33.90
   6   1  -9   80.09   28.20
  -6   1   9   78.19   17.70
   5  -1  -9  429.96   65.09
  -5  -1   9  374.56   24.70
   5  -1  -9  314.47   45.50
   5  -1  -9  402.56   20.00
   5  -1  -9  370.16   31.90
  -5  -1   9  401.16   47.30
   5  -1  -9  391.06   44.10
   5   1  -9  438.46   40.90
   5   1  -9  362.76   46.60
  -5   1   9  395.66   29.50
  -5   1   9  374.16   40.30
   5   1  -9  374.46   28.00
  -5   1   9  410.86   37.20
   5   1  -9  322.97   40.40
  -4  -1   9  743.13   34.30
  -4  -1   9  586.84   46.20
   4  -1  -9  705.33   73.09
   4  -1  -9  719.83   31.20
  -4   1   9  647.74   37.50
  -4   1   9  778.72   37.40
   4   1  -9  677.13   50.49
  -3  -1   9  757.42   35.40
  -3  -1   9  772.12   44.80
   3  -1  -9  781.32   65.69
   3  -1  -9  693.93   39.00
   3   1  -9  772.02   49.20
  -3   1   9  762.82   38.60
   3   1  -9  799.02   75.49
  -3   1   9  722.13   42.70
  -2  -1   9  121.99   15.60
  -2  -1   9  134.39   20.50
   2  -1  -9  136.89   11.20
   2  -1  -9  187.58   20.30
   2  -1  -9  209.58   34.80
   2   1  -9  139.09   39.20
  -2   1   9  194.78   24.50
  -2   1   9  150.98   17.20
   2   1  -9  156.98   30.60
   1  -1  -9  209.18   13.80
  -1  -1   9  197.28   16.40
   1  -1  -9  286.97   38.70
  -1  -1   9  199.38   26.60
   1  -1  -9  221.28   21.10
  -1   1   9  199.18   18.10
   1   1  -9  197.78   12.60
   1   1  -9  183.58   38.60
   0  -1  -9  518.05   25.60
   0  -1   9  549.65   34.60
   0  -1  -9  536.45   30.40
   0  -1   9  562.44   26.80
   0   1  -9  509.15   24.40
   0   1   9  526.65   28.90
   0   1  -9  600.64   63.59
  -1  -1  -9  765.62   60.79
  -1  -1  -9  681.73   35.70
  -1  -1  -9  674.03   31.30
   1  -1   9  667.23   31.60
   1  -1   9  652.53   38.50
   1   1   9  654.93   33.30
  -1   1  -9  664.23   30.10
  -1   1  -9  671.13   65.59
  -2  -1  -9  769.02   34.60
   2  -1   9  711.43   34.70
   2  -1   9  763.82   41.10
  -2  -1  -9  768.52   65.79
  -2  -1  -9  705.33   37.80
  -2   1  -9  679.93   41.60
   2   1   9  742.23   34.40
  -2   1  -9  724.13   70.69
  -2   1  -9  781.62   34.00
  -3  -1  -9  122.39   17.50
  -3  -1  -9  125.69   40.20
   3  -1   9  119.69   23.50
   3  -1   9  104.49   13.80
   3  -1   9  137.99   22.10
  -3  -1  -9  123.39   20.70
   3  -1   9  122.59   24.70
   3   1   9   70.19   75.49
  -3   1  -9   84.89   23.40
   3   1   9  157.38   35.80
   3   1   9  121.49   30.20
  -3   1  -9  155.08   24.20
  -3   1  -9  149.39   49.70
  -3   1  -9  124.39   15.00
   4  -1   9   45.00   22.40
  -4  -1  -9   35.60   10.70
   4  -1   9   38.50   15.80
  -4  -1  -9   -0.70   52.79
  -4  -1  -9   50.49   14.30
   4  -1   9   74.09   33.00
   4  -1   9   21.20   13.10
  -4  -1  -9   33.50   29.80
   4  -1   9   29.90   21.30
   4  -1   9   38.40   32.80
   4   1   9   90.69   31.40
  -4   1  -9   36.20   15.30
  -4   1  -9   33.60   20.50
  -4   1  -9    4.50   25.70
   4   1   9   33.20   29.40
   4   1   9   87.59   31.70
  -4   1  -9   10.80   63.59
   4   1   9   35.00   43.80
   4   1   9    1.00   22.50
  -4   1  -9   32.20   10.40
   5  -1   9   70.69   28.30
  -5  -1  -9   68.59   29.60
  -5  -1  -9   39.80   14.20
   5  -1   9   43.20   14.10
   5  -1   9   84.29   27.90
   5  -1   9   82.59   22.80
  -5  -1  -9   21.40   13.60
   5  -1   9   35.50   22.20
   5   1   9   14.70   33.80
  -5   1  -9   44.90   12.20
  -5   1  -9   63.49   19.70
   5   1   9   30.60   26.00
   5   1   9   68.19   29.60
   5   1   9   50.39   28.50
  -5   1  -9   50.79   16.10
   5   1   9   49.40   23.90
  -5   1  -9   56.09   25.30
   6  -1   9  349.27   27.30
  -6  -1  -9  298.97   34.60
   6  -1   9  314.67   42.00
  -6  -1  -9  262.57   45.40
   6  -1   9  337.17   43.90
  -6  -1  -9  371.36   29.00
  -6   1  -9  322.47   28.90
   6   1   9  212.98   48.80
   6   1   9  240.78   35.00
   6   1   9  286.17   33.50
   6   1   9  317.07   52.79
  -6   1  -9  307.17   41.80
  -6   1  -9  366.06   28.70
  -6   1  -9  218.78   34.90
  -7  -1  -9  322.27   45.00
   7  -1   9  383.66   46.10
   7  -1   9  296.17   37.70
  -7  -1  -9  341.27   30.80
   7  -1   9  359.36   48.20
   7  -1   9  420.26   46.70
   7  -1   9  340.17   42.80
   7  -1   9  349.87   43.10
  -7   1  -9  343.37   38.00
   7   1   9  422.96   50.09
  -7   1  -9  360.26   32.40
  -7   1  -9  351.56   36.00
   7   1   9  328.07   43.20
   7   1   9  380.36   59.59
   7   1   9  396.66   39.50
  -7   1  -9  283.87   39.60
   7   1   9  332.87   49.10
  -8  -1  -9  322.57   41.00
   8  -1   9  331.17   46.30
   8  -1   9  340.97   46.30
  -8  -1  -9  341.17   44.60
   8  -1   9  268.37   38.10
   8  -1   9  394.96   43.90
   8  -1   9  337.47   44.40
  -8   1  -9  351.26   44.40
   8   1   9  302.67   40.80
  -8   1  -9  328.27   40.20
  -8   1  -9  323.97   34.30
   8   1   9  304.27   45.30
   8   1   9  289.47   44.20
   8   1   9  332.37   37.30
  -9  -1  -9  113.79   21.70
   9  -1   9  134.49   27.80
  -9  -1  -9   91.99   18.00
   9  -1   9  124.99   24.30
   9  -1   9  115.89   29.90
   9  -1   9  127.19   30.60
   9   1   9   92.29   20.90
   9   1   9   93.29   23.30
   9   1   9   53.19   26.70
  -9   1  -9  225.88   60.79
  -9   1  -9  113.69   20.40
  -9   1  -9  109.59   18.30
  -9   1  -9  112.39   23.10
   9   1   9  120.49   24.30
   9   1   9   57.09   36.40
 -10  -1  -9  106.99   16.70
  10  -1   9  116.89   24.30
  10  -1   9   48.30   32.10
  10  -1   9   97.79   21.90
  10  -1   9   84.59   22.90
 -10  -1  -9  133.29   20.70
  10   1   9   98.09   22.20
 -10   1  -9  100.49   16.40
  10   1   9  101.89   21.80
 -10   1  -9   96.09   21.70
 -10   1  -9  132.59   20.20
  10   1   9   66.69   23.80
 -11  -1  -9   39.40   20.50
  11  -1   9   18.40   17.40
  11  -1   9   36.60   22.00
 -11  -1  -9   65.29   14.10
  11  -1   9   54.19   17.20
  11   1   9   51.29   20.30
  11   1   9   84.89   21.40
 -11   1  -9   53.99   13.10
 -11   1  -9   62.69   18.00
  11   1   9   38.80   17.40
 -11   1  -9   21.20   18.20
  12  -1   9   33.30   17.90
 -12  -1  -9   18.40    8.80
 -12  -1  -9   30.70   11.50
  12  -1   9    2.40   20.60
 -12  -1  -9   29.20   12.80
  12   1   9   36.40   16.30
  12   1   9   14.10   18.60
 -12   1  -9   43.00   11.90
 -12   1  -9   29.20    8.90
  13  -2  -9   -2.00   13.50
  13  -2  -9  -22.90   13.40
  13  -2  -9   11.10   13.50
 -13   2   9  -21.10   15.80
  13   2  -9  -39.90   23.90
 -13   2   9   16.60   12.50
  12  -2  -9   21.90   18.70
  12  -2  -9   30.20   14.80
  12  -2  -9   35.90   18.40
 -12  -2   9   53.19   18.10
  12  -2  -9   47.40   15.40
 -12   2   9   30.10   13.40
 -12   2   9   30.70   14.90
  12   2  -9   26.90   12.20
  12   2  -9   28.70   20.40
  11  -2  -9  102.19   24.60
  11  -2  -9  135.79   26.60
  11  -2  -9  184.78   28.10
 -11  -2   9  141.49   21.30
 -11   2   9  100.49   18.00
 -11   2   9   80.29   16.90
  11   2  -9  136.59   24.40
 -11   2   9  136.59   24.20
  11   2  -9  148.29   20.60
  10  -2  -9  710.13   49.40
  10  -2  -9  614.94   41.60
  10  -2  -9  550.34   56.69
 -10  -2   9  598.64   42.70
  10   2  -9  574.94   33.60
  10   2  -9  571.34   67.19
 -10   2   9  638.34   44.60
 -10   2   9  572.04   41.10
 -10   2   9  637.34   40.40
  -9  -2   9  783.52   46.40
   9  -2  -9  771.22   62.79
   9  -2  -9  740.93   48.00
   9  -2  -9  714.93   54.49
   9   2  -9  793.42   58.69
  -9   2   9  622.24   65.79
  -9   2   9  731.93   96.59
   9   2  -9  801.92   51.29
   9   2  -9  784.12   40.60
  -9   2   9  825.92   47.50
  -9   2   9  814.92   47.90
   9   2  -9  667.23   80.19
  -9   2   9  829.82   49.10
   8  -2  -9  212.38   41.10
   8  -2  -9  140.59   27.60
   8  -2  -9  146.39   21.60
   8  -2  -9  155.38   32.40
  -8   2   9  149.49   22.40
  -8   2   9  166.18   27.30
   8   2  -9  147.79   21.90
  -8   2   9  140.39   20.80
  -8   2   9  131.09   28.40
   8   2  -9  109.99   26.10
   8   2  -9  141.99   35.90
  -8   2   9  171.58   48.80
   7  -2  -9   38.50   10.90
   7  -2  -9   42.10   33.00
   7  -2  -9   78.79   35.20
   7  -2  -9   49.90   17.60
  -7  -2   9   27.50   15.60
   7  -2  -9   -1.00   27.60
   7   2  -9   37.90   14.60
  -7   2   9   57.49   44.70
  -7   2   9   25.20   19.20
   7   2  -9   41.70   25.40
  -7   2   9   44.80   20.70
  -7   2   9   47.60   18.20
  -7   2   9   20.80   24.00
   6  -2  -9  235.78   33.70
   6  -2  -9  210.28   41.40
   6  -2  -9  302.57   43.50
  -6  -2   9  249.97   24.90
   6  -2  -9  215.88   25.70
   6  -2  -9  185.88   33.80
  -6   2   9  202.68   31.40
  -6   2   9  237.08   42.50
   6   2  -9  245.78   23.00
  -6   2   9  259.67   36.90
  -6   2   9  250.97   48.10
   6   2  -9  233.08   34.20
  -6   2   9  190.98   29.20
   6   2  -9  206.38   30.30
   5  -2  -9  537.35   37.90
   5  -2  -9  577.04   33.70
   5  -2  -9  597.04   51.99
   5  -2  -9  807.62  120.19
   5  -2  -9  566.74   67.69
   5  -2  -9  558.54   29.80
   5  -2  -9  486.75   65.59
   5  -2  -9  615.94   42.10
  -5  -2   9  590.44   32.70
  -5   2   9  656.53   84.49
  -5   2   9  652.93   52.49
  -5   2   9  576.24   66.59
   5   2  -9  585.14   47.50
   5   2  -9  574.44   57.49
   5   2  -9  575.54   33.60
  -5   2   9  568.54   37.10
  -5   2   9  566.64   46.10
  -5   2   9  533.15   38.40
   5   2  -9  552.94   42.60
   4  -2  -9  363.46   22.00
   4  -2  -9  334.87   50.09
   4  -2  -9  403.26   47.20
   4  -2  -9  343.97   33.20
  -4  -2   9  298.07   24.40
   4  -2  -9  371.76   58.09
   4  -2  -9  364.36   60.39
   4  -2  -9  348.77   24.90
  -4   2   9  408.96   70.39
  -4   2   9  335.87   44.80
   4   2  -9  306.57   36.10
   4   2  -9  326.67   25.70
   4   2  -9  302.37   44.40
  -4   2   9  296.17   36.00
  -4   2   9  308.17   48.60
  -4   2   9  403.36   28.70
   4   2  -9  320.97   46.30
  -4   2   9  289.37   48.40
  -4   2   9  359.86   36.60
   3  -2  -9  167.18   16.30
  -3  -2   9  172.68   17.60
   3  -2  -9  131.09   47.50
   3  -2  -9  170.58   32.90
   3  -2  -9  165.98   20.10
   3  -2  -9  160.78   35.30
   3  -2  -9  161.98   22.50
   3   2  -9  116.49   32.90
   3   2  -9  146.49   19.80
   3   2  -9  170.28   42.10
  -3   2   9  146.49   31.40
   3   2  -9  183.78   27.30
  -3   2   9  120.89   21.20
   3   2  -9  153.48   24.40
  -3   2   9  174.08   38.40
  -3   2   9  147.99   31.30
  -3   2   9  137.89   22.30
   3   2  -9  133.09   28.40
   2  -2  -9   10.00   40.20
   2  -2  -9   40.80    9.30
   2  -2  -9   31.50   27.80
   2  -2  -9   81.49   34.80
   2  -2  -9   20.90   21.20
  -2  -2   9   43.30   31.70
  -2  -2   9   29.80    9.30
  -2   2   9   -4.30   25.30
  -2   2   9  -15.70   21.10
  -2   2   9   27.70   11.20
   2   2  -9   45.10   24.50
   2   2  -9    9.00   24.40
   2   2  -9   43.30   19.70
  -2   2   9  -38.20   34.00
   2   2  -9   69.69   35.30
   1  -2  -9  196.98   20.40
   1  -2  -9  205.68   28.20
   1  -2  -9  185.68   38.70
   1  -2  -9  207.18   17.50
  -1  -2   9  195.28   29.80
  -1  -2   9  175.48   16.10
   1   2  -9  155.08   35.00
   1   2  -9  223.78   28.90
  -1   2   9  188.78   31.30
   1   2  -9  160.48   24.80
  -1   2   9  222.58   39.20
  -1   2   9  230.38   20.40
  -1   2   9  241.68   28.10
   0  -2   9  328.97   19.80
   0  -2  -9  298.27   44.10
   0  -2   9  344.47   41.90
   0  -2  -9  337.87   25.40
   0   2  -9  377.06   55.89
   0   2  -9  261.87   37.90
   0   2   9  362.36   42.20
   0   2  -9  288.27   44.50
   0   2   9  362.96   48.40
   0   2   9  344.87   53.29
   0   2   9  335.17   41.40
   0   2  -9  367.86   95.39
   1  -2   9    6.80    7.80
   1  -2   9   44.40   18.00
   1  -2   9   17.50   15.00
  -1  -2  -9  -77.89   40.90
   1  -2   9   -5.10   24.60
   1   2   9   92.99   36.80
  -1   2  -9   22.70   21.90
   1   2   9    2.50   36.30
   1   2   9    6.30   21.90
  -1   2  -9   -7.80   23.90
  -1   2  -9   57.39   32.70
  -1   2  -9  -24.50   65.89
   1   2   9   28.20   20.90
  -2  -2  -9  983.00   46.70
   2  -2   9  965.60   52.69
   2  -2   9  945.21   41.20
  -2  -2  -9  950.00   75.69
  -2  -2  -9  956.10   94.99
   2  -2   9  892.21   56.29
   2  -2   9 1035.30   54.99
  -2  -2  -9  781.52   52.79
   2  -2   9  985.00   45.60
  -2   2  -9  943.01   59.69
  -2   2  -9  989.90   41.70
   2   2   9  964.80   55.99
   2   2   9  862.41   71.59
   2   2   9  787.52   72.99
   2   2   9  813.62   74.29
  -2   2  -9  959.10   58.99
  -2   2  -9 1105.29  130.69
  -2   2  -9  933.01   56.39
   2   2   9  892.21   57.29
   3  -2   9  461.65   28.90
  -3  -2  -9  420.76   71.49
   3  -2   9  609.04   77.19
  -3  -2  -9  433.76   30.90
   3  -2   9  465.55   36.90
   3  -2   9  501.65   42.70
   3  -2   9  416.06   40.70
   3  -2   9  461.45   68.89
   3  -2   9  449.46   24.50
  -3  -2  -9  422.56   61.79
  -3  -2  -9  494.15   34.90
  -3   2  -9  442.46   50.69
   3   2   9  423.26   65.79
   3   2   9  421.56   43.00
   3   2   9  355.76   59.49
  -3   2  -9  467.85   45.00
  -3   2  -9  437.76   99.59
   3   2   9  434.76   41.60
  -3   2  -9  422.96   44.40
   3   2   9  411.66   61.29
  -3   2  -9  486.55   26.70
   4  -2   9  233.48   37.80
   4  -2   9  252.47   32.60
   4  -2   9  351.96   52.49
   4  -2   9  266.47   34.50
  -4  -2  -9  311.37   27.80
  -4  -2  -9  320.37   39.80
   4  -2   9  251.37   23.40
   4  -2   9  278.17   21.00
   4  -2   9  259.07   45.20
  -4   2  -9  291.97   36.10
   4   2   9  305.07   51.69
  -4   2  -9  339.07   44.60
  -4   2  -9  305.57   37.30
   4   2   9  263.77   37.80
   4   2   9  312.57   37.50
  -4   2  -9  263.37   35.50
   4   2   9  293.57   43.60
  -4   2  -9  310.87   23.80
   4   2   9  198.38   36.40
   4   2   9  324.37   53.89
  -5  -2  -9   79.49   33.20
  -5  -2  -9   79.89   16.50
   5  -2   9   62.59   17.30
   5  -2   9   57.79   21.50
   5  -2   9   48.60   19.60
   5  -2   9   99.69   19.80
  -5   2  -9   56.29   14.70
  -5   2  -9   86.69   21.80
  -5   2  -9  106.29   22.50
  -5   2  -9   37.10   31.50
   5   2   9   23.60   31.50
   5   2   9   69.29   24.00
   5   2   9   59.29   34.50
   5   2   9   29.60   36.50
   6  -2   9  558.84   44.30
  -6  -2  -9  427.86   57.79
   6  -2   9  450.15   47.50
  -6  -2  -9  490.95   34.50
   6  -2   9  460.15   40.30
   6  -2   9  486.65   57.39
   6  -2   9  507.15   42.20
   6   2   9  461.85   42.70
   6   2   9  547.15   52.89
   6   2   9  476.95   43.30
  -6   2  -9  504.05   40.70
  -6   2  -9  456.25   40.30
   6   2   9  360.06   58.49
  -7  -2  -9   74.19   28.30
   7  -2   9  102.79   29.70
   7  -2   9   80.29   24.40
   7  -2   9   66.29   26.60
   7  -2   9   83.19   23.50
  -7   2  -9   90.99   22.50
   7   2   9   97.59   27.00
   7   2   9   76.99   23.50
  -7   2  -9  102.39   22.90
   7   2   9   73.39   35.70
  -7   2  -9   64.29   19.20
   7   2   9   61.39   29.80
   7   2   9   97.69   22.70
  -8  -2  -9   27.20   23.10
  -8  -2  -9   70.19   17.20
   8  -2   9   53.79   21.20
   8  -2   9   47.90   23.10
   8  -2   9   45.00   21.70
   8  -2   9   98.59   27.10
   8   2   9   16.30   26.80
  -8   2  -9   76.19   18.70
  -8   2  -9   45.80   28.70
  -8   2  -9   58.99   19.50
   8   2   9   65.49   35.20
   8   2   9   55.39   19.50
   8   2   9   66.19   23.50
   9  -2   9  360.76   39.10
  -9  -2  -9  309.27   27.40
  -9  -2  -9  302.27   39.60
   9  -2   9  301.27   38.10
  -9  -2  -9  255.67   34.50
   9  -2   9  350.26   41.80
  -9   2  -9  319.57   31.20
   9   2   9  228.08   44.40
   9   2   9  377.56   33.30
   9   2   9  366.16   39.80
  -9   2  -9  321.67   32.00
  -9   2  -9  266.77   33.60
   9   2   9  259.97   42.40
 -10  -2  -9   89.79   15.40
  10  -2   9   84.09   19.70
  10  -2   9   98.59   28.10
  10  -2   9   47.60   18.90
 -10  -2  -9   73.19   18.30
 -10  -2  -9   61.29   17.50
 -10   2  -9  104.09   17.00
  10   2   9  111.09   19.20
 -10   2  -9   78.59   16.20
  10   2   9   97.09   18.60
 -10   2  -9  131.39   19.30
  11  -2   9   -8.40   12.40
 -11  -2  -9   36.20   14.70
  11  -2   9   18.50   14.80
 -11  -2  -9   -1.90   13.10
  11   2   9   31.40   15.20
 -11   2  -9   24.00   16.50
  11   2   9   16.20   14.00
 -11   2  -9    8.90   12.60
  12  -3  -9    5.80   10.10
  12  -3  -9   39.40   14.80
 -12   3   9   20.50   12.30
  11  -3  -9   20.10   19.60
  11  -3  -9   -7.60   26.80
  11  -3  -9    4.90   15.30
  11  -3  -9   28.60   12.30
  11   3  -9   17.40   10.60
 -11   3   9   89.99   46.30
 -11   3   9   14.50   12.60
  10  -3  -9   23.00   26.30
  10  -3  -9   42.40   23.30
  10  -3  -9    7.10   13.30
  10   3  -9    0.20   10.50
 -10   3   9   15.50   13.80
 -10   3   9   32.80   37.90
   9  -3  -9   45.00   30.40
   9  -3  -9    5.90   27.80
   9  -3  -9   68.29   22.10
   9  -3  -9   41.60   31.90
  -9   3   9   55.49   19.50
  -9   3   9   30.00   31.90
   9   3  -9   89.49   14.40
   8  -3  -9   72.29   30.20
   8  -3  -9   57.29   17.40
   8  -3  -9   32.10   33.30
   8  -3  -9   85.89   27.10
   8  -3  -9   34.30   27.40
  -8   3   9   26.40   41.50
  -8   3   9   55.29   21.00
  -8   3   9   40.80   32.30
   8   3  -9   72.99   14.00
   7  -3  -9  424.96   65.49
   7  -3  -9  376.76   52.49
   7  -3  -9  468.75   55.69
   7  -3  -9  562.84   38.60
   7  -3  -9  519.95   32.60
   7   3  -9  486.35   31.00
  -7   3   9  533.35   43.00
  -7   3   9  461.05   57.09
  -7   3   9  505.95   59.99
   7   3  -9  539.15   55.09
   6  -3  -9  706.23   59.99
   6  -3  -9  618.04   39.50
   6  -3  -9  640.94   73.99
   6  -3  -9  645.54   43.70
   6  -3  -9  667.63   63.39
   6  -3  -9  694.43   39.10
   6  -3  -9  682.93   39.10
  -6   3   9  705.43   51.89
   6   3  -9  692.53   37.10
  -6   3   9  732.63   59.89
  -6   3   9  606.64   50.79
  -6   3   9  557.14   81.09
   6   3  -9  678.03   49.50
   6   3  -9  842.62   58.39
   5  -3  -9  338.07   26.90
   5  -3  -9  358.26   31.00
   5  -3  -9  353.56   41.60
   5  -3  -9  390.36   28.70
   5  -3  -9  377.36   34.40
  -5  -3   9  325.57   28.60
   5  -3  -9  431.96   60.29
   5  -3  -9  386.26   56.09
   5   3  -9  362.56   26.50
  -5   3   9  302.87   45.10
   5   3  -9  373.76   39.30
  -5   3   9  372.66   49.70
  -5   3   9  327.87   47.40
  -5   3   9  322.67   38.50
  -5   3   9  392.86   37.00
   4  -3  -9   85.79   13.70
   4  -3  -9  260.07   72.69
   4  -3  -9  104.99   21.40
   4  -3  -9   76.69   14.40
   4  -3  -9   92.19   17.90
   4  -3  -9   97.69   31.80
  -4  -3   9  101.09   14.00
  -4   3   9   79.29   35.40
  -4   3   9  141.19   38.20
   4   3  -9   84.19   23.80
  -4   3   9   94.29   24.40
  -4   3   9  122.39   27.40
   4   3  -9  117.39   16.40
  -4   3   9   86.19   21.80
   3  -3  -9  504.25   29.60
   3  -3  -9  457.35   31.80
   3  -3  -9  405.26   55.99
  -3  -3   9  519.45   27.10
   3   3  -9  384.46   48.40
  -3   3   9  461.55   43.20
   3   3  -9  453.65   41.90
   2  -3  -9   40.30   29.60
   2  -3  -9   12.30   13.70
   2  -3  -9   26.10   34.00
  -2  -3   9   16.80    9.80
   2  -3  -9    8.10   17.20
   2  -3  -9   22.50   11.00
   2   3  -9   29.20   13.60
  -2   3   9   26.60   21.40
   2   3  -9   14.90   21.10
  -2   3   9   25.50   36.30
  -2   3   9   -0.60   30.80
   2   3  -9    0.10   22.30
   2   3  -9   38.40   15.90
  -2   3   9   19.40   22.50
  -2   3   9   31.10   22.10
   1  -3  -9   45.50   12.30
   1  -3  -9   36.00   29.70
  -1  -3   9   33.20   29.30
   1  -3  -9   29.50   34.20
   1  -3  -9   57.89   20.60
  -1  -3   9   31.00    9.30
  -1  -3   9   12.50   20.00
   1  -3  -9   43.40   14.00
  -1   3   9   56.89   20.70
  -1   3   9    9.00   21.50
   1   3  -9   14.60   17.30
   1   3  -9   70.99   23.00
  -1   3   9   13.30   32.90
  -1   3   9   15.50   23.30
   1   3  -9   46.90   15.40
  -1   3   9   53.29   33.90
   0  -3   9   33.00    9.40
   0  -3   9   49.30   33.50
   0  -3  -9   51.89   23.00
   0  -3  -9   63.99   16.80
   0  -3   9   22.40   16.60
   0  -3  -9   64.49   33.00
   0  -3   9    4.60   26.20
   0  -3  -9   49.60   14.50
   0  -3  -9    0.10   33.40
   0   3   9   30.80   23.20
   0   3  -9   46.80   17.40
   0   3  -9   81.39   24.20
   0   3   9   30.70   31.20
   0   3   9   65.19   22.40
   0   3  -9   63.69   17.50
   0   3   9  -22.60   29.80
   0   3   9   46.00   20.60
   1  -3   9   96.39   16.20
   1  -3   9   84.39   24.90
  -1  -3  -9  158.68   38.40
  -1  -3  -9  103.09   16.10
  -1  -3  -9  120.89   29.20
   1  -3   9  102.59   14.50
  -1  -3  -9  108.99   21.30
   1  -3   9  117.69   29.70
  -1   3  -9   90.99   24.20
   1   3   9   62.19   34.40
   1   3   9  113.79   23.20
  -1   3  -9  154.18   21.80
  -1   3  -9   69.29   19.70
   1   3   9   90.79   34.70
   1   3   9   89.79   24.40
   1   3   9   80.49   23.40
  -2  -3  -9  116.79   16.70
   2  -3   9  123.49   14.30
   2  -3   9  109.99   14.80
   2  -3   9   69.69   22.60
   2  -3   9  163.78   29.70
  -2  -3  -9  156.98   31.70
   2   3   9   89.69   38.60
   2   3   9  133.69   23.90
   2   3   9  126.49   26.00
  -2   3  -9  126.39   24.10
  -2   3  -9   77.49   21.90
   3  -3   9  141.09   16.20
  -3  -3  -9  186.58   25.00
   3  -3   9  114.49   23.00
   3  -3   9  131.29   20.10
   3  -3   9  126.49   29.80
  -3  -3  -9   86.19   36.10
   3   3   9  114.89   24.80
   3   3   9  145.99   27.90
   3   3   9  166.38   24.60
   3   3   9  125.09   38.30
   3   3   9   68.99   34.60
  -3   3  -9  156.88   24.80
  -3   3  -9  226.58   33.60
   4  -3   9  115.99   30.80
   4  -3   9  118.19   19.20
   4  -3   9  125.29   33.90
   4  -3   9  130.59   16.10
   4  -3   9  136.89   24.50
  -4  -3  -9   89.19   17.80
   4  -3   9  107.89   22.70
   4   3   9   89.69   40.70
   4   3   9   84.99   22.00
  -4   3  -9   92.79   24.40
   4   3   9   89.29   25.30
  -4   3  -9  113.79   22.20
   4   3   9   82.89   25.50
   4   3   9   60.29   33.60
  -5  -3  -9   73.99   25.00
   5  -3   9   34.60   13.40
   5  -3   9  -11.70   27.90
   5  -3   9   52.79   23.50
   5  -3   9   24.00   10.80
   5  -3   9   15.60   19.90
   5  -3   9   44.40   43.00
   5  -3   9   17.90   20.40
   5   3   9   -7.40   33.30
   5   3   9   24.70   20.60
  -5   3  -9    6.80   21.40
  -5   3  -9   65.89   51.99
   5   3   9   29.70   20.70
   5   3   9   -7.40   73.09
  -5   3  -9   27.70   18.60
   6  -3   9  662.63   45.20
  -6  -3  -9  552.04   38.90
   6  -3   9  665.43   48.40
   6  -3   9  561.64   42.40
   6  -3   9  571.84   32.90
   6  -3   9  598.34   61.39
   6  -3   9  632.24   65.39
  -6   3  -9  489.45   45.80
  -6   3  -9  617.24   51.59
   6   3   9  468.65   61.49
  -6   3  -9  543.45   41.80
   6   3   9  604.14   44.60
   6   3   9  617.14   48.90
   7  -3   9  478.25   39.60
  -7  -3  -9  412.16   48.30
   7  -3   9  470.45   52.29
  -7  -3  -9  382.36   34.10
   7  -3   9  391.36   34.30
  -7   3  -9  401.16   45.30
  -7   3  -9  458.95   43.80
   7   3   9  451.85   42.90
  -7   3  -9  407.36   34.90
   7   3   9  414.86   38.10
   8  -3   9   13.20   24.20
   8  -3   9   11.50   15.80
  -8  -3  -9    7.40   16.20
   8  -3   9   35.40   18.80
  -8  -3  -9   30.80   27.00
   8  -3   9   38.20   19.10
  -8   3  -9   -1.40   29.30
   8   3   9   11.50   32.50
   8   3   9   34.90   19.40
  -8   3  -9   51.19   26.80
  -8   3  -9   40.80   15.30
   8   3   9   44.20   17.20
   9  -3   9  154.38   23.80
  -9  -3  -9  169.18   27.20
   9  -3   9  159.38   31.50
  -9  -3  -9  187.48   25.40
   9  -3   9  167.38   22.40
   9  -3   9  258.67   40.50
   9   3   9  224.38   30.20
   9   3   9  185.58   25.20
  -9   3  -9  170.38   24.10
 -10  -3  -9    6.40   16.20
 -10  -3  -9   66.49   20.50
  10  -3   9   17.90   14.50
  10  -3   9   67.99   46.10
  10  -3   9   31.00   17.50
 -10   3  -9   28.60   11.50
  10   3   9   47.70   14.70
  10   3   9   24.00   11.40
  10  -4  -9    5.90   20.30
  10  -4  -9   54.79   13.80
 -10   4   9   19.00   14.10
 -10   4   9   50.29   23.10
  10   4  -9   41.00    9.80
   9  -4  -9   15.40   20.80
   9  -4  -9   36.80   22.40
   9  -4  -9   30.30   26.90
   9  -4  -9   42.10   12.30
  -9   4   9   42.90   17.00
   9   4  -9   38.40    9.90
  -9   4   9   -1.80   23.30
   8  -4  -9  300.57   34.60
   8  -4  -9  297.47   40.80
   8  -4  -9  256.37   40.70
   8  -4  -9  311.97   27.10
   8   4  -9  245.48   21.30
  -8   4   9  250.37   39.70
  -8   4   9  305.17   34.80
   7  -4  -9  -41.50   40.70
   7  -4  -9   -7.90   17.60
   7  -4  -9   11.00   13.40
   7  -4  -9    2.30   10.70
   7  -4  -9   12.80   21.40
   7   4  -9   -1.80   10.00
  -7   4   9  -11.20   20.90
  -7   4   9   27.80   21.50
   6  -4  -9  653.63   40.10
   6  -4  -9  494.75   54.29
   6  -4  -9  588.74   99.39
   6  -4  -9  738.23   40.90
   6   4  -9  648.94   34.40
  -6   4   9  688.83   69.59
  -6   4   9  711.53   52.09
   5  -4  -9  684.53   42.70
   5  -4  -9  787.92   39.20
   5  -4  -9  774.22   58.79
   5  -4  -9  616.64   49.99
  -5  -4   9  724.23   38.90
   5  -4  -9  651.63   37.30
   5   4  -9  706.53   36.10
  -5   4   9  652.23   54.59
  -5   4   9  639.54   63.89
  -5   4   9  677.23   63.09
   5   4  -9  617.44   57.79
   4  -4  -9  643.34   35.50
   4  -4  -9  623.64   46.90
  -4  -4   9  592.04   33.10
   4  -4  -9  626.04   58.69
   4  -4  -9  613.24   41.30
   4  -4  -9  595.74   36.90
  -4   4   9  507.05   57.69
  -4   4   9  611.84   51.29
  -4   4   9  597.94   42.20
   4   4  -9  605.04   54.59
   4   4  -9  640.24   34.40
   3  -4  -9   96.69   19.70
   3  -4  -9  133.79   32.10
   3  -4  -9  194.18   26.40
  -3  -4   9  138.59   19.20
   3  -4  -9  166.08   25.10
   3  -4  -9  141.49   21.20
  -3   4   9  141.69   23.30
  -3   4   9  109.69   32.30
  -3   4   9  145.79   26.40
   3   4  -9  163.98   26.00
   3   4  -9  145.99   27.30
   3   4  -9  141.99   20.20
   2  -4  -9  436.86   31.60
  -2  -4   9  378.86   38.40
  -2  -4   9  427.76   26.60
   2  -4  -9  475.85   48.10
   2  -4  -9  433.06   33.90
   2  -4  -9  398.16   57.29
  -2   4   9  385.36   40.30
   2   4  -9  531.55   44.60
   2   4  -9  449.26   29.40
  -2   4   9  452.15   44.30
   2   4  -9  395.86   35.80
  -2   4   9  390.16   53.99
  -1  -4   9  201.98   27.80
   1  -4  -9  335.57   47.30
   1  -4  -9  224.18   30.90
  -1  -4   9  137.99   29.60
   1  -4  -9  116.99   35.10
   1   4  -9  230.08   29.00
  -1   4   9  173.78   36.10
  -1   4   9  231.88   38.00
   1   4  -9  212.48   23.50
  -1   4   9  206.78   27.30
   1   4  -9  163.88   24.10
   1   4  -9  220.08   29.80
  -1   4   9  180.88   33.70
   0  -4  -9   43.90   36.10
   0  -4   9   63.79   17.60
   0  -4  -9   20.80   16.90
   0  -4   9   46.40   13.70
   0  -4  -9   42.50   23.70
   0  -4   9   42.30   23.10
   0   4  -9   46.20   18.70
   0   4  -9   53.49   15.20
   0   4   9   65.19   20.50
   0   4   9   44.30   28.20
   0   4  -9   13.30   23.00
   0   4   9   18.80   20.70
   0   4   9   94.59   23.30
  -1  -4  -9  103.59   41.00
  -1  -4  -9  117.89   22.20
   1  -4   9   74.39   13.40
   1  -4   9  106.39   24.10
  -1  -4  -9   94.29   17.10
   1  -4   9   81.99   11.80
  -1   4  -9   92.29   18.60
   1   4   9  148.39   25.50
  -1   4  -9   92.29   16.20
   1   4   9   82.99   31.10
  -1   4  -9   85.29   24.50
   1   4   9   76.59   21.70
   1   4   9   93.59   22.20
  -2  -4  -9  144.19   23.40
   2  -4   9  156.98   21.20
   2  -4   9  185.38   26.20
  -2  -4  -9  244.28   48.20
   2  -4   9  163.48   17.30
   2  -4   9  152.98   54.99
  -2  -4  -9  188.78   27.90
   2   4   9  205.38   33.70
  -2   4  -9  152.08   23.10
  -2   4  -9  194.68   27.10
   2   4   9  166.08   36.10
   2   4   9  142.99   23.30
   2   4   9  215.78   33.70
  -2   4  -9  174.28   23.30
   3  -4   9  240.48   19.70
   3  -4   9  302.57   54.89
   3  -4   9  230.18   21.30
   3  -4   9  215.88   34.10
  -3  -4  -9  266.17   45.10
  -3  -4  -9  228.58   26.40
   3   4   9  258.97   34.70
  -3   4  -9  252.67   36.20
   3   4   9  220.58   34.90
  -3   4  -9  260.27   31.20
  -3   4  -9  216.78   30.30
   3   4   9  203.28   38.90
   4  -4   9   67.79   11.70
  -4  -4  -9   51.19   27.10
   4  -4   9   59.09   11.30
   4  -4   9   34.00   42.50
  -4  -4  -9   63.19   16.50
   4  -4   9   65.19   18.40
   4  -4   9   76.59   18.80
   4   4   9   85.29   20.50
  -4   4  -9   64.59   18.20
   4   4   9   37.90   19.10
  -4   4  -9   39.50   17.40
   5  -4   9  111.99   25.90
   5  -4   9  148.79   28.00
  -5  -4  -9  114.19   18.50
   5  -4   9  114.49   15.90
   5  -4   9  126.49   16.00
  -5  -4  -9  141.69   30.70
   5  -4   9  150.28   27.00
   5   4   9  255.47   65.09
   5   4   9  137.49   23.10
   5   4   9  104.89   20.00
  -5   4  -9  144.49   21.60
  -5   4  -9   91.29   19.50
   6  -4   9   39.10   11.00
   6  -4   9   34.30   21.50
  -6  -4  -9   47.50   16.30
   6  -4   9   76.69   18.30
   6  -4   9   47.00   15.30
   6   4   9   61.79   18.10
   6   4   9   41.80   15.50
  -6   4  -9   51.39   16.60
  -6   4  -9   36.20   16.00
   7  -4   9   89.79   14.70
  -7  -4  -9   75.99   17.30
   7  -4   9   76.59   20.00
   7  -4   9   78.29   44.70
   7  -4   9  131.39   24.60
  -7   4  -9  118.29   18.40
  -7   4  -9   74.39   14.20
   7   4   9   85.89   16.90
   7   4   9   89.99   16.40
   8  -4   9   50.79   16.30
   8  -4   9   18.50   16.40
   8  -4   9   51.39   28.90
   8  -4   9   12.60   15.30
   8   4   9   39.50   12.80
  -8   4  -9   48.10   13.30
   8   4   9   66.69   14.30
  -8   4  -9   67.29   18.70
   9  -4   9    8.60   19.80
   9   4   9   43.20   11.90
   9   4   9   15.30   11.50
  -9   4  -9   28.10   12.00
   8  -5  -9    4.40   15.70
   8  -5  -9   43.20   14.90
   8   5  -9    4.50    7.30
  -8   5   9   11.10    9.10
  -8   5   9    2.70   14.50
   7  -5  -9   56.79   22.60
   7  -5  -9   55.89   13.40
   7  -5  -9   39.90   11.30
  -7   5   9   53.49   18.40
   6  -5  -9   18.20   13.20
   6  -5  -9   27.50   11.20
   6  -5  -9    9.30   17.10
   6  -5  -9   15.40    8.70
  -6   5   9   12.80   15.10
   6   5  -9    0.50    7.40
   5  -5  -9  213.48   17.10
   5  -5  -9  262.07   23.10
   5  -5  -9  278.17   35.10
  -5   5   9  261.57   31.70
   5   5  -9  279.47   18.40
   4  -5  -9   52.59   14.50
  -4  -5   9   86.29   14.20
   4  -5  -9   75.09   20.90
   4  -5  -9   85.69   15.40
   4  -5  -9   72.99   10.30
  -4   5   9   57.09   25.70
   4   5  -9   76.89   11.00
  -4   5   9   79.69   19.80
   3  -5  -9  170.78   19.10
   3  -5  -9  217.98   21.50
  -3  -5   9  158.48   19.60
   3  -5  -9  207.78   24.90
   3  -5  -9  255.87   43.80
  -3  -5   9  215.88   28.40
  -3   5   9  163.58   21.00
   3   5  -9  153.48   17.40
  -3   5   9  162.98   24.00
  -3   5   9  138.09   25.30
  -3   5   9  134.59   28.20
   2  -5  -9  190.78   21.10
   2  -5  -9  171.28   26.80
  -2  -5   9  166.88   18.20
   2  -5  -9  194.38   21.70
  -2  -5   9  178.88   23.20
   2  -5  -9  194.38   31.50
  -2   5   9  154.88   21.90
  -2   5   9  207.98   26.40
  -2   5   9  200.98   31.00
   2   5  -9  194.98   18.50
  -2   5   9  228.18   27.60
   1  -5  -9   79.69   31.20
   1  -5  -9   92.69   17.50
  -1  -5   9   78.69   12.20
  -1  -5   9   88.89   15.00
   1  -5  -9   97.19   14.80
   1  -5  -9   91.89   14.80
  -1  -5   9  106.49   21.90
   1   5  -9  120.39   17.20
  -1   5   9  124.29   21.50
  -1   5   9  105.59   26.80
  -1   5   9  102.79   27.60
   1   5  -9  104.09   17.10
  -1   5   9   68.19   15.90
   0  -5   9   -6.20   20.70
   0  -5  -9   23.60   11.50
   0  -5   9   20.00    8.60
   0  -5   9   17.80   16.60
   0  -5  -9   36.30   16.50
   0  -5  -9    9.40   12.70
   0  -5   9   24.90    9.60
   0   5  -9   25.40   10.50
   0   5  -9   23.20   15.30
   0   5  -9   -0.70   27.40
   0   5   9   35.60   16.90
   0   5   9   32.30   25.20
  -1  -5  -9   64.39   43.20
   1  -5   9  110.29   21.30
   1  -5   9  173.68   28.10
  -1  -5  -9  164.28   24.00
   1  -5   9  133.79   16.40
   1  -5   9  131.89   15.80
  -1  -5  -9  120.49   20.60
  -1   5  -9  100.69   24.70
   1   5   9  166.48   30.80
  -1   5  -9  137.79   19.00
  -1   5  -9  143.39   18.40
   1   5   9  198.28   29.20
   2  -5   9  149.88   26.00
  -2  -5  -9   98.99   15.10
   2  -5   9  143.49   19.80
  -2  -5  -9  102.69   16.50
   2  -5   9  108.19   15.60
   2  -5   9   98.29   14.80
  -2   5  -9  110.49   16.70
   2   5   9  130.19   28.40
  -2   5  -9  126.29   19.50
   2   5   9  127.29   19.80
  -2   5  -9  131.19   24.70
  -2   5  -9  149.79   22.50
   2   5   9  104.79   18.10
   3  -5   9  175.08   15.00
  -3  -5  -9  145.39   21.80
   3  -5   9  158.18   24.50
   3  -5   9  178.58   25.90
  -3  -5  -9  126.69   18.80
   3  -5   9  185.58   25.60
   3   5   9  151.28   25.80
  -3   5  -9  180.08   23.40
   3   5   9  163.38   21.20
  -3   5  -9  209.78   24.60
  -3   5  -9  176.98   25.00
   4  -5   9   30.70   12.70
  -4  -5  -9    0.50   16.80
  -4  -5  -9   -4.00   13.30
   4  -5   9   11.90   11.80
   4  -5   9   -2.70    6.50
   4  -5   9   24.80   13.30
  -4   5  -9   36.70   29.70
  -4   5  -9   21.00   13.00
   4   5   9   27.80   17.00
   4   5   9   10.90   12.90
  -5  -5  -9   67.69   19.80
   5  -5   9   38.90   10.80
  -5  -5  -9   59.59   16.70
   5  -5   9   69.79   13.30
   5  -5   9   41.40   10.00
   5   5   9   48.40   16.00
   5   5   9   77.19   14.90
  -5   5  -9   84.89   13.90
  -5   5  -9   81.29   19.50
   6  -5   9   20.50   12.30
   6  -5   9   15.40   10.00
   6   5   9  -15.20   14.90
  -6   5  -9   22.00   11.40
  -6   5  -9   30.50   11.80
   6   5   9    5.40   12.30
 -13   0  10    1.20   13.20
 -13   0  10   13.70   13.20
  13   0 -10   -3.50   17.10
  13   0 -10    6.50   12.10
 -13   0  10   -0.30   12.20
  12   0 -10  478.35   42.60
 -12   0  10  405.06   32.10
  12   0 -10  458.75   33.30
 -12   0  10  386.46   35.30
  11   0 -10  102.49   25.00
  11   0 -10   38.70   29.20
 -11   0  10   77.79   18.10
 -11   0  10   78.29   22.00
  11   0 -10   65.19   17.50
  10   0 -10  128.99   17.20
 -10   0  10   94.29   23.00
  10   0 -10  146.59   25.70
  10   0 -10  100.69   27.50
 -10   0  10   86.99   24.70
  10   0 -10   79.89   24.30
 -10   0  10  128.19   19.20
   9   0 -10   68.99   22.80
  -9   0  10  100.29   23.60
  -9   0  10   61.99   22.00
   9   0 -10   44.30   26.80
   9   0 -10   51.99   24.70
  -9   0  10   76.89   16.00
   9   0 -10   73.09   14.30
  -8   0  10  697.33   50.19
   8   0 -10  738.93   52.09
  -8   0  10  681.83   52.09
  -8   0  10  682.33   39.30
   8   0 -10  743.83   49.99
   8   0 -10  687.73   38.20
  -8   0  10  649.83   65.99
   8   0 -10  623.84   55.09
   7   0 -10  167.18   20.50
   7   0 -10  203.58   30.80
   7   0 -10  154.88   25.20
  -7   0  10  134.39   28.10
  -7   0  10  178.78   26.30
  -7   0  10  150.58   24.10
   7   0 -10  147.99   27.50
  -7   0  10  161.58   21.90
   6   0 -10  227.88   31.80
  -6   0  10  263.07   35.70
  -6   0  10  226.18   37.60
   6   0 -10  193.78   28.50
  -6   0  10  272.07   21.90
   6   0 -10  239.78   33.20
  -6   0  10  269.97   30.10
   6   0 -10  220.58   24.30
   5   0 -10 1578.94   81.39
  -5   0  10 1720.83   77.09
   5   0 -10 1674.53   82.59
   5   0 -10 1717.53   84.79
  -5   0  10 1733.53   71.49
   5   0 -10 1714.93   72.19
  -5   0  10 1722.63   78.89
   5   0 -10 1617.44   79.59
  -5   0  10 1574.94   80.69
   4   0 -10  299.67   40.00
  -4   0  10  317.47   20.90
   4   0 -10  399.36   61.69
  -4   0  10  235.88   32.80
   4   0 -10  264.37   15.20
  -3   0  10  198.78   17.30
  -3   0  10  153.28   23.80
   3   0 -10  213.78   46.00
   3   0 -10  159.18   24.60
   2   0 -10  323.47   18.30
  -2   0  10  283.97   20.70
  -2   0  10  385.56   27.00
   2   0 -10  350.46   46.90
  -1   0  10 2435.76   95.39
   1   0 -10 2479.85  123.39
   1   0 -10 2314.87   94.19
  -1   0  10 2282.77   98.79
   0   0 -10  337.67   78.09
   0   0  10  301.37   29.00
   0   0 -10  239.18   26.30
   0   0  10  277.37   22.30
  -1   0 -10    6.90    6.50
   1   0  10   -7.00   13.70
  -1   0 -10   10.30   12.60
   1   0  10  -11.60   12.10
  -1   0 -10  -72.79   35.10
  -2   0 -10   15.60    7.40
  -2   0 -10   28.80   42.30
   2   0  10   33.10   12.60
  -2   0 -10   11.80   12.00
  -3   0 -10  128.89   23.20
  -3   0 -10   94.59   14.90
   3   0  10   80.39   30.30
  -3   0 -10  131.19   21.60
   3   0  10  125.19   19.80
   3   0  10  127.39   32.80
   3   0  10  133.49   27.00
   3   0  10  140.69   83.89
  -3   0 -10   95.39   53.39
   4   0  10  402.86   44.90
   4   0  10  480.35   60.29
  -4   0 -10  523.85   76.29
   4   0  10  368.26   46.50
  -4   0 -10  425.36   25.80
   4   0  10  435.26   27.00
  -4   0 -10  388.26   39.50
   4   0  10  339.77   57.89
  -4   0 -10  423.36   30.10
   4   0  10  439.86   48.40
  -5   0 -10    0.80   11.80
   5   0  10   10.30   28.80
   5   0  10   13.30   23.50
   5   0  10   -7.20   25.00
  -5   0 -10   19.60   14.00
  -5   0 -10   33.40   19.10
   6   0  10   33.60   39.30
   6   0  10   32.30   25.80
  -6   0 -10   62.69   20.80
   6   0  10   41.70   29.00
  -6   0 -10   57.19   17.30
   6   0  10   55.59   26.00
  -6   0 -10   42.10   16.20
   7   0  10  281.57   39.80
  -7   0 -10  252.67   27.40
  -7   0 -10  228.78   34.50
   7   0  10  256.97   44.70
  -7   0 -10  178.48   28.60
  -7   0 -10  222.48   39.70
   7   0  10  159.88   35.70
   7   0  10  250.67   46.20
   8   0  10    8.50   27.60
  -8   0 -10   53.99   31.20
   8   0  10   19.60   25.10
  -8   0 -10    7.00   15.70
   8   0  10    7.90   21.80
  -8   0 -10    7.60   16.50
   8   0  10   18.60   28.30
  -9   0 -10  240.98   30.50
   9   0  10  263.87   35.00
  -9   0 -10  262.57   28.80
   9   0  10  242.38   35.40
  10   0  10   90.79   33.40
 -10   0 -10   76.79   15.50
  10   0  10   67.09   18.80
 -10   0 -10   67.89   15.20
  10   0  10   95.99   23.80
  10   0  10   46.90   21.60
  11   0  10   12.30   15.80
 -11   0 -10   12.80   10.80
 -11   0 -10   23.00   14.10
  11   0  10   42.80   25.00
  11   0  10   23.40   28.60
 -11   0 -10   22.50   10.30
 -12   0 -10   49.10   11.10
 -12   0 -10   31.60    8.60
  12   0  10   31.30   15.20
  13  -1 -10   72.59   23.80
 -13  -1  10  103.79   20.40
 -13  -1  10  111.89   15.00
 -13  -1  10  124.99   18.20
  13  -1 -10   99.79   14.60
  13  -1 -10   97.69   18.50
 -13   1  10  140.59   21.00
 -13   1  10  175.38   21.30
 -13   1  10  137.99   18.90
  13   1 -10  114.89   20.60
 -12  -1  10   43.80   18.80
  12  -1 -10   35.60   14.80
  12  -1 -10   60.59   20.30
  12  -1 -10   51.19   19.90
  12  -1 -10   45.80   20.00
 -12  -1  10   54.39   15.50
 -12   1  10   59.29   16.10
  12   1 -10   44.80   22.70
 -12   1  10   42.10   15.80
  12   1 -10   72.29   17.20
  12   1 -10   58.99   12.60
 -12   1  10   53.19   14.40
 -11  -1  10  152.88   24.30
  11  -1 -10  117.49   25.40
  11  -1 -10  239.18   39.10
  11  -1 -10  122.69   22.60
 -11  -1  10  204.78   28.30
 -11   1  10  147.89   21.50
  11   1 -10  167.78   20.80
  11   1 -10  130.19   29.20
 -11   1  10  171.88   27.10
  11   1 -10  132.59   21.90
 -10  -1  10  278.27   44.80
 -10  -1  10  180.58   45.40
  10  -1 -10  289.87   36.70
 -10  -1  10  214.38   28.50
  10  -1 -10  242.58   40.70
  10  -1 -10  262.87   44.40
 -10   1  10  260.47   37.90
 -10   1  10  278.87   35.50
 -10   1  10  281.67   59.09
  10   1 -10  215.08   28.30
  10   1 -10  257.67   36.30
  10   1 -10  190.48   23.10
 -10   1  10  297.77   30.20
  10   1 -10  173.98   30.10
   9  -1 -10  266.67   24.70
   9  -1 -10  225.68   28.10
   9  -1 -10  222.48   36.90
  -9  -1  10  224.38   36.40
   9  -1 -10  312.17   48.20
   9  -1 -10  213.98   28.50
  -9   1  10  274.67   43.20
   9   1 -10  253.87   35.10
  -9   1  10  241.28   31.10
   9   1 -10  301.77   38.60
   9   1 -10  274.97   37.50
  -9   1  10  241.48   37.50
   9   1 -10  270.67   42.60
   9   1 -10  237.38   25.00
  -9   1  10  248.48   35.80
   8  -1 -10  203.98   30.30
   8  -1 -10  209.48   23.50
  -8  -1  10  133.39   32.20
  -8  -1  10  207.88   23.90
  -8  -1  10  202.18   34.00
   8  -1 -10  220.18   30.40
   8  -1 -10  227.48   34.20
   8  -1 -10  190.28   26.90
  -8   1  10  244.68   39.00
   8   1 -10  194.88   26.70
   8   1 -10  153.18   29.60
   8   1 -10  246.68   23.60
  -8   1  10  214.08   35.80
  -8   1  10  197.68   26.00
  -8   1  10  232.08   33.70
   8   1 -10  222.48   32.20
   7  -1 -10   93.09   27.20
   7  -1 -10  115.89   17.20
   7  -1 -10   46.50   41.30
  -7  -1  10  144.19   29.70
   7  -1 -10  130.29   24.60
   7  -1 -10  133.19   30.30
  -7  -1  10  135.79   30.10
   7   1 -10  142.99   28.70
  -7   1  10  167.58   26.70
   7   1 -10  137.99   19.10
   7   1 -10  151.68   31.00
  -7   1  10  133.79   24.80
   7   1 -10  142.29   38.90
  -7   1  10  171.48   22.90
   6  -1 -10  523.05   45.90
   6  -1 -10  515.25   49.40
  -6  -1  10  489.65   49.10
  -6  -1  10  447.36   71.59
   6  -1 -10  551.84   43.40
  -6  -1  10  465.25   29.50
   6  -1 -10  498.75   32.80
   6  -1 -10  493.65   23.80
   6  -1 -10  544.25   83.89
   6  -1 -10  497.15   49.50
  -6   1  10  494.65   39.30
   6   1 -10  494.35   43.80
   6   1 -10  462.35   30.40
  -6   1  10  524.65   31.10
   6   1 -10  516.75   42.50
  -6   1  10  517.65   39.30
  -6   1  10  466.15   42.30
   6   1 -10  450.15   56.39
   6   1 -10  492.65   46.20
   5  -1 -10  232.68   30.30
  -5  -1  10  287.47   43.40
   5  -1 -10  206.98   14.50
  -5  -1  10  123.49   32.70
   5  -1 -10  114.79   45.60
   5  -1 -10  193.58   27.20
   5  -1 -10   88.99   67.59
  -5  -1  10  197.18   30.70
   5  -1 -10  149.59   29.00
  -5  -1  10  177.08   19.30
   5  -1 -10  190.58   24.40
   5  -1 -10  194.38   31.10
  -5   1  10  201.78   34.50
  -5   1  10  221.78   30.70
  -5   1  10  142.29   65.49
   5   1 -10  230.38   22.30
   5   1 -10  198.98   28.30
  -5   1  10  147.59   53.69
  -5   1  10  192.38   27.30
   5   1 -10  176.98   40.80
   5   1 -10  220.08   27.80
  -5   1  10  190.68   22.10
   5   1 -10  175.88   26.10
   4  -1 -10  357.46   43.20
   4  -1 -10  379.46   68.69
   4  -1 -10  343.97   19.20
  -4  -1  10  359.66   23.20
   4  -1 -10  341.47   45.30
   4  -1 -10  342.47   31.60
   4  -1 -10  343.97   58.09
  -4  -1  10  332.97   43.10
   4   1 -10  256.47   39.10
  -4   1  10  359.16   28.00
  -4   1  10  370.96   37.30
   4   1 -10  374.36   30.60
   4   1 -10  366.16   39.70
   4   1 -10  389.56   35.60
  -4   1  10  287.27   38.00
  -3  -1  10  428.16   39.40
  -3  -1  10  430.76   23.60
   3  -1 -10  400.96   30.70
   3  -1 -10  408.06   55.79
   3  -1 -10  392.46   44.40
   3  -1 -10  403.86   21.30
  -3   1  10  351.76   40.10
  -3   1  10  408.06   28.80
   3   1 -10  388.36   50.79
  -3   1  10  427.46   28.60
  -2  -1  10    0.40    8.10
   2  -1 -10   48.00   41.50
   2  -1 -10   23.30    7.20
   2  -1 -10   27.70   12.40
  -2  -1  10   14.30   17.80
   2   1 -10    1.60   47.10
   2   1 -10   27.40   23.40
  -2   1  10   12.10   11.10
  -2   1  10   27.00   14.50
  -1  -1  10  325.37   31.10
   1  -1 -10  398.86   60.29
   1  -1 -10  292.37   17.50
   1  -1 -10  258.67   23.80
  -1  -1  10  267.97   19.30
   1   1 -10  289.57   16.10
  -1   1  10  310.57   31.20
   1   1 -10  253.97   45.10
   1   1 -10  335.27   56.79
  -1   1  10  248.38   23.60
   0  -1 -10  491.75   33.50
   0  -1  10  594.24   29.30
   0  -1 -10  649.04   67.69
   0  -1 -10  585.64   32.80
   0   1  10  611.34   33.60
   0   1 -10  619.74   27.70
   0   1 -10  680.63   80.39
  -1  -1 -10   19.40   11.70
   1  -1  10   21.10   14.10
  -1  -1 -10   -2.20   36.80
  -1  -1 -10   19.50    8.60
   1  -1  10   29.60    9.60
  -1   1 -10   27.70    7.40
   1   1  10   29.60   11.10
  -1   1 -10   13.00   50.29
   2  -1  10  265.17   33.20
   2  -1  10  230.68   26.70
  -2  -1 -10  155.08   47.40
   2  -1  10  224.88   39.50
   2  -1  10  192.78   19.30
   2  -1  10  224.48   23.60
  -2  -1 -10  209.18   30.20
  -2  -1 -10  194.08   17.30
  -2   1 -10  213.88   30.90
  -2   1 -10  200.38   17.10
  -2   1 -10  230.58   58.59
   2   1  10  289.67   52.49
  -2   1 -10  222.68   33.00
  -2   1 -10  261.67   29.50
   2   1  10  213.48   30.20
  -2   1 -10  181.38   29.30
   2   1  10  225.18   43.20
  -3  -1 -10  466.45   27.10
   3  -1  10  451.85   41.50
   3  -1  10  397.96   57.39
   3  -1  10  416.86   67.39
   3  -1  10  470.55   31.20
  -3  -1 -10  511.55   30.50
  -3  -1 -10  560.84   47.10
  -3  -1 -10  487.45   45.00
   3  -1  10  524.55   39.40
  -3  -1 -10  406.36   61.89
   3  -1  10  500.25   29.50
   3  -1  10  516.35   34.30
  -3   1 -10  493.65   41.00
   3   1  10  509.75   46.00
   3   1  10  352.46   52.29
   3   1  10  502.15   69.49
  -3   1 -10  403.46   46.40
  -3   1 -10  494.95   35.20
   3   1  10  343.27   47.80
  -3   1 -10  475.75   39.10
  -3   1 -10  499.05   27.00
   3   1  10  475.35   49.60
  -3   1 -10  483.75   77.89
   4  -1  10   59.59   19.70
   4  -1  10   58.49   30.20
   4  -1  10    8.30   14.60
  -4  -1 -10    6.70   24.90
  -4  -1 -10   45.50   13.40
   4  -1  10   14.60   21.40
   4  -1  10    9.10   30.80
  -4  -1 -10   28.80   12.20
   4  -1  10   26.90   16.50
  -4   1 -10    6.10   26.50
   4   1  10   50.39   27.30
  -4   1 -10    1.10   18.80
   4   1  10   16.40   31.40
   4   1  10   11.00   27.90
  -4   1 -10   13.00   10.70
   4   1  10   14.90   44.10
  -4   1 -10   58.69   16.10
   4   1  10   29.20   43.70
   4   1  10   35.90   24.80
  -5  -1 -10   43.80   15.60
  -5  -1 -10   52.19   15.20
   5  -1  10   51.09   16.00
   5  -1  10   49.80   21.60
   5  -1  10   66.19   28.60
   5  -1  10   70.29   22.00
  -5  -1 -10   34.20   24.00
   5  -1  10   43.60   28.20
  -5   1 -10   57.99   16.10
   5   1  10   74.49   36.90
  -5   1 -10   34.00   19.20
   5   1  10   48.40   27.30
  -5   1 -10   58.79   24.10
   5   1  10   44.10   23.70
  -5   1 -10   37.40   13.30
   5   1  10   99.49   32.20
   5   1  10   41.20   30.10
  -6  -1 -10  336.57   41.30
   6  -1  10  254.67   38.70
  -6  -1 -10  288.17   28.90
   6  -1  10  297.97   33.40
   6  -1  10  311.37   46.00
   6  -1  10  272.87   37.50
   6  -1  10  348.17   46.90
  -6  -1 -10  294.57   38.20
   6   1  10  258.77   32.90
  -6   1 -10  327.17   43.10
   6   1  10  329.47   39.00
  -6   1 -10  306.17   30.60
   6   1  10  244.18   39.60
   6   1  10  351.46   56.19
  -6   1 -10  306.87   30.50
  -6   1 -10  301.87   34.70
  -7  -1 -10  125.19   23.60
   7  -1  10  172.48   30.30
   7  -1  10  170.18   29.20
  -7  -1 -10  152.18   25.80
   7  -1  10  129.89   46.60
   7  -1  10  171.88   29.10
   7   1  10  113.39   27.70
   7   1  10  110.09   29.80
   7   1  10  156.88   30.60
  -7   1 -10  165.68   22.40
  -7   1 -10  170.38   24.30
  -7   1 -10  176.08   28.90
   7   1  10  129.29   23.60
   7   1  10  153.68   34.70
  -7   1 -10  149.49   26.30
  -8  -1 -10   72.49   16.80
   8  -1  10   36.60   22.80
   8  -1  10   99.69   27.20
   8  -1  10   63.89   25.50
  -8  -1 -10   66.69   20.80
  -8   1 -10   89.59   30.50
  -8   1 -10   82.89   19.30
   8   1  10   44.20   30.50
   8   1  10   85.79   20.70
  -8   1 -10   96.49   22.70
   8   1  10   59.99   24.80
  -8   1 -10   87.69   19.40
   8   1  10   68.89   24.60
   8   1  10   50.99   26.80
  -9  -1 -10  117.49   20.90
  -9  -1 -10   61.19   16.40
   9  -1  10   55.09   25.40
   9  -1  10  101.49   30.20
   9   1  10   96.09   32.20
  -9   1 -10   59.69   18.80
   9   1  10   44.70   22.50
   9   1  10   76.29   24.30
   9   1  10   52.39   19.70
  -9   1 -10  102.69   22.60
  10  -1  10   57.69   20.70
  10  -1  10   82.39   30.00
 -10  -1 -10   81.69   15.20
  10  -1  10   83.69   19.30
  10  -1  10  119.89   29.90
 -10  -1 -10   79.39   17.50
 -10   1 -10  104.69   20.00
 -10   1 -10   80.89   15.40
  10   1  10  131.69   24.10
  10   1  10   63.59   22.10
 -10   1 -10   84.59   19.60
  10   1  10   92.89   21.20
 -10   1 -10  109.69   16.80
  11  -1  10    1.70   14.70
 -11  -1 -10   17.60   12.70
 -11  -1 -10    2.60   10.30
 -11  -1 -10   16.00   12.00
  11  -1  10   26.20   15.50
  11   1  10  -64.79   37.30
 -11   1 -10  -21.80   48.20
  11   1  10   26.20   17.20
 -11   1 -10   12.50   11.20
 -11   1 -10   17.30   18.30
  11   1  10   34.20   18.10
 -11   1 -10   -2.80    8.90
  12  -1  10   58.69   15.10
 -12  -1 -10   69.09   11.30
 -12   1 -10   72.29    9.30
  13  -2 -10   -7.60   28.00
  13  -2 -10   16.50   12.00
  13  -2 -10   12.90   14.10
 -13   2  10   -1.40   11.80
  12  -2 -10   10.70   14.00
 -12  -2  10   47.90   17.80
 -12  -2  10   43.50   26.30
  12  -2 -10    0.80   17.50
  12  -2 -10   16.30   17.50
  12  -2 -10   45.90   13.90
 -12   2  10    9.20   13.80
  12   2 -10   60.39   23.10
 -12   2  10   29.40   13.40
  12   2 -10   25.80   10.60
  11  -2 -10   22.70   21.20
  11  -2 -10   14.40   21.90
  11  -2 -10   15.90   15.20
 -11   2  10    8.70   14.10
  11   2 -10   -3.40   24.00
 -11   2  10    2.10   27.40
 -11   2  10    5.10   13.90
  11   2 -10    5.80    9.90
 -10  -2  10  209.28   32.40
  10  -2 -10  163.18   23.30
  10  -2 -10  156.98   27.70
  10  -2 -10  180.08   45.30
 -10   2  10  108.49   27.10
  10   2 -10  209.28   21.70
 -10   2  10  185.58   29.00
 -10   2  10  186.38   25.00
  10   2 -10  205.78   30.20
   9  -2 -10  312.97   47.70
   9  -2 -10  399.96   43.60
   9  -2 -10  328.27   35.30
  -9  -2  10  328.37   33.30
  -9   2  10  362.46   34.50
   9   2 -10  383.16   26.70
   9   2 -10  343.57   38.00
  -9   2  10  277.77   53.59
  -9   2  10  360.96   39.10
  -9   2  10  343.87   35.40
   9   2 -10  399.96   50.89
  -9   2  10  307.97   42.20
   8  -2 -10  357.96   42.60
   8  -2 -10  321.37   35.10
   8  -2 -10  353.76   52.49
   8  -2 -10  451.25   65.29
  -8   2  10  297.47   43.60
  -8   2  10  498.95   73.39
  -8   2  10  360.56   35.70
  -8   2  10  295.87   41.60
   8   2 -10  360.96   39.40
   8   2 -10  345.37   27.70
  -8   2  10  249.78   35.20
   7  -2 -10  179.98   21.40
   7  -2 -10  137.89   20.80
   7  -2 -10  176.58   28.30
   7  -2 -10  149.99   37.60
   7  -2 -10  172.08   33.90
  -7  -2  10  143.49   24.10
  -7   2  10  220.58   32.50
  -7   2  10  136.89   27.10
   7   2 -10  137.19   20.50
  -7   2  10  165.18   24.00
  -7   2  10  163.68   41.00
   7   2 -10  170.48   28.60
   6  -2 -10  -56.49   30.70
   6  -2 -10   11.20   26.60
   6  -2 -10   41.70   18.80
   6  -2 -10   38.10   35.70
  -6  -2  10   19.50   13.10
   6  -2 -10   22.90   10.20
   6  -2 -10   21.70   19.40
  -6   2  10   43.20   24.40
   6   2 -10   28.30   25.00
  -6   2  10   11.60   57.29
  -6   2  10   38.00   19.60
  -6   2  10   24.80   19.10
   6   2 -10    9.20   18.60
  -6   2  10   14.50   19.40
   6   2 -10   21.10   12.60
   5  -2 -10  508.65   37.10
  -5  -2  10  492.95   30.30
   5  -2 -10  541.55   65.29
   5  -2 -10  489.85   48.50
   5  -2 -10  493.75   34.50
   5  -2 -10  508.35   40.10
   5  -2 -10  469.85   61.09
   5   2 -10  526.65   42.10
  -5   2  10  514.45   47.60
   5   2 -10  548.25   31.90
  -5   2  10  485.75   40.10
   5   2 -10  503.25   49.60
   5   2 -10  502.45   43.20
  -5   2  10  502.65   37.10
  -5   2  10  545.25   44.90
  -5   2  10  522.25   64.49
  -5   2  10  530.05   74.99
   4  -2 -10  191.38   37.30
   4  -2 -10  174.58   20.10
   4  -2 -10  108.79   19.20
   4  -2 -10  151.28   28.30
   4  -2 -10  146.19   39.10
  -4  -2  10  110.99   17.50
   4   2 -10  117.29   26.10
  -4   2  10  118.89   18.60
  -4   2  10   56.79   31.80
   4   2 -10  132.39   19.90
  -4   2  10  119.69   25.40
  -4   2  10   82.79   26.70
   4   2 -10  152.68   26.40
  -4   2  10   97.49   30.90
  -4   2  10  141.29   39.00
   4   2 -10  170.08   24.90
   3  -2 -10  132.29   20.70
   3  -2 -10  126.29   28.70
   3  -2 -10  -12.40   62.49
   3  -2 -10  112.49   21.20
  -3  -2  10   82.19   34.40
  -3  -2  10  105.09   16.60
   3  -2 -10  128.69   46.90
   3  -2 -10  132.89   35.20
   3   2 -10  140.69   18.10
  -3   2  10  113.69   38.90
  -3   2  10  113.79   29.00
  -3   2  10   70.19   33.70
  -3   2  10  119.69   30.60
   3   2 -10  116.59   25.10
  -3   2  10   92.99   16.00
   3   2 -10  110.79   18.70
   3   2 -10   55.09   25.50
   3   2 -10   73.59   55.69
  -3   2  10  174.78   34.50
   3   2 -10  128.69   23.20
  -2  -2  10  159.78   49.40
   2  -2 -10  149.69   28.90
   2  -2 -10  193.58   34.70
   2  -2 -10  199.98   57.29
  -2  -2  10  150.18   15.80
  -2  -2  10  129.99   26.40
  -2  -2  10  183.78   32.40
   2  -2 -10  157.98   22.20
   2  -2 -10  164.88   19.90
  -2   2  10  142.29   23.60
  -2   2  10  199.98   30.90
   2   2 -10  159.98   26.10
  -2   2  10  117.29   30.60
   2   2 -10  128.99   23.70
  -2   2  10   88.79   49.10
   2   2 -10  172.68   50.09
  -2   2  10  135.99   17.40
  -2   2  10  176.58   44.10
   2   2 -10  129.49   25.20
   2   2 -10  203.58   25.30
   2   2 -10  147.29   27.60
  -2   2  10  104.79   35.50
  -1  -2  10   17.60   17.60
   1  -2 -10   -2.20   11.60
  -1  -2  10    0.40   40.30
  -1  -2  10   51.29   25.30
   1  -2 -10    2.20   19.80
  -1  -2  10   11.90    8.10
  -1  -2  10   -5.60   23.00
   1  -2 -10  -52.19   25.90
   1  -2 -10  -36.00   46.50
   1   2 -10   -9.20   20.30
   1   2 -10    9.70   21.10
  -1   2  10   14.60   39.30
  -1   2  10   10.50   23.50
  -1   2  10   -5.40   44.60
  -1   2  10    2.90   19.80
  -1   2  10   35.10   30.90
   1   2 -10   33.10   18.60
   1   2 -10  -23.10   40.80
  -1   2  10    1.20   12.40
  -1   2  10  -58.19   33.00
   1   2 -10  -40.20   25.50
   0  -2 -10  165.98   26.40
   0  -2 -10  272.77   58.09
   0  -2 -10  159.08   18.30
   0  -2 -10  184.38   21.70
   0  -2  10  180.08   27.80
   0  -2  10  242.88   33.10
   0  -2  10  157.88   26.20
   0  -2  10  189.18   15.50
   0  -2  10  202.28   28.20
   0   2 -10  168.38   24.50
   0   2  10  156.78   40.20
   0   2  10  241.18   36.30
   0   2 -10  265.87   39.70
   0   2 -10  192.78   32.20
   0   2  10  193.28   37.90
   0   2  10  194.18   37.40
   0   2  10  209.48   27.00
   1  -2  10  244.88   35.10
  -1  -2 -10  248.28   21.60
  -1  -2 -10  268.97   24.00
  -1  -2 -10  335.17   62.09
   1  -2  10  229.88   38.60
   1  -2  10  224.78   39.00
   1  -2  10  250.17   17.20
  -1  -2 -10  258.77   44.30
   1  -2  10  254.27   25.30
  -1   2 -10  216.38   16.70
   1   2  10  249.18   36.80
   1   2  10  229.98   36.50
   1   2  10  246.58   36.10
   1   2  10  201.28   40.20
   1   2  10  188.18   36.40
  -1   2 -10  184.38   25.60
  -1   2 -10  269.17   39.90
  -1   2 -10  253.97   29.10
  -2  -2 -10  515.65   33.10
   2  -2  10  567.44   32.00
  -2  -2 -10  562.74   32.00
   2  -2  10  488.45   43.30
  -2  -2 -10  578.24   53.39
   2  -2  10  529.15   28.10
   2  -2  10  559.94   42.00
   2  -2  10  573.14   43.80
  -2   2 -10  582.64   29.10
   2   2  10  512.85   44.60
   2   2  10  556.94   42.90
   2   2  10  414.46   60.69
  -2   2 -10  521.75   45.70
   2   2  10  425.06   57.89
  -2   2 -10  351.16  180.08
  -2   2 -10  573.24   42.60
   2   2  10  476.45   60.49
  -2   2 -10  528.75   45.10
   3  -2  10 1472.45   72.29
   3  -2  10 1529.15   72.69
   3  -2  10 1421.16   62.69
  -3  -2 -10 1510.15   66.19
   3  -2  10 1455.55   99.29
  -3  -2 -10 1391.16   79.39
   3  -2  10 1472.95   61.29
  -3  -2 -10 1421.06   65.09
   3  -2  10 1588.24   73.69
   3   2  10 1347.17   71.39
   3   2  10 1416.66   87.19
   3   2  10 1446.86   85.59
   3   2  10 1463.95   73.09
  -3   2 -10 1459.65   71.29
  -3   2 -10 1425.26   62.49
  -3   2 -10 1424.56   72.39
   3   2  10 1281.47   82.39
  -3   2 -10 1477.65   76.19
  -4  -2 -10  138.39   29.10
   4  -2  10  143.19   24.30
   4  -2  10  158.28   34.40
   4  -2  10  216.88   43.50
   4  -2  10  215.98   32.10
   4  -2  10  135.19   23.60
  -4  -2 -10  183.28   24.90
   4  -2  10  194.58   21.90
   4  -2  10  145.79   25.00
   4   2  10  141.09   36.10
   4   2  10  149.19   27.60
  -4   2 -10  174.68   26.10
  -4   2 -10  154.48   37.50
  -4   2 -10  147.39   33.10
   4   2  10  166.08   43.80
   4   2  10  112.69   33.50
  -4   2 -10  175.68   23.50
   4   2  10  162.18   47.40
  -5  -2 -10   19.70   14.60
   5  -2  10   23.60   27.20
   5  -2  10   44.60   12.80
   5  -2  10   46.80   20.30
   5  -2  10   56.89   33.90
   5  -2  10   39.90   20.80
  -5  -2 -10    8.40   26.40
   5  -2  10   29.60   18.70
  -5   2 -10   16.30   21.30
   5   2  10   31.30   26.20
   5   2  10   20.80   31.90
  -5   2 -10   21.10   22.10
   5   2  10   28.50   22.60
   5   2  10   -2.20   29.30
   5   2  10   23.60   21.10
  -5   2 -10   46.40   18.40
  -5   2 -10   14.20   15.30
  -6  -2 -10  117.39   25.70
  -6  -2 -10  120.29   26.80
   6  -2  10  143.69   32.30
   6  -2  10  139.09   26.80
   6  -2  10  132.89   21.30
   6  -2  10  119.69   24.50
   6  -2  10  166.98   26.30
  -6  -2 -10  162.08   25.70
  -6   2 -10  165.88   21.70
  -6   2 -10  148.59   22.70
   6   2  10  120.49   24.70
   6   2  10  127.59   30.20
   6   2  10  102.59   23.30
   6   2  10   55.09   31.40
  -6   2 -10  116.89   22.40
   6   2  10  109.99   35.60
  -6   2 -10  145.69   23.90
   7  -2  10   59.99   27.00
   7  -2  10   23.50   23.10
  -7  -2 -10   84.29   23.70
   7  -2  10   49.00   22.50
   7  -2  10   70.19   19.10
  -7  -2 -10   51.79   16.40
  -7  -2 -10   77.29   23.40
  -7   2 -10   24.90   20.10
  -7   2 -10   65.99   25.30
   7   2  10   60.29   25.70
   7   2  10   34.10   21.50
   7   2  10   73.49   21.20
  -7   2 -10   38.20   20.50
  -7   2 -10   56.69   18.50
   7   2  10   38.20   30.40
   7   2  10   10.50   27.10
   8  -2  10   24.80   29.80
   8  -2  10   48.40   22.30
  -8  -2 -10   20.70   20.70
   8  -2  10   16.90   23.30
   8  -2  10   25.90   24.10
  -8  -2 -10   -7.70   21.00
  -8  -2 -10   14.90   14.80
   8   2  10   20.00   23.80
   8   2  10   13.90   24.60
  -8   2 -10   23.80   19.20
  -8   2 -10   -6.00   18.90
   8   2  10    5.60   35.10
  -9  -2 -10  147.39   21.20
   9  -2  10   88.29   23.50
   9  -2  10   81.69   22.00
   9  -2  10  148.39   23.70
  -9  -2 -10  110.09   20.80
  -9  -2 -10  152.28   23.20
  -9   2 -10  118.99   19.10
   9   2  10  127.79   35.40
   9   2  10  189.78   29.40
  -9   2 -10  128.69   20.70
  -9   2 -10  112.39   17.80
   9   2  10  122.09   21.70
   9   2  10   92.99   25.10
 -10  -2 -10  -17.30   12.70
  10  -2  10   -9.80   14.90
  10  -2  10   14.30   15.90
 -10  -2 -10   11.40   14.20
  10  -2  10    3.10   38.90
  10   2  10    0.70   15.50
  10   2  10   11.30   14.70
 -10   2 -10    2.80   13.80
 -10   2 -10   19.90   12.90
 -11  -2 -10   42.30   13.10
  11  -2  10   35.60   14.50
 -11  -2 -10   35.90   12.40
  11  -2  10   43.80   14.50
 -11   2 -10   44.30   14.20
  11   2  10   48.20   15.90
 -11   2 -10   32.80   12.40
  11   2  10   24.30   14.90
  12  -3 -10   77.19   14.60
  12  -3 -10   37.20   10.90
 -12   3  10   29.70   12.80
  11  -3 -10    4.10   11.20
  11  -3 -10   32.40   17.90
  11  -3 -10   -3.60   19.70
 -11   3  10   81.79   46.90
 -11   3  10    0.90   12.80
  10  -3 -10  -40.00   24.00
  10  -3 -10   13.20   13.10
  10  -3 -10   22.90   22.00
 -10   3  10  -11.70   36.90
  10   3 -10  -10.00    9.00
 -10   3  10    8.40   15.60
   9  -3 -10   79.39   16.60
   9  -3 -10    2.30   24.50
  -9  -3  10   65.49   31.40
   9  -3 -10   17.70   30.30
   9  -3 -10   79.09   31.20
  -9   3  10   46.00   17.50
  -9   3  10   26.80   32.20
   8  -3 -10    7.10   34.40
   8  -3 -10   83.29   40.70
   8  -3 -10   41.50   32.70
  -8  -3  10   54.89   19.00
   8  -3 -10   49.80   16.80
  -8   3  10   66.29   20.30
   8   3 -10   55.39   12.60
   7  -3 -10  -11.80   27.40
   7  -3 -10  103.49   27.80
   7  -3 -10   32.30   17.60
  -7  -3  10   33.30   17.60
   7  -3 -10   61.49   26.70
   7  -3 -10   59.19   18.30
   7  -3 -10   -9.20   36.90
  -7   3  10    5.10   28.20
   7   3 -10   34.90   27.60
   7   3 -10   49.70   12.00
  -7   3  10   66.79   23.10
  -7   3  10   76.39   36.40
   6  -3 -10   18.50   17.80
   6  -3 -10   11.10   27.90
   6  -3 -10   30.90   41.00
   6  -3 -10    3.30   13.70
   6  -3 -10    5.20   26.80
  -6   3  10  -36.10   28.40
   6   3 -10   -4.20   21.50
  -6   3  10  -12.70   40.20
   6   3 -10   80.39   31.40
  -6   3  10   21.80   23.70
   6   3 -10   18.90   12.60
  -6   3  10   34.60   27.40
   5  -3 -10  500.15   33.60
   5  -3 -10  519.65   37.60
  -5  -3  10  497.25   31.00
   5  -3 -10  491.65   34.00
   5  -3 -10  540.75   32.80
   5  -3 -10  615.54   79.79
   5  -3 -10  477.95   57.19
   5  -3 -10  494.45   53.39
  -5   3  10  456.25   52.59
  -5   3  10  438.86   48.20
   5   3 -10  482.65   42.10
  -5   3  10  600.14   53.69
   5   3 -10  502.55   31.00
  -5   3  10  397.06   63.49
   5   3 -10  559.84   55.39
   4  -3 -10  897.01   68.69
   4  -3 -10  852.41   59.99
  -4  -3  10  858.51   40.90
   4  -3 -10  848.52   45.00
   4  -3 -10  819.82   41.80
   4  -3 -10  903.81  104.29
   4  -3 -10  791.82   49.20
   4  -3 -10  832.72   45.70
  -4   3  10  727.43   67.49
  -4   3  10  891.01   62.49
  -4   3  10  854.01   53.79
  -4   3  10  829.72   59.19
   4   3 -10 1043.70   80.29
   4   3 -10  816.22   53.69
   4   3 -10  863.81   43.30
   3  -3 -10   34.10   29.50
   3  -3 -10   35.30   29.10
  -3  -3  10   85.49   12.50
   3  -3 -10   36.50   14.70
   3  -3 -10   51.39   16.90
   3  -3 -10   80.59   14.90
   3   3 -10   33.10   25.80
  -3   3  10   59.29   22.20
   3   3 -10   67.89   16.30
   3   3 -10   66.39   14.90
  -3   3  10   38.40   34.30
  -3   3  10   33.50   25.10
   3   3 -10   64.69   20.30
   2  -3 -10   65.99   31.20
  -2  -3  10  107.59   32.30
  -2  -3  10   62.99   10.60
   2  -3 -10   26.20   14.30
  -2  -3  10   71.59   22.40
   2  -3 -10   61.59   13.40
   2  -3 -10   45.30   17.30
  -2   3  10   61.49   23.80
  -2   3  10   29.60   36.00
   2   3 -10   83.89   38.40
   2   3 -10   36.70   20.10
  -2   3  10   64.59   20.30
   2   3 -10   52.99   17.50
  -2   3  10    6.80   29.20
  -2   3  10   43.80   22.80
   2   3 -10   36.70   14.20
   1  -3 -10  319.77   31.30
  -1  -3  10  351.76   22.10
   1  -3 -10  360.36   55.79
   1  -3 -10  397.66   35.80
   1  -3 -10  353.76   26.50
   1  -3 -10  352.86   53.19
  -1   3  10  333.07   53.69
   1   3 -10  311.07   32.50
   1   3 -10  383.46   42.90
  -1   3  10  313.37   60.29
   1   3 -10  324.47   39.00
  -1   3  10  296.47   36.00
  -1   3  10  323.67   38.60
   0  -3  10  133.79   16.00
   0  -3 -10  148.29   33.90
   0  -3  10  158.58   27.50
   0  -3 -10  233.48   34.80
   0  -3 -10  139.69   21.30
   0  -3 -10  148.19   21.20
   0  -3  10  184.58   39.10
   0   3 -10  133.99   25.00
   0   3  10  148.99   37.90
   0   3  10  129.59   24.90
   0   3  10  127.59   25.00
   0   3  10  173.28   23.90
   0   3  10  173.58   37.20
   0   3 -10  126.59   20.70
  -1  -3 -10  159.98   31.90
  -1  -3 -10  105.09   26.20
   1  -3  10  104.29   14.90
   1  -3  10  119.69   31.80
  -1  -3 -10   88.79   16.00
   1  -3  10   74.19   23.90
  -1  -3 -10  126.49   37.70
   1  -3  10  112.99   15.20
   1   3  10   45.50   31.60
  -1   3 -10   91.49   20.90
   1   3  10   88.19   21.90
   1   3  10   82.69   22.50
  -1   3 -10  147.19   25.90
   1   3  10   75.29   33.60
   1   3  10   76.09   24.10
  -2  -3 -10  294.17   43.20
   2  -3  10  291.27   24.00
   2  -3  10  306.07   36.10
  -2  -3 -10  296.67   27.20
   2  -3  10  271.17   19.60
   2  -3  10  222.68   36.30
   2  -3  10  399.36   53.49
   2   3  10  227.58   39.30
   2   3  10  267.87   41.70
  -2   3 -10  256.87   32.50
  -2   3 -10  203.78   27.20
   2   3  10  264.27   29.90
   2   3  10  272.87   37.10
   2   3  10  190.38   38.90
  -3  -3 -10  117.19   28.90
   3  -3  10  115.59   19.20
   3  -3  10   92.29   34.60
   3  -3  10  101.79   22.10
   3  -3  10  113.79   16.10
   3  -3  10   96.79   22.60
  -3  -3 -10  114.79   18.50
   3   3  10  150.58   37.40
   3   3  10   64.09   33.10
  -3   3 -10  114.09   24.10
   3   3  10  134.39   26.90
   3   3  10  121.89   23.90
   3   3  10  100.29   21.60
  -3   3 -10   81.59   20.60
  -3   3 -10  224.58   57.29
  -4  -3 -10  266.27   35.30
   4  -3  10  233.38   37.40
  -4  -3 -10  299.37   27.00
   4  -3  10  238.38   57.69
   4  -3  10  214.28   35.00
   4  -3  10  255.47   21.90
   4  -3  10  271.17   21.50
   4  -3  10  235.08   32.50
   4  -3  10  262.07   34.70
  -4   3 -10  320.77   46.00
   4   3  10  224.38   40.80
   4   3  10  221.08   27.60
  -4   3 -10  280.07   32.70
   4   3  10  174.88   40.00
  -4   3 -10  220.68   36.30
   4   3  10  301.27   35.50
   4   3  10  179.68   42.90
   5  -3  10   98.99   18.40
  -5  -3 -10   83.39   28.70
   5  -3  10   98.99   13.00
   5  -3  10   78.79   20.90
  -5  -3 -10   98.09   18.70
   5  -3  10   91.69   41.60
   5  -3  10   84.49   33.70
   5  -3  10   77.09   18.50
   5  -3  10  116.09   29.10
  -5   3 -10  101.39   20.30
   5   3  10  104.79   24.60
  -5   3 -10   92.69   26.60
   5   3  10   92.99   21.50
   5   3  10   77.09   46.00
  -5   3 -10   69.89   22.00
   5   3  10   79.09   35.20
   6  -3  10  498.35   41.10
  -6  -3 -10  417.56   33.60
   6  -3  10  437.86   35.10
   6  -3  10  526.75   36.20
   6  -3  10  443.46   50.79
   6  -3  10  464.65   57.29
  -6   3 -10  435.16   37.00
   6   3  10  362.36   56.49
   6   3  10  473.05   38.80
  -6   3 -10  405.46   46.30
   6   3  10  462.55   44.70
   7  -3  10  259.87   36.30
   7  -3  10  275.27   33.30
  -7  -3 -10  219.68   27.60
  -7  -3 -10  252.87   30.30
   7  -3  10  297.47   38.80
   7  -3  10  199.48   28.40
  -7   3 -10  248.08   30.70
  -7   3 -10  347.17   43.30
  -7   3 -10  255.77   39.00
   7   3  10  314.77   37.40
   7   3  10  256.47   30.30
   7   3  10  164.08   35.10
   8  -3  10   65.79   24.50
  -8  -3 -10   52.59   15.30
   8  -3  10   47.80   16.10
   8  -3  10   63.09   18.80
   8  -3  10   51.79   19.60
  -8  -3 -10   79.59   21.70
   8   3  10   74.09   18.50
  -8   3 -10  109.19   30.00
   8   3  10   50.59   29.30
   8   3  10   33.10   15.80
  -8   3 -10   32.00   14.40
   9  -3  10   91.79   21.30
   9  -3  10   59.69   19.30
  -9  -3 -10   88.49   18.30
   9  -3  10   48.70   18.10
  -9  -3 -10   52.89   14.40
  -9   3 -10   84.39   14.50
   9   3  10  145.99   26.50
   9   3  10   83.29   13.70
 -10  -3 -10   30.10   20.40
  10  -3  10   41.60   16.20
  10  -3  10   14.30   13.80
 -10   3 -10   13.40   27.50
 -10   3 -10   44.00   11.90
  10   3  10   45.70   12.00
  10   3  10   37.40   14.00
  10  -4 -10   96.79   21.70
 -10   4  10  157.68   23.30
  10   4 -10   95.69   12.70
 -10   4  10  127.09   23.70
   9  -4 -10   31.30   21.80
   9  -4 -10   23.80   10.80
   9  -4 -10   33.10   34.50
  -9   4  10   26.40   19.50
   9   4 -10   25.40    8.90
  -9   4  10    3.40   21.90
   8  -4 -10   59.49   20.90
   8  -4 -10   95.59   33.10
   8  -4 -10   84.59   22.40
   8  -4 -10   68.29   13.00
  -8   4  10   84.99   21.00
  -8   4  10   48.20   21.20
   8   4 -10   90.79   12.00
   7  -4 -10   83.59   14.90
   7  -4 -10   47.30   39.60
   7  -4 -10   76.09   20.40
   7  -4 -10   82.29   23.70
  -7   4  10   61.89   23.10
   7   4 -10   68.09   11.60
  -7   4  10   66.69   22.00
  -6  -4  10  129.19   18.40
   6  -4 -10  107.89   13.10
   6  -4 -10  202.08   58.19
   6  -4 -10   81.39   15.20
   6  -4 -10  159.38   28.80
  -6   4  10  134.39   37.10
   6   4 -10  154.08   19.00
  -6   4  10  105.99   28.80
  -6   4  10  125.69   27.70
   5  -4 -10   55.49   24.40
  -5  -4  10   39.70   14.30
   5  -4 -10   69.39   15.80
   5  -4 -10   36.10   12.00
   5  -4 -10   60.39   17.40
   5   4 -10   52.79   12.00
  -5   4  10   27.90   22.80
   5   4 -10   94.39   28.00
   4  -4 -10  101.59   29.10
   4  -4 -10   99.09   17.70
   4  -4 -10   84.49   15.20
  -4  -4  10   96.69   14.30
   4  -4 -10   64.89   29.00
   4  -4 -10  106.49   16.60
   4   4 -10   77.79   23.00
  -4   4  10   57.49   27.90
  -4   4  10   70.29   24.10
   4   4 -10   84.59   12.40
  -4   4  10   80.09   18.10
   3  -4 -10  192.88   31.10
  -3  -4  10  177.88   19.10
   3  -4 -10  184.18   22.80
   3  -4 -10  182.78   28.60
  -3  -4  10  271.07   35.10
   3  -4 -10  250.57   26.60
   3  -4 -10  182.08   34.30
   3   4 -10  123.09   24.20
  -3   4  10  130.99   25.50
   3   4 -10  204.48   21.10
  -3   4  10  140.59   31.10
  -3   4  10  159.98   24.60
   2  -4 -10  546.35   32.50
   2  -4 -10  522.55   36.10
  -2  -4  10  645.44   57.49
  -2  -4  10  571.14   37.30
   2  -4 -10  409.26   55.19
   2  -4 -10  465.55   56.89
  -2  -4  10  558.74   58.09
  -2  -4  10  546.05   29.20
   2   4 -10  561.04   45.00
   2   4 -10  506.75   37.50
   2   4 -10  482.85   31.10
  -2   4  10  538.45   43.20
  -2   4  10  506.15   44.70
  -2   4  10  527.25   55.49
  -1  -4  10   22.40   10.40
  -1  -4  10   11.70   21.60
  -1  -4  10   11.90   13.70
   1  -4 -10   19.70   12.40
   1  -4 -10  -57.99   33.20
   1  -4 -10    4.20   14.70
  -1  -4  10   72.49   22.80
   1  -4 -10   22.80   30.20
   1   4 -10   -6.00   14.60
   1   4 -10   75.19   19.50
  -1   4  10   15.40   19.00
   1   4 -10   21.00   20.10
  -1   4  10   -8.20   18.50
  -1   4  10   30.10   21.50
   1   4 -10   13.00   12.40
  -1   4  10  -21.80   29.30
   0  -4  10    3.90   11.40
   0  -4 -10   -0.90   12.70
   0  -4  10   22.20   10.20
   0  -4  10   31.30   21.20
   0  -4 -10  -12.80   32.00
   0  -4 -10    1.00   15.50
   0   4 -10   19.90   16.50
   0   4  10   36.70   21.50
   0   4 -10   37.10   17.90
   0   4  10   22.20   19.20
   0   4  10   49.90   21.10
   0   4 -10   35.00   21.10
   0   4 -10   17.70   12.90
   0   4  10  -10.30   28.50
   1  -4  10   49.90   19.40
  -1  -4 -10   33.70   18.20
  -1  -4 -10   28.80   13.70
   1  -4  10   38.90   19.60
   1  -4  10   28.00    9.40
   1  -4  10   41.60   11.10
  -1  -4 -10   71.79   36.10
  -1   4 -10   50.69   15.60
   1   4  10   13.40   27.60
   1   4  10   43.50   20.10
  -1   4 -10   24.70   16.80
   1   4  10   22.00   17.30
  -1   4 -10   40.10   19.60
   1   4  10   52.19   22.20
   2  -4  10  166.38   90.49
  -2  -4 -10   31.10   17.80
   2  -4  10   39.20   17.60
   2  -4  10   37.10   10.80
   2  -4  10   43.40   11.00
   2  -4  10   52.79   19.30
  -2  -4 -10  127.79   41.80
  -2  -4 -10   45.90   14.40
   2   4  10   37.70   19.60
   2   4  10  113.69   27.90
  -2   4 -10   61.09   20.10
   2   4  10   30.40   16.20
   2   4  10   24.50   28.40
  -2   4 -10   49.80   18.00
  -2   4 -10   56.89   17.80
  -3  -4 -10   50.19   14.50
  -3  -4 -10   46.90   49.60
   3  -4  10  106.49   20.40
   3  -4  10  102.79   17.00
  -3  -4 -10   83.09   34.70
   3  -4  10   73.99   17.70
   3  -4  10   82.29   12.70
   3   4  10   97.29   20.20
   3   4  10   72.89   18.50
   3   4  10   74.19   33.30
  -3   4 -10   50.99   16.00
  -3   4 -10  112.79   20.80
  -4  -4 -10   -6.70   13.70
  -4  -4 -10   -9.20   20.00
   4  -4  10   10.10    8.80
   4  -4  10   16.40   16.10
   4  -4  10   17.80   11.70
   4  -4  10   27.60   15.90
   4   4  10    7.80   17.50
   4   4  10   40.40   34.90
  -4   4 -10    8.30   17.00
   4   4  10   -1.30   16.30
  -4   4 -10  -13.10   15.80
  -5  -4 -10   80.39   21.90
  -5  -4 -10  109.29   16.80
   5  -4  10  109.39   17.70
   5  -4  10  157.48   26.10
   5  -4  10  118.29   16.70
  -5   4 -10   91.29   17.30
   5   4  10   82.39   17.90
   5   4  10   85.49   16.90
  -5   4 -10   81.59   18.40
   6  -4  10  303.47   26.30
   6  -4  10  252.97   43.30
  -6  -4 -10  259.67   27.70
  -6  -4 -10  212.28   30.30
   6  -4  10  321.87   29.80
   6  -4  10  212.48   23.70
   6   4  10  267.17   27.30
  -6   4 -10  305.77   30.80
   6   4  10  301.97   30.90
  -6   4 -10  207.08   28.20
  -7  -4 -10   32.10   14.80
   7  -4  10   20.00   11.40
   7  -4  10   -8.30   36.80
   7  -4  10   30.70   21.60
   7  -4  10   31.30   14.30
  -7  -4 -10   13.10   20.40
   7   4  10   25.20   12.90
  -7   4 -10    0.90   12.60
  -7   4 -10   48.90   22.90
   7   4  10   44.80   14.40
   8  -4  10  -15.30   13.60
   8  -4  10   48.10   29.50
   8  -4  10   12.60   27.90
  -8   4 -10    0.00   12.30
   8   4  10    5.10   12.40
   8   4  10    0.20   11.70
   7  -5 -10   84.09   22.80
   7  -5 -10   54.19   15.50
   7  -5 -10   49.60   11.50
   7   5 -10   70.09   11.10
  -7   5  10   85.09   17.30
   6  -5 -10  104.89   17.30
   6  -5 -10   69.19   17.70
   6  -5 -10   88.09   15.00
  -6   5  10   82.19   17.50
   6   5 -10   87.49   12.10
   5  -5 -10  191.48   15.30
   5  -5 -10  190.48   31.90
  -5  -5  10  185.98   19.80
   5  -5 -10  188.98   21.30
  -5   5  10  225.08   29.60
   5   5 -10  197.98   15.60
  -4  -5  10   20.20   24.40
   4  -5 -10   26.60   12.10
   4  -5 -10   47.40   13.70
   4  -5 -10   29.10   19.30
  -4  -5  10   35.30   12.70
   4  -5 -10   37.90    8.30
  -4   5  10   14.20   22.70
  -4   5  10   44.40   17.70
   4   5 -10   56.39    9.40
   3  -5 -10  110.29   25.70
   3  -5 -10  230.78   40.70
  -3  -5  10  109.09   15.30
   3  -5 -10  119.09   16.10
  -3  -5  10  130.99   17.50
   3  -5 -10  136.79   20.70
  -3   5  10  119.69   18.60
  -3   5  10  143.79   22.10
   3   5 -10  118.29   15.00
  -3   5  10  123.99   27.70
   2  -5 -10    7.70   13.30
  -2  -5  10   17.10   10.00
   2  -5 -10    5.80    8.70
   2  -5 -10   -1.40   11.20
   2  -5 -10   24.30   24.40
  -2  -5  10   21.40   11.00
  -2   5  10    6.30   13.40
   2   5 -10   -6.70    9.10
  -2   5  10   27.30   21.30
  -2   5  10   24.70   21.20
  -2   5  10  -15.80   18.00
   1  -5 -10   15.30   28.50
  -1  -5  10   73.59   11.10
   1  -5 -10   94.49   13.30
   1  -5 -10   56.19   14.90
   1  -5 -10   76.19   13.10
  -1  -5  10   79.49   11.30
   1   5 -10  119.89   29.30
   1   5 -10   54.99   14.60
   1   5 -10   65.19   11.40
  -1   5  10   78.69   15.10
  -1   5  10   57.29   22.10
   0  -5 -10  135.19   15.80
   0  -5  10  110.29   22.20
   0  -5  10  128.19   15.30
   0  -5  10  154.08   16.60
   0  -5 -10  129.49   17.00
   0  -5 -10   69.09   32.80
   0  -5  10  160.28   30.60
   0  -5 -10  138.59   19.10
   0   5  10  116.59   25.30
   0   5  10  123.29   17.60
   0   5 -10  114.09   16.90
  -1  -5 -10   32.50   11.50
  -1  -5 -10   34.10   12.00
   1  -5  10   56.99   16.90
  -1  -5 -10   38.90   15.20
  -1  -5 -10  -40.80   37.30
   1  -5  10   19.30    7.80
   1  -5  10   45.60    9.80
   1  -5  10    5.80   16.60
   1   5  10   58.19   15.70
   1   5  10   49.90   25.30
  -1   5 -10   28.90   12.20
  -1   5 -10   31.00   21.90
  -1   5 -10   19.10   11.30
  -2  -5 -10  182.68   22.30
   2  -5  10  232.68   27.90
   2  -5  10  189.08   15.30
  -2  -5 -10  185.48   23.90
   2  -5  10  188.78   27.30
   2  -5  10  166.58   25.20
  -2   5 -10  205.68   22.40
  -2   5 -10  204.88   24.50
   2   5  10  186.48   28.50
  -2   5 -10  153.48   23.80
   3  -5  10  134.19   18.70
  -3  -5 -10  113.89   14.60
   3  -5  10  103.09   12.60
   3  -5  10   86.29   14.80
   3  -5  10  156.78   22.50
  -3  -5 -10  141.19   22.30
  -3   5 -10  135.39   22.90
  -3   5 -10  100.09   14.30
   3   5  10  123.69   23.40
   4  -5  10   75.49   13.00
   4  -5  10  122.59   19.30
  -4  -5 -10   64.09   14.10
  -4  -5 -10  101.89   16.00
   4  -5  10  114.39   12.80
  -4   5 -10   86.09   19.60
   4   5  10   82.29   19.80
  -4   5 -10   55.69   20.90
  -4   5 -10  114.09   14.50
   4   5  10   79.99   14.30
   5  -5  10   28.00   10.10
   5  -5  10   26.40   12.10
  -5  -5 -10   26.60   15.60
  -5   5 -10   36.40   18.30
  -5   5 -10   19.10   11.30
   5   5  10   42.40   13.60
   5   5  10   21.90   12.60
  -5   5 -10   31.50   11.70
 -13   0  11    4.90   11.60
 -13   0  11    7.90   13.10
  13   0 -11    3.00   11.90
  13   0 -11   14.20   15.90
 -13   0  11   -4.60   13.20
 -12   0  11   43.00   15.70
  12   0 -11   59.69   20.00
 -12   0  11   45.70   14.50
  12   0 -11   63.89   15.50
 -11   0  11    2.50   17.70
  11   0 -11   31.20   23.00
  11   0 -11   -6.30   17.60
  11   0 -11   -5.00   21.30
 -11   0  11   19.80   15.90
  11   0 -11   -4.30   11.80
 -10   0  11  201.48   26.50
  10   0 -11  219.68   22.70
 -10   0  11  196.78   26.50
  10   0 -11  167.88   28.70
  10   0 -11  228.08   37.80
  10   0 -11  275.87   34.80
  -9   0  11  887.61   50.49
   9   0 -11  958.80   59.29
  -9   0  11  946.21   54.59
   9   0 -11  883.51   45.40
  -9   0  11  867.01   57.49
   9   0 -11  881.41   58.79
   9   0 -11  942.51   54.99
  -8   0  11  256.07   36.00
   8   0 -11  264.87   40.20
   8   0 -11  199.58   28.80
  -8   0  11  214.88   38.50
  -8   0  11  187.78   26.10
   8   0 -11  195.88   23.80
  -8   0  11  240.28   44.10
  -7   0  11   14.40   19.90
   7   0 -11   -1.00   21.50
   7   0 -11   18.30   22.80
  -7   0  11  -13.30   28.90
   7   0 -11   13.60   13.00
  -7   0  11   18.40   14.00
  -7   0  11   10.10   20.00
   7   0 -11   16.10   24.70
  -6   0  11  794.32   40.20
   6   0 -11  787.52   40.20
  -6   0  11  774.12   48.80
   6   0 -11  730.43   55.49
   6   0 -11  791.22   52.69
  -6   0  11  705.83   48.90
   6   0 -11  805.02   49.40
  -6   0  11  749.73   53.39
  -5   0  11   73.09   44.50
   5   0 -11   14.50   20.80
  -5   0  11   49.20   11.80
  -5   0  11   31.10   18.40
  -5   0  11   45.40   19.90
  -5   0  11   32.90   20.10
   5   0 -11   27.70   26.00
   5   0 -11   14.90   24.10
   5   0 -11   15.80   14.60
   5   0 -11   44.60   24.10
   4   0 -11  893.31   54.79
  -4   0  11  833.12   50.19
   4   0 -11  901.21   60.49
  -4   0  11  898.51   51.79
   4   0 -11  815.02   50.09
   4   0 -11  843.32   36.10
  -4   0  11  866.51   65.99
   4   0 -11  906.91  126.49
   4   0 -11  919.51   58.99
  -4   0  11  805.32   48.50
   4   0 -11  965.60   47.40
   3   0 -11  127.59   11.60
  -3   0  11  119.19   21.80
   3   0 -11   38.90   57.69
   3   0 -11  102.69   24.90
  -3   0  11   96.79   19.90
  -3   0  11   83.89   31.70
  -3   0  11  134.09   20.40
   3   0 -11  137.79   27.40
  -3   0  11  114.29   20.70
   3   0 -11   86.99   24.60
  -2   0  11   95.09   18.90
   2   0 -11  127.99   23.80
  -2   0  11   93.19   16.90
  -2   0  11  116.49   39.70
   2   0 -11  156.98   52.09
   2   0 -11   92.99   11.00
   2   0 -11  168.88   32.50
   1   0 -11 1586.04   64.29
  -1   0  11 1651.23   66.69
   1   0 -11 1524.75   71.29
  -1   0  11 1600.54   71.89
  -1   0  11 1521.95   75.59
  -1   0  11 1549.74   82.69
  -1   0  11 1570.44   73.19
   1   0 -11 1654.53  104.39
   0   0  11  237.18   25.70
   0   0  11  229.48   31.40
   0   0 -11  252.47   57.69
   0   0 -11  224.28   25.90
   0   0  11  225.98   31.80
   0   0 -11  232.28   28.90
   0   0  11  245.48   21.50
   0   0  11  221.88   25.80
   0   0 -11  224.18   15.90
  -1   0 -11  418.76   21.90
   1   0  11  454.55   44.90
  -1   0 -11  311.87   38.60
  -1   0 -11  329.87   39.90
  -1   0 -11  387.26   27.70
   1   0  11  360.96   61.19
   1   0  11  374.06   35.80
   1   0  11  370.66   49.40
   1   0  11  323.47   34.90
   1   0  11  359.16   29.40
   1   0  11  383.26   28.90
  -1   0 -11  375.16   65.99
   2   0  11   18.80   26.00
  -2   0 -11   16.90   56.19
   2   0  11    1.90   18.90
  -2   0 -11    1.20   20.00
   2   0  11    0.20   32.50
  -2   0 -11   -6.80   12.50
  -2   0 -11  -25.70   20.50
   2   0  11   16.60   26.10
  -2   0 -11   -9.20    7.50
  -2   0 -11   -2.00   69.79
   2   0  11   -9.60   26.30
   2   0  11   19.70   13.10
   3   0  11   86.59   25.20
   3   0  11  118.49   42.50
  -3   0 -11   98.39   16.50
   3   0  11  138.49   31.60
   3   0  11  137.39   23.60
  -3   0 -11   88.89   22.20
   3   0  11   91.39   29.30
  -3   0 -11  134.69   22.70
  -3   0 -11   96.79   16.20
  -3   0 -11  173.48   47.40
   3   0  11  129.59   22.20
  -3   0 -11   93.19   72.79
  -4   0 -11  595.94   33.90
   4   0  11  616.74   34.50
   4   0  11  546.55   51.39
   4   0  11  763.42   59.49
   4   0  11  631.64   51.09
  -4   0 -11  642.94   43.40
  -4   0 -11  591.64   40.40
   4   0  11  612.54   65.39
   4   0  11  624.44   47.40
  -4   0 -11  597.44   36.00
   5   0  11   35.60   25.30
   5   0  11   48.80   25.30
  -5   0 -11   61.69   15.30
  -5   0 -11   66.69   16.00
   5   0  11   64.99   29.30
  -5   0 -11   53.79   20.10
  -6   0 -11  537.45   42.00
   6   0  11  435.26   53.39
   6   0  11  441.16   46.20
  -6   0 -11  487.05   33.50
  -6   0 -11  421.36   39.70
   6   0  11  438.86   48.30
  -7   0 -11   50.49   26.10
   7   0  11   49.30   26.30
   7   0  11   65.89   24.00
   7   0  11   24.90   40.60
   7   0  11   77.09   26.60
  -7   0 -11   81.89   20.30
   8   0  11   35.80   25.10
  -8   0 -11  -11.10   13.90
  -8   0 -11    4.40   15.90
   8   0  11    8.30   20.20
  -8   0 -11   86.19   43.30
   8   0  11    1.20   31.10
   8   0  11    9.30   24.90
   9   0  11   -6.10   19.20
   9   0  11    4.60   17.80
   9   0  11  -27.60   25.40
   9   0  11  -34.50   27.60
  -9   0 -11  -11.60   14.20
  -9   0 -11  -13.70   14.40
  10   0  11  -32.10   25.20
  10   0  11    2.30   30.30
 -10   0 -11  -10.70   10.10
  10   0  11    6.80   16.10
  10   0  11   23.90   19.80
 -10   0 -11    4.80   12.60
 -10   0 -11    9.30   14.40
 -11   0 -11   69.29   11.60
 -11   0 -11   37.60   16.00
 -11   0 -11   43.10    9.90
  11   0  11   44.50   16.00
  13  -1 -11  238.58   33.70
 -13  -1  11  172.38   20.10
 -13  -1  11  154.98   24.20
 -13  -1  11  198.88   23.40
  13  -1 -11  186.68   21.40
 -13   1  11  205.68   21.30
  13   1 -11  197.38   24.00
 -13   1  11  218.18   21.00
  12  -1 -11   77.09   15.90
 -12  -1  11   39.90   17.00
 -12  -1  11   53.29   14.00
  12  -1 -11   35.80   18.40
  12  -1 -11  -17.90   33.10
  12  -1 -11   30.90   16.90
 -12   1  11   42.30   13.00
  12   1 -11   30.10   17.00
 -12   1  11   46.10   13.30
  12   1 -11   33.40   10.60
  12   1 -11   64.49   23.10
 -12   1  11   60.89   16.50
 -11  -1  11  117.79   22.10
 -11  -1  11  128.89   18.20
  11  -1 -11  145.79   26.50
  11  -1 -11  166.28   24.30
  11  -1 -11   91.99   24.00
  11   1 -11  144.29   19.00
  11   1 -11  123.79   27.00
 -11   1  11  173.88   25.20
 -11   1  11  104.89   17.60
  11   1 -11  124.19   21.80
 -10  -1  11  374.66   31.90
  10  -1 -11  415.46   46.20
  10  -1 -11  368.46   42.20
 -10  -1  11  348.07   56.69
  10   1 -11  379.66   48.70
  10   1 -11  388.86   26.90
 -10   1  11  437.16   34.30
 -10   1  11  466.05   41.50
 -10   1  11  413.56   37.20
  10   1 -11  367.96   36.10
  10   1 -11  342.17   45.00
   9  -1 -11  316.57   40.60
   9  -1 -11  282.47   41.40
   9  -1 -11  285.17   25.60
  -9  -1  11  284.67   29.70
  -9  -1  11  303.47   36.00
   9  -1 -11  302.37   45.00
   9  -1 -11  284.57   38.80
  -9   1  11  246.18   38.60
  -9   1  11  294.47   31.50
  -9   1  11  371.86   37.20
   9   1 -11  351.66   43.60
   9   1 -11  252.37   33.40
   9   1 -11  294.27   25.50
  -9   1  11  319.47   48.30
   9   1 -11  403.76   41.00
   9   1 -11  313.67   38.10
   8  -1 -11  396.36   43.40
  -8  -1  11  386.56   47.90
  -8  -1  11  389.16   30.00
  -8  -1  11  402.26   49.60
   8  -1 -11  397.06   43.00
   8  -1 -11  372.86   47.30
   8  -1 -11  392.96   42.90
   8  -1 -11  391.16   28.20
   8   1 -11  393.06   47.90
   8   1 -11  382.26   27.90
   8   1 -11  354.06   45.10
  -8   1  11  375.36   37.90
   8   1 -11  427.76   39.00
  -8   1  11  400.26   41.60
  -8   1  11  389.06   30.70
  -8   1  11  328.07   55.79
   7  -1 -11  222.18   27.80
   7  -1 -11  149.49   29.30
   7  -1 -11  193.78   23.90
  -7  -1  11  197.48   26.80
  -7  -1  11  178.98   27.30
   7  -1 -11  183.58   33.40
   7  -1 -11  225.78   31.20
   7   1 -11  177.38   29.20
   7   1 -11  249.68   37.20
  -7   1  11  236.08   33.70
  -7   1  11  195.18   30.00
   7   1 -11  195.68   22.60
  -7   1  11  173.08   26.60
  -7   1  11  190.38   24.60
   7   1 -11  179.08   31.40
   6  -1 -11  576.14   26.60
   6  -1 -11  532.05   84.19
   6  -1 -11  483.95   64.49
  -6  -1  11  439.06   46.00
  -6  -1  11  510.25   44.30
   6  -1 -11  537.95   47.20
   6  -1 -11  572.04   48.70
  -6  -1  11  572.84   31.50
   6  -1 -11  554.64   33.90
   6  -1 -11  526.65   47.30
  -6   1  11  644.24   44.10
   6   1 -11  520.25   32.90
   6   1 -11  471.85   55.59
   6   1 -11  548.45   46.30
   6   1 -11  605.94   45.10
  -6   1  11  550.44   40.80
  -6   1  11  554.64   53.19
  -6   1  11  606.34   34.00
   6   1 -11  595.74   43.30
   5  -1 -11  123.59   24.60
  -5  -1  11  140.09   18.50
   5  -1 -11  327.17  108.19
   5  -1 -11  135.79   30.60
   5  -1 -11  148.79   23.40
  -5  -1  11  125.89   31.00
   5  -1 -11  205.28   30.90
   5  -1 -11  135.59   14.00
  -5  -1  11  222.38   37.90
  -5  -1  11  153.88   24.60
   5  -1 -11  159.88   27.10
   5  -1 -11   94.59   44.70
  -5  -1  11  198.08   38.60
  -5   1  11  172.68   23.90
  -5   1  11  174.88   28.40
  -5   1  11  142.59   44.70
  -5   1  11   73.99   49.30
   5   1 -11  161.58   23.40
   5   1 -11  173.58   19.10
   5   1 -11  158.28   26.50
  -5   1  11  148.59   18.60
   5   1 -11   61.49   33.70
   5   1 -11  151.28   26.50
  -5   1  11  120.09   19.30
   4  -1 -11  195.68   30.30
  -4  -1  11  301.67   36.30
   4  -1 -11  199.28   32.10
  -4  -1  11  216.98   37.10
   4  -1 -11  157.18   78.69
   4  -1 -11  198.58   15.30
  -4  -1  11  209.48   28.60
   4  -1 -11  259.07   38.80
   4  -1 -11  178.78   27.10
  -4  -1  11  222.38   18.70
   4  -1 -11  214.28   42.70
   4  -1 -11  202.18   30.60
  -4   1  11  229.98   31.30
   4   1 -11  192.88   36.80
  -4   1  11  174.68   27.80
   4   1 -11  205.78   33.50
  -4   1  11  233.88   49.70
  -4   1  11  244.88   33.90
   4   1 -11  216.38   30.70
   4   1 -11  232.08   28.40
  -4   1  11  246.98   42.10
   4   1 -11  261.97   27.70
  -4   1  11  188.08   24.00
  -3  -1  11  210.48   35.60
   3  -1 -11  128.99   31.30
  -3  -1  11  161.98   24.20
   3  -1 -11  175.68   36.90
   3  -1 -11  150.58   23.50
   3  -1 -11  154.58   65.79
   3  -1 -11  193.38   35.20
   3  -1 -11  121.99   25.20
  -3  -1  11  146.49   16.70
  -3  -1  11  135.29   21.70
   3  -1 -11  165.28   26.70
   3  -1 -11  174.38   14.10
   3  -1 -11  182.78   26.70
   3   1 -11  203.88   27.10
  -3   1  11  188.78   25.00
   3   1 -11  162.08   26.40
   3   1 -11  119.09   23.20
  -3   1  11  145.79   23.80
  -3   1  11  107.19   38.20
   3   1 -11  167.68   22.50
  -3   1  11  157.48   37.30
  -2  -1  11   96.29   18.80
   2  -1 -11   63.09   15.00
   2  -1 -11   89.99   12.10
   2  -1 -11  116.29   57.59
   2  -1 -11   89.39   20.50
  -2  -1  11   30.60   22.20
   2  -1 -11   62.99   34.00
  -2  -1  11   99.49   14.60
   2  -1 -11   89.49   24.80
  -2  -1  11   80.99   18.80
   2   1 -11  -68.19   71.69
  -2   1  11   86.49   17.70
   2   1 -11   97.89   36.30
  -2   1  11   80.59   37.60
  -2   1  11   71.49   14.10
  -2   1  11  103.69   30.50
  -2   1  11   70.19   25.60
   2   1 -11   61.99   23.40
   2   1 -11   24.80   22.50
   2   1 -11   95.59   21.60
  -2   1  11   61.89   21.60
  -1  -1  11  156.68   15.70
   1  -1 -11  142.59   20.50
  -1  -1  11  226.88   27.00
   1  -1 -11  182.18   56.89
   1  -1 -11  160.68   24.00
   1  -1 -11  189.48   14.90
   1  -1 -11  224.88   31.30
  -1  -1  11  118.89   23.30
  -1  -1  11  172.08   23.60
  -1   1  11  208.98   36.20
   1   1 -11  200.48   30.00
  -1   1  11  162.78   23.10
   1   1 -11  108.89   36.60
  -1   1  11  174.08   24.70
  -1   1  11  122.79   29.30
   1   1 -11  144.99   13.70
   1   1 -11  189.98   27.10
  -1   1  11  154.38   29.10
  -1   1  11  123.09   34.10
   1   1 -11  151.08   24.60
   1   1 -11  206.18   69.89
   0  -1 -11   45.00   12.90
   0  -1 -11   31.30   20.90
   0  -1  11   28.90   19.90
   0  -1 -11   69.39   52.09
   0  -1  11   42.10   14.10
   0  -1 -11   25.80    8.30
   0  -1  11   42.10    9.90
   0  -1  11   28.60   16.90
   0   1 -11   28.80    8.30
   0   1  11   17.30   13.00
   0   1  11   53.89   28.60
   0   1 -11  -16.10   36.00
   0   1 -11   67.79   27.00
   0   1  11   66.79   41.60
   0   1 -11   25.40   21.50
   0   1  11   63.59   23.20
   0   1 -11   43.40   58.99
   0   1 -11   23.30   24.00
   0   1  11   -9.50   26.50
   0   1  11   47.10   28.40
  -1  -1 -11  403.86   40.90
  -1  -1 -11  357.46   45.80
  -1  -1 -11  398.66   23.20
  -1  -1 -11  380.96   66.79
   1  -1  11  410.96   34.20
   1  -1  11  341.97   34.80
  -1  -1 -11  391.96   27.30
   1  -1  11  361.06   45.30
   1  -1  11  298.67   77.19
   1  -1  11  366.76   23.40
   1  -1  11  423.96   28.10
  -1   1 -11  357.96   37.90
   1   1  11  463.55   28.00
   1   1  11  421.66   50.09
  -1   1 -11  430.76   23.00
   1   1  11  393.26   60.69
   1   1  11  381.96   44.60
  -1   1 -11  412.86   35.20
   1   1  11  229.38   59.69
  -1   1 -11  351.96   73.69
  -1   1 -11  277.57   40.70
  -1   1 -11  385.96   43.50
   1   1  11  335.77   49.00
   1   1  11  369.46   40.60
  -2  -1 -11  386.96   23.50
  -2  -1 -11  380.56   27.60
   2  -1  11  301.87   34.00
  -2  -1 -11  335.37   42.10
   2  -1  11  343.27   39.20
  -2  -1 -11  381.46   41.40
   2  -1  11  355.46   24.20
  -2  -1 -11  297.87   66.19
   2  -1  11  429.36   67.09
   2  -1  11  439.96   33.00
   2  -1  11  352.06   26.90
  -2   1 -11  374.26   35.80
  -2   1 -11  308.27   36.90
   2   1  11  398.46   24.10
  -2   1 -11  380.36   41.50
   2   1  11  264.77   47.50
  -2   1 -11  311.27   46.10
   2   1  11  348.67   53.59
  -2   1 -11  364.06   83.89
   2   1  11  325.37   48.40
   2   1  11  394.06   49.99
  -2   1 -11  387.76   23.30
   2   1  11  405.16   52.79
   2   1  11  362.46   42.10
  -3  -1 -11  398.26   40.90
   3  -1  11  531.65   76.29
   3  -1  11  494.85   61.79
   3  -1  11  393.46   42.00
  -3  -1 -11  375.36   41.40
   3  -1  11  379.26   29.20
   3  -1  11  359.76   34.10
   3  -1  11  433.76   29.10
  -3  -1 -11  420.36   28.80
   3  -1  11  465.55   36.90
  -3  -1 -11  397.46   26.20
  -3   1 -11  464.75   45.00
  -3   1 -11  366.26   39.10
  -3   1 -11  427.96   33.70
  -3   1 -11  406.06   34.90
   3   1  11  514.35   49.50
   3   1  11  425.46   42.40
   3   1  11  342.27   67.39
   3   1  11  401.56   59.19
  -3   1 -11  382.36   26.00
   3   1  11  438.46   47.50
   4  -1  11  369.96   38.20
  -4  -1 -11  334.17   39.60
   4  -1  11  286.87   32.60
   4  -1  11  325.47   46.60
  -4  -1 -11  340.67   27.30
   4  -1  11  357.26   47.80
  -4  -1 -11  285.47   26.80
   4  -1  11  341.27   35.10
  -4  -1 -11  350.06   36.30
   4  -1  11  239.98   33.50
   4  -1  11  369.96   56.69
  -4   1 -11  356.86   33.40
  -4   1 -11  255.17   40.10
   4   1  11  307.67   40.30
   4   1  11  290.37   45.70
   4   1  11  230.28   40.50
  -4   1 -11  299.27   24.90
  -4   1 -11  334.47   36.60
   4   1  11  350.46   47.10
  -4   1 -11  308.57   30.50
   4   1  11  342.17   49.20
   5  -1  11  112.89   21.70
  -5  -1 -11  182.78   24.10
   5  -1  11  108.19   30.60
   5  -1  11  113.19   29.90
  -5  -1 -11  159.78   25.30
   5  -1  11  140.79   21.20
   5  -1  11  158.78   27.00
  -5  -1 -11  105.89   19.30
  -5  -1 -11  159.18   24.10
  -5   1 -11  189.78   29.50
  -5   1 -11  143.09   27.70
  -5   1 -11  171.38   24.10
  -5   1 -11  175.88   24.60
   5   1  11   96.49   33.50
   5   1  11  133.89   25.70
   5   1  11  131.69   33.90
   5   1  11  126.29   52.29
  -5   1 -11  106.49   19.90
   5   1  11   91.59   29.80
   6  -1  11  381.36   40.80
  -6  -1 -11  419.76   31.30
  -6  -1 -11  342.87   44.60
   6  -1  11  395.66   42.80
   6  -1  11  381.76   52.79
  -6  -1 -11  449.76   40.80
   6  -1  11  373.16   48.30
  -6   1 -11  439.56   37.70
  -6   1 -11  368.56   45.00
   6   1  11  366.16   39.80
  -6   1 -11  427.26   34.40
   6   1  11  300.87   54.29
   6   1  11  370.26   53.59
   6   1  11  332.47   46.50
   6   1  11  430.16   55.09
  -6   1 -11  383.26   35.60
  -6   1 -11  384.96   36.00
   7  -1  11  452.85   46.20
  -7  -1 -11  390.06   37.60
   7  -1  11  346.97   47.10
   7  -1  11  416.26   42.80
  -7  -1 -11  380.16   30.70
   7   1  11  330.77   54.29
  -7   1 -11  383.36   34.90
   7   1  11  376.86   49.30
  -7   1 -11  319.17   43.20
  -7   1 -11  371.66   46.10
   7   1  11  293.07   44.70
   7   1  11  302.17   50.49
   7   1  11  420.46   37.50
  -7   1 -11  384.46   33.20
  -7   1 -11  352.46   36.00
   8  -1  11   33.50   22.00
  -8  -1 -11   48.10   16.70
  -8  -1 -11   34.80   14.20
   8  -1  11   50.39   25.40
   8  -1  11    8.10   23.90
  -8  -1 -11   45.20   16.60
  -8   1 -11   25.30   18.50
  -8   1 -11   36.50   15.80
  -8   1 -11   29.40   15.30
   8   1  11   41.90   27.40
  -8   1 -11   41.00   22.50
   8   1  11    9.60   39.30
   8   1  11   48.60   18.40
   8   1  11   -1.50   29.30
   9  -1  11   24.20   23.50
   9  -1  11  -12.80   19.20
  -9  -1 -11   18.10   14.30
  -9  -1 -11   -0.60   15.00
   9  -1  11   17.70   19.90
  -9  -1 -11   -0.20   13.00
  -9   1 -11   14.10   19.90
   9   1  11  -11.70   21.90
   9   1  11    6.20   28.30
  -9   1 -11    3.10   19.80
   9   1  11   31.90   22.50
   9   1  11   -8.60   18.30
   9   1  11   19.70   22.40
  -9   1 -11   13.10   13.60
  -9   1 -11    9.90   14.40
  10  -1  11   32.00   16.90
 -10  -1 -11   64.19   12.60
 -10  -1 -11   87.69   22.60
 -10  -1 -11   68.69   14.50
  10  -1  11   86.39   17.80
  10  -1  11   27.10   26.70
 -10   1 -11   41.80   11.10
 -10   1 -11   66.49   13.80
 -10   1 -11   37.00   24.30
  10   1  11  102.59   22.10
  10   1  11   58.89   18.50
  10   1  11   57.29   34.50
 -10   1 -11   73.59   19.70
 -11  -1 -11   62.99   11.30
  11  -1  11   76.79   20.40
  11  -1  11   59.79   14.70
 -11  -1 -11   40.10   13.10
  11   1  11   29.30   21.70
  11   1  11   59.59   21.90
 -11   1 -11   70.89   13.60
 -11   1 -11   56.59   11.60
  12  -2 -11   -0.40   13.80
  12  -2 -11   14.70   12.60
 -12  -2  11   45.50   15.80
  12  -2 -11   12.70   17.10
  12  -2 -11   13.70   14.90
 -12  -2  11   10.80   22.30
 -12   2  11   12.20   16.70
  12   2 -11   -3.30    8.90
 -12   2  11    5.00   12.20
  11  -2 -11    1.70   18.60
 -11  -2  11    6.20   16.00
  11  -2 -11   41.00   20.00
  11  -2 -11   15.00   15.20
 -11  -2  11   30.40   25.50
 -11   2  11   17.40   13.70
 -11   2  11   30.00   15.60
  11   2 -11    6.50    9.50
  10  -2 -11  359.66   39.30
  10  -2 -11  320.47   46.30
 -10  -2  11  418.96   48.60
  10  -2 -11  323.97   31.10
 -10  -2  11  363.36   32.60
 -10   2  11  327.57   45.10
 -10   2  11  328.17   30.90
  10   2 -11  318.17   24.00
 -10   2  11  326.67   33.10
   9  -2 -11   10.00   16.10
   9  -2 -11   22.20   21.80
   9  -2 -11   -2.90   25.30
  -9  -2  11   18.60   16.20
   9   2 -11   36.70   12.50
   9   2 -11   22.50   20.60
  -9   2  11   34.80   22.90
  -9   2  11    5.20   15.00
  -9   2  11   25.90   17.70
  -9   2  11   79.69   48.30
   8  -2 -11 1166.58   81.99
   8  -2 -11 1186.78   73.59
   8  -2 -11 1135.29   58.99
   8  -2 -11 1091.99   66.29
  -8   2  11 1175.98   59.09
  -8   2  11 1341.47   89.99
  -8   2  11 1150.18   65.19
  -8   2  11 1124.09   74.49
   8   2 -11 1158.88   53.69
   8   2 -11 1116.09   62.89
  -8   2  11 1193.78   63.59
   7  -2 -11   68.79   19.40
   7  -2 -11   87.49   36.80
   7  -2 -11   37.40   31.30
   7  -2 -11   21.70   14.40
  -7  -2  11   31.50   13.30
   7  -2 -11   46.90   24.10
  -7   2  11   59.99   21.50
  -7   2  11   49.20   37.50
  -7   2  11   31.70   18.70
  -7   2  11   43.00   22.50
   7   2 -11   67.69   25.60
   7   2 -11   28.30   13.00
  -7   2  11   61.99   26.80
   6  -2 -11   23.70   19.60
   6  -2 -11   20.30   32.90
   6  -2 -11  -41.00   30.90
   6  -2 -11  -25.40   22.40
  -6  -2  11    9.10   11.90
   6  -2 -11   19.50   10.80
   6   2 -11  -11.20   21.80
  -6   2  11   14.60   19.00
  -6   2  11   36.40   22.50
   6   2 -11    0.10   12.50
  -6   2  11   12.00   35.70
   6   2 -11  -22.60   26.70
  -6   2  11   48.30   23.00
   6   2 -11  -14.40   18.40
  -6   2  11    6.50   21.90
  -6   2  11  -41.30   47.90
   5  -2 -11  126.89   22.50
   5  -2 -11  104.19   36.70
   5  -2 -11  156.88   27.70
   5  -2 -11  133.39   17.60
  -5  -2  11  136.59   19.00
   5  -2 -11  120.89   35.30
  -5   2  11   94.09   35.20
   5   2 -11   96.19   21.90
   5   2 -11  106.09   15.70
  -5   2  11  141.79   23.00
  -5   2  11  122.29   26.40
  -5   2  11  125.19   29.60
   5   2 -11  130.29   25.20
  -5   2  11   93.49   41.60
  -4  -2  11   63.39   24.50
  -4  -2  11   32.40   22.10
   4  -2 -11   64.59   14.50
   4  -2 -11   30.00   16.90
   4  -2 -11   87.19   32.90
   4  -2 -11   78.39   38.20
   4  -2 -11   41.20   23.20
  -4  -2  11   40.20   11.40
   4  -2 -11   29.60   10.00
  -4   2  11   23.20   22.10
   4   2 -11   53.69   20.90
   4   2 -11   24.10   13.70
  -4   2  11   51.29   31.80
  -4   2  11   25.90   35.00
  -4   2  11   44.30   16.70
   4   2 -11   68.69   23.00
   4   2 -11   39.00   22.70
  -4   2  11   25.80   24.60
  -3  -2  11  161.88   17.10
   3  -2 -11  165.58   28.20
   3  -2 -11  150.38   20.50
  -3  -2  11  133.39   24.70
   3  -2 -11  153.78   17.10
   3  -2 -11  147.59   33.60
   3  -2 -11  156.78   21.60
  -3  -2  11   66.59   35.30
  -3  -2  11  141.09   28.20
   3  -2 -11  148.29   44.10
   3   2 -11  151.18   23.90
   3   2 -11  154.58   25.70
  -3   2  11  106.49   36.10
  -3   2  11  163.58   32.10
  -3   2  11  123.79   19.10
   3   2 -11   86.29   24.60
   3   2 -11  130.39   23.70
  -3   2  11  131.69   27.00
   2  -2 -11  466.65   35.60
  -2  -2  11  378.36   44.70
  -2  -2  11  411.16   24.50
   2  -2 -11  474.35   59.19
  -2  -2  11  503.05   35.50
  -2  -2  11  346.37   51.19
   2  -2 -11  473.75   29.00
   2  -2 -11  418.56   25.40
   2  -2 -11  522.65   43.50
   2  -2 -11  468.45   55.79
  -2   2  11  344.27   54.89
  -2   2  11  392.06   45.60
   2   2 -11  422.76   37.60
  -2   2  11  427.16   37.50
  -2   2  11  329.97   54.99
  -2   2  11  418.46   31.40
   2   2 -11  418.66   33.60
   2   2 -11  438.96   33.60
   2   2 -11  426.36   41.50
   2   2 -11  407.56   38.90
  -2   2  11  325.57   46.90
  -1  -2  11  709.73   53.89
  -1  -2  11  783.72   41.70
   1  -2 -11  660.13   52.99
   1  -2 -11  719.23   35.40
  -1  -2  11  559.04   61.39
   1  -2 -11  702.03   37.40
  -1  -2  11  697.83   33.90
   1  -2 -11  748.73   45.00
  -1  -2  11  689.63   49.99
  -1   2  11  737.03   56.99
  -1   2  11  671.63   47.20
   1   2 -11  673.83   47.10
  -1   2  11  739.13   37.00
   1   2 -11  701.83   44.50
   1   2 -11  695.33   47.10
  -1   2  11  519.15   57.89
  -1   2  11  583.04   71.19
   1   2 -11  711.53   48.60
  -1   2  11  674.93   51.49
   1   2 -11  690.23   43.00
   0  -2  11  643.64   51.49
   0  -2  11  670.23   38.60
   0  -2 -11  672.93   46.20
   0  -2  11  678.23   33.40
   0  -2 -11  676.53   37.60
   0  -2  11  647.34   54.59
   0  -2  11  718.33   47.80
   0  -2 -11  665.83   35.30
   0   2  11  742.63   47.90
   0   2  11  546.45   65.49
   0   2  11  668.83   61.99
   0   2 -11  716.73   44.60
   0   2  11  748.03   48.10
   0   2 -11  684.43   49.50
   0   2 -11  732.33   48.30
   0   2  11  751.02   74.39
  -1  -2 -11   76.19   13.60
   1  -2  11   80.09   14.20
  -1  -2 -11   72.39   22.30
  -1  -2 -11   55.39   14.00
   1  -2  11   58.09   24.30
   1  -2  11   32.50   22.10
   1  -2  11   84.09   19.80
   1  -2  11   70.89   11.20
  -1   2 -11   65.69   24.10
   1   2  11   77.49   22.10
   1   2  11   68.89   21.40
   1   2  11   47.50   33.00
  -1   2 -11   87.79   22.80
   1   2  11   43.60   31.80
   1   2  11   96.99   33.20
  -1   2 -11   38.40   22.10
   2  -2  11  560.24   45.00
   2  -2  11  587.64   31.60
   2  -2  11  527.75   39.50
  -2  -2 -11  559.34   47.80
  -2  -2 -11  579.04   34.10
  -2  -2 -11  533.85   33.20
   2  -2  11  533.05   29.00
   2  -2  11  578.74   44.10
  -2   2 -11  492.45   44.80
   2   2  11  484.25   43.70
  -2   2 -11  579.44   30.30
   2   2  11  553.74   45.00
  -2   2 -11  541.45   43.50
   2   2  11  502.15   58.09
   2   2  11  403.26   57.89
   2   2  11  453.15   56.49
  -2   2 -11  528.35   43.40
   3  -2  11 1268.77   91.89
  -3  -2 -11 1271.77   60.99
   3  -2  11 1332.57   56.79
  -3  -2 -11 1318.67   86.79
   3  -2  11 1335.97   65.29
   3  -2  11 1362.76   71.09
  -3  -2 -11 1354.96   61.29
   3  -2  11 1268.37   57.19
   3  -2  11 1394.76   67.69
   3   2  11 1348.67   68.39
   3   2  11 1233.48   93.89
  -3   2 -11 1105.69   80.39
  -3   2 -11 1331.37   58.19
   3   2  11 1141.39   79.09
  -3   2 -11 1304.97   68.79
  -3   2 -11 1251.57   64.89
   3   2  11 1277.87   66.39
   4  -2  11  -35.10   34.30
   4  -2  11   45.60   19.70
   4  -2  11   38.60   18.10
  -4  -2 -11   21.80   15.00
  -4  -2 -11    4.60   23.10
   4  -2  11   45.20   15.20
   4  -2  11   30.90   11.40
   4  -2  11   36.40   22.50
   4  -2  11   20.20   39.30
  -4   2 -11   31.80   27.20
   4   2  11   38.00   31.10
   4   2  11   64.89   39.80
   4   2  11  -20.70   28.70
  -4   2 -11   22.10   19.70
  -4   2 -11   14.90   15.20
   4   2  11   17.60   20.30
   4   2  11   -1.60   29.30
   4   2  11   27.40   20.40
  -4   2 -11   11.90   19.70
   5  -2  11  393.56   30.30
   5  -2  11  490.95   36.70
  -5  -2 -11  368.96   41.60
  -5  -2 -11  438.46   32.20
   5  -2  11  447.96   40.20
  -5  -2 -11  387.46   43.90
   5  -2  11  461.85   46.80
   5  -2  11  436.36   58.19
   5  -2  11  332.97   51.19
   5   2  11  433.86   69.19
   5   2  11  344.07   55.69
   5   2  11  432.46   38.80
   5   2  11  389.76   40.80
  -5   2 -11  426.96   40.10
  -5   2 -11  525.15   35.90
  -5   2 -11  430.96   36.80
   5   2  11  441.46   50.49
   6  -2  11  247.58   42.40
   6  -2  11  236.88   31.80
   6  -2  11  208.38   35.50
   6  -2  11  207.48   30.80
  -6  -2 -11  201.88   27.60
  -6  -2 -11  175.98   25.20
   6  -2  11  161.48   31.70
  -6  -2 -11  247.88   27.10
  -6   2 -11  166.08   22.80
   6   2  11  189.58   30.00
  -6   2 -11  188.08   24.70
   6   2  11  141.39   31.90
   6   2  11  204.58   27.10
  -6   2 -11  297.67   38.10
   6   2  11  161.78   23.30
  -6   2 -11  200.08   25.70
   6   2  11  184.78   36.10
  -7  -2 -11   52.09   14.80
  -7  -2 -11   41.60   30.70
   7  -2  11   48.20   18.40
   7  -2  11   51.59   21.90
   7  -2  11   48.90   23.60
  -7  -2 -11   60.49   20.30
   7  -2  11   64.09   26.20
   7   2  11   31.90   28.70
   7   2  11   57.69   22.40
   7   2  11   35.70   25.70
  -7   2 -11   37.60   16.50
  -7   2 -11   79.09   19.70
   7   2  11   50.29   20.90
  -8  -2 -11   23.90   13.70
   8  -2  11   47.60   24.00
   8  -2  11   49.40   21.90
  -8  -2 -11   45.40   17.40
  -8  -2 -11   25.30   19.60
   8  -2  11   15.40   20.60
   8  -2  11   40.20   24.90
   8   2  11   18.00   19.70
  -8   2 -11   34.20   15.10
   8   2  11   46.40   17.70
   8   2  11   36.60   28.10
   8   2  11   18.90   23.90
  -8   2 -11   20.10   16.00
   9  -2  11   69.69   20.20
   9  -2  11   93.79   21.10
  -9  -2 -11  106.29   40.20
  -9  -2 -11   92.89   16.40
   9  -2  11   85.79   21.90
  -9  -2 -11   93.89   15.40
   9   2  11  112.49   32.60
   9   2  11   80.69   18.60
  -9   2 -11  138.49   17.10
  -9   2 -11  113.49   18.60
  -9   2 -11  128.49   34.60
   9   2  11  135.29   21.60
  10  -2  11   35.80   25.40
 -10  -2 -11   54.89   13.80
  10  -2  11   51.99   15.90
  10  -2  11   33.30   15.90
 -10  -2 -11   34.40   12.60
  10   2  11   24.90   17.40
  10   2  11   61.99   27.20
 -10   2 -11   68.89   16.10
 -10   2 -11   69.59   16.00
  11  -3 -11   57.29   14.10
  11  -3 -11    7.60   31.60
  11  -3 -11   77.99   15.50
  11  -3 -11  100.39   21.50
 -11   3  11   52.69   16.80
  11   3 -11   66.09    9.60
  10  -3 -11   -0.80   23.30
 -10  -3  11  -40.20   21.50
  10  -3 -11   18.80   11.60
  10  -3 -11   14.60   20.70
 -10   3  11  -19.50   36.90
  10   3 -11   23.60    9.40
 -10   3  11    7.30   14.50
   9  -3 -11   66.69   32.90
   9  -3 -11   18.80   23.50
  -9  -3  11   77.69   27.00
   9  -3 -11   52.29   15.00
   9  -3 -11   71.09   27.20
  -9   3  11   61.09   17.50
   9   3 -11   54.89   10.40
  -9   3  11   56.39   32.40
   8  -3 -11   47.00   31.10
   8  -3 -11   27.60   24.30
   8  -3 -11    5.40   27.40
   8  -3 -11   28.00   14.90
   8   3 -11   40.20   13.20
  -8   3  11   35.30   29.60
  -8   3  11   36.60   20.80
   7  -3 -11   73.89   38.10
   7  -3 -11  110.49   18.30
   7  -3 -11   86.19   28.50
  -7  -3  11  100.39   16.30
   7  -3 -11   73.19   30.70
  -7   3  11   76.39   24.00
   7   3 -11   77.19   13.20
   7   3 -11   92.79   29.20
  -7   3  11   75.39   27.50
  -6  -3  11   24.20   13.40
   6  -3 -11   33.80   18.00
   6  -3 -11    9.50   25.70
   6  -3 -11    0.50   13.00
   6  -3 -11   43.50   38.60
   6  -3 -11   30.90   16.90
   6  -3 -11   24.90   27.80
   6   3 -11   20.40   11.20
  -6   3  11   27.30   24.00
   6   3 -11   52.99   27.70
   6   3 -11  -15.90   18.40
  -6   3  11    3.70   37.60
  -6   3  11   20.40   27.20
   5  -3 -11   92.79   20.50
   5  -3 -11   70.99   15.60
   5  -3 -11   80.09   27.50
   5  -3 -11  157.18   49.00
   5  -3 -11  109.09   32.30
   5  -3 -11   55.59   16.30
   5   3 -11  105.29   22.70
  -5   3  11   42.60   29.20
   5   3 -11   91.59   15.70
  -5   3  11   44.10   25.70
  -5   3  11   76.69   35.20
   5   3 -11  112.89   29.80
   4  -3 -11   75.19   30.90
   4  -3 -11  109.69   21.80
   4  -3 -11  150.98   29.10
   4  -3 -11   86.49   56.59
   4  -3 -11  150.78   25.10
   4  -3 -11  107.39   15.60
  -4  -3  11   79.39   13.60
   4   3 -11   95.39   30.80
   4   3 -11  110.69   23.40
  -4   3  11   86.79   21.50
  -4   3  11   28.40   31.40
   4   3 -11  111.59   16.20
  -4   3  11  154.18   31.20
  -4   3  11   90.59   27.20
   3  -3 -11  183.58   28.10
  -3  -3  11  146.09   31.30
   3  -3 -11  197.08   35.00
   3  -3 -11  187.48   31.40
   3  -3 -11  190.18   22.80
  -3  -3  11  255.97   38.10
  -3  -3  11  163.88   19.30
  -3   3  11  199.88   37.90
   3   3 -11  167.78   33.10
  -3   3  11  201.68   27.50
   3   3 -11  223.58   34.20
   3   3 -11  201.18   22.60
   3   3 -11  157.38   25.70
  -3   3  11  169.08   28.80
   2  -3 -11 1432.16   64.09
   2  -3 -11 1396.56   77.79
  -2  -3  11 1515.35   67.49
  -2  -3  11 1450.65   61.39
   2  -3 -11 1461.65   68.09
  -2  -3  11 1386.56   75.19
   2  -3 -11 1370.46   82.99
  -2   3  11 1437.56   85.99
   2   3 -11 1389.56   69.19
  -2   3  11 1426.76   75.19
  -2   3  11 1447.16   75.19
   2   3 -11 1469.05   76.69
   2   3 -11 1447.36   63.89
   2   3 -11 1569.94   72.09
  -2   3  11 1389.66   69.99
   2   3 -11 1429.16   68.49
  -2   3  11 1198.78   90.49
   1  -3 -11   -3.60   16.30
   1  -3 -11    5.30   12.50
   1  -3 -11  -13.40   29.40
  -1  -3  11  -32.90   25.60
   1  -3 -11   20.20   24.40
  -1  -3  11   -0.90   14.40
  -1  -3  11   52.29   21.60
  -1  -3  11    4.00    8.40
  -1   3  11    8.30   22.90
   1   3 -11   18.40   19.20
   1   3 -11   20.40   16.60
  -1   3  11    1.00   33.50
  -1   3  11   30.90   20.10
   1   3 -11    0.60   14.80
   1   3 -11  -23.60   30.30
  -1   3  11   -5.90   21.80
   1   3 -11    6.30   19.20
  -1   3  11  -10.40   29.80
   0  -3  11  535.75   71.49
   0  -3  11  651.63   36.40
   0  -3  11  623.64   31.30
   0  -3  11  687.33   48.40
   0  -3 -11  635.54   43.80
   0  -3  11  699.93   45.60
   0  -3 -11  650.73   60.59
   0  -3 -11  572.04   41.00
   0  -3 -11  516.85   50.79
   0  -3 -11  644.14   35.30
   0   3  11  624.34   46.00
   0   3 -11  530.95   39.80
   0   3  11  642.44   59.09
   0   3  11  513.15   47.80
   0   3 -11  634.84   45.70
   0   3 -11  589.64   53.69
   0   3 -11  565.84   40.90
   0   3  11  631.34   44.50
   1  -3  11   63.09   13.20
  -1  -3 -11   56.69   27.30
  -1  -3 -11   94.49   22.50
  -1  -3 -11   88.79   21.70
   1  -3  11   79.19   22.80
   1  -3  11   72.09   11.50
   1  -3  11   55.79   19.70
  -1  -3 -11  101.39   33.20
  -1  -3 -11   60.69   14.90
   1   3  11   61.99   31.20
   1   3  11   70.79   20.30
  -1   3 -11   57.09   19.20
  -1   3 -11   97.29   21.80
   1   3  11   60.79   31.50
  -1   3 -11   93.29   30.60
   1   3  11   76.79   22.70
   1   3  11   59.39   21.70
  -2  -3 -11   47.00   15.10
   2  -3  11   35.40   11.20
   2  -3  11   39.00   18.60
  -2  -3 -11    9.00   21.10
   2  -3  11   17.60   10.90
   2  -3  11   33.80   20.00
   2  -3  11   37.60   34.00
  -2   3 -11   -9.10   28.50
  -2   3 -11   43.00   18.20
   2   3  11   31.50   22.70
   2   3  11   -8.00   31.60
   2   3  11   24.40   20.60
  -2   3 -11   53.29   20.60
   2   3  11   16.50   18.90
   2   3  11  -25.60   30.80
   3  -3  11   18.80   10.50
  -3  -3 -11   15.70   19.20
   3  -3  11   20.50   13.20
   3  -3  11   14.90   18.80
   3  -3  11   23.60   17.60
   3  -3  11   33.80   34.20
  -3  -3 -11    4.50   20.60
   3   3  11   12.90   20.50
   3   3  11  -31.70   30.30
  -3   3 -11    8.90   17.70
  -3   3 -11   40.90   19.60
   3   3  11   -9.00   19.30
  -3   3 -11  -52.59   26.30
   3   3  11  -10.80   32.70
   3   3  11    6.10   20.00
  -4  -3 -11   24.80   22.20
   4  -3  11   58.69   33.90
   4  -3  11   19.00   13.80
   4  -3  11   20.80   10.50
   4  -3  11   78.59   50.69
   4  -3  11   16.10   19.20
  -4  -3 -11   34.10   15.50
   4  -3  11   26.90   17.60
  -4   3 -11   76.49   25.30
   4   3  11  -17.50   20.80
   4   3  11  -19.20   34.50
   4   3  11  -11.30   28.90
   4   3  11   40.60   20.50
   4   3  11   29.70   20.30
  -4   3 -11    5.80   18.20
  -4   3 -11   12.60   18.20
   5  -3  11  134.69   20.10
  -5  -3 -11  116.29   25.30
   5  -3  11   81.39   40.30
   5  -3  11  147.19   39.30
  -5  -3 -11  103.69   18.00
   5  -3  11  198.88   33.40
   5  -3  11  145.59   35.20
   5   3  11  122.49   32.80
   5   3  11  112.09   21.50
   5   3  11  105.79   22.60
  -5   3 -11  122.89   22.00
   5   3  11  183.68   58.59
  -5   3 -11   94.59   25.10
  -5   3 -11  169.98   24.40
   6  -3  11  726.73   63.89
   6  -3  11  871.91   65.59
  -6  -3 -11  719.53   50.19
   6  -3  11  660.93   55.19
   6   3  11  757.12   51.29
   6   3  11  757.62   53.69
   6   3  11  554.74   57.89
  -6   3 -11  661.03   47.50
  -6   3 -11  782.12   52.39
  -7  -3 -11   91.89   15.80
   7  -3  11   74.09   28.90
   7  -3  11   86.59   23.20
   7  -3  11  108.89   21.10
  -7  -3 -11   92.59   20.30
   7  -3  11   93.39   16.30
  -7   3 -11  113.19   22.60
   7   3  11  127.39   22.30
  -7   3 -11   93.49   16.10
   7   3  11   93.39   17.90
   7   3  11   68.49   28.40
  -8  -3 -11   47.70   13.60
   8  -3  11   27.50   19.10
   8  -3  11   51.19   17.00
   8  -3  11   63.19   16.30
   8  -3  11   50.29   22.70
  -8  -3 -11   51.99   16.30
  -8   3 -11   78.59   15.80
   8   3  11   25.50   28.40
   8   3  11   40.70   14.40
   8   3  11   44.50   17.20
   9  -3  11    0.00   25.40
   9  -3  11  -19.10   17.10
  -9  -3 -11    6.50   13.20
   9  -3  11   -2.80   16.00
  -9  -3 -11    7.60   12.20
   9   3  11   13.80   12.40
  -9   3 -11   19.90   11.20
   9   3  11   24.70   17.90
  -9   3 -11   34.80   19.80
   9  -4 -11  167.78   28.00
   9  -4 -11  139.59   26.70
   9  -4 -11  207.08   18.00
  -9   4  11  179.68   22.30
   9   4 -11  164.68   15.00
  -9   4  11  196.08   28.70
   8  -4 -11   36.60   21.00
   8  -4 -11   38.90   33.80
   8  -4 -11   47.50   11.90
  -8   4  11   37.90   18.80
  -8   4  11   44.00   30.80
   8   4 -11   55.19    9.30
   7  -4 -11   43.30   21.10
   7  -4 -11  102.79   21.80
   7  -4 -11   52.69   13.10
   7  -4 -11   42.70   38.90
   7   4 -11   82.69   11.70
  -7   4  11   57.99   25.40
  -7   4  11   47.10   19.90
   6  -4 -11  155.08   27.10
  -6  -4  11  146.59   24.00
   6  -4 -11  107.29   52.79
   6  -4 -11  126.29   17.30
   6  -4 -11  107.99   12.50
   6   4 -11  130.89   17.50
  -6   4  11  106.19   24.80
  -6   4  11  134.39   35.00
   5  -4 -11   62.49   11.90
   5  -4 -11   68.39   15.10
  -5  -4  11   85.09   13.80
   5  -4 -11   37.60   23.30
   5  -4 -11  108.49   18.10
   5   4 -11   72.49   12.90
  -5   4  11   81.99   30.70
   5   4 -11  107.09   22.60
  -5   4  11   98.39   24.50
   4  -4 -11  100.09   15.00
   4  -4 -11   98.29   30.30
   4  -4 -11  112.69   19.10
  -4  -4  11  142.69   20.10
   4  -4 -11  116.59   17.10
   4   4 -11  154.68   24.00
   4   4 -11   99.59   25.90
  -4   4  11  145.29   26.10
   3  -4 -11  214.68   33.30
   3  -4 -11  180.08   27.20
   3  -4 -11  187.58   23.20
  -3  -4  11  156.98   19.30
  -3  -4  11  108.99   21.30
   3  -4 -11  194.88   24.80
  -3   4  11  164.18   26.10
   3   4 -11  128.99   23.20
  -3   4  11  179.58   34.10
   3   4 -11  179.18   19.60
   2  -4 -11  148.89   25.10
   2  -4 -11  138.99   31.90
   2  -4 -11  123.49   21.40
  -2  -4  11  130.79   17.80
  -2  -4  11  143.69   17.80
  -2   4  11   90.39   29.80
  -2   4  11  126.69   20.80
   2   4 -11  153.18   24.10
  -2   4  11  134.69   23.90
   2   4 -11  141.19   23.60
   2   4 -11  145.39   20.10
  -1  -4  11  110.69   16.40
   1  -4 -11   96.69   31.00
  -1  -4  11  109.59   24.90
   1  -4 -11  101.19   15.40
  -1  -4  11  116.39   22.50
   1  -4 -11  137.29   19.00
  -1  -4  11  122.09   16.20
   1   4 -11  116.49   20.60
   1   4 -11  138.19   21.30
  -1   4  11  102.19   22.00
   1   4 -11  109.59   19.10
  -1   4  11   74.89   27.70
  -1   4  11  131.39   23.80
   1   4 -11  107.89   21.10
   0  -4 -11  256.17   30.60
   0  -4  11  313.67   21.80
   0  -4  11  303.37   25.00
   0  -4  11  300.27   44.10
   0  -4 -11  343.47   42.30
   0  -4 -11  339.37   26.60
   0  -4  11  383.16   36.70
   0   4 -11  309.77   29.30
   0   4 -11  274.37   31.90
   0   4  11  314.27   47.00
   0   4  11  329.67   37.50
   0   4  11  370.86   38.90
   0   4 -11  269.57   33.50
   0   4 -11  301.37   27.10
   0   4  11  372.96   35.30
  -1  -4 -11   17.00   12.70
   1  -4  11   27.00   19.30
  -1  -4 -11   -6.10   15.80
   1  -4  11   17.20   10.80
   1  -4  11    9.80    9.60
   1  -4  11   46.10   17.50
  -1  -4 -11   39.30   45.60
   1   4  11   15.90   17.90
   1   4  11    8.00   25.70
   1   4  11    7.80   18.10
  -1   4 -11   19.60   16.00
  -1   4 -11   18.20   14.60
   1   4  11   24.80   23.60
  -1   4 -11    5.10   18.00
  -1   4 -11   13.30   22.40
   2  -4  11   -2.30    8.70
  -2  -4 -11   14.10   36.80
   2  -4  11   25.30   10.60
   2  -4  11    2.20   27.80
  -2  -4 -11   15.80   18.70
  -2  -4 -11    4.60   13.00
   2   4  11  -40.90   24.90
  -2   4 -11   -1.30   17.10
   2   4  11    4.60   45.70
  -2   4 -11    0.40   29.80
   2   4  11   17.60   18.60
   3  -4  11  330.47   31.50
  -3  -4 -11  332.57   48.70
   3  -4  11  208.38   19.80
  -3  -4 -11  257.07   24.80
   3  -4  11  280.47   22.30
  -3  -4 -11  245.98   32.50
   3  -4  11  250.47   29.60
   3   4  11  297.07   51.09
   3   4  11  265.07   31.70
  -3   4 -11  315.77   32.00
  -3   4 -11  264.67   32.60
   4  -4  11   29.50   15.10
  -4  -4 -11   22.20   18.10
  -4  -4 -11   -3.30   12.10
   4  -4  11   18.20   13.50
   4  -4  11   -3.60   12.40
   4  -4  11   17.20    8.90
  -4   4 -11   20.70   16.50
   4   4  11    5.60   15.00
  -4   4 -11   19.50   14.70
   4   4  11   20.60   33.30
   4   4  11   15.90   15.30
  -5  -4 -11   37.10   13.30
   5  -4  11   53.09   10.20
   5  -4  11   43.30   13.30
   5  -4  11   58.79   15.20
  -5  -4 -11   83.29   18.30
   5   4  11   57.99   16.00
  -5   4 -11   71.59   16.60
  -5   4 -11   73.39   15.90
   5   4  11   61.49   14.70
   6  -4  11  294.97   23.90
  -6  -4 -11  316.17   31.00
   6  -4  11  331.87   28.30
  -6  -4 -11  266.87   23.80
   6   4  11  276.57   25.60
  -6   4 -11  263.07   26.00
   6   4  11  290.67   28.90
  -6   4 -11  321.27   29.20
   7  -4  11   66.19   14.50
  -7  -4 -11   34.20   12.70
   7  -4  11   66.39   43.50
   7  -4  11   48.10   14.20
  -7  -4 -11   47.50   15.70
   7   4  11   35.00   12.00
   7   4  11   34.00   14.00
  -7   4 -11   43.00   12.00
   8  -4  11    8.10   13.60
   8   4  11    8.80   10.90
  -8   4 -11    9.50   11.80
  -8   4 -11   23.30   11.30
   6  -5 -11   30.10   16.00
   6  -5 -11   81.49   16.30
   6  -5 -11   66.29   10.90
  -6   5  11   53.79   16.20
   6   5 -11   64.19    9.80
  -6   5  11   34.20   12.30
   5  -5 -11   57.29   14.70
   5  -5 -11   78.89    9.00
   5  -5 -11   87.39   19.30
   5  -5 -11   76.49   14.20
   5   5 -11   67.29    8.80
  -5   5  11   88.39   19.80
  -5   5  11   77.79   14.90
  -4  -5  11  288.67   29.60
   4  -5 -11  206.98   15.60
  -4  -5  11  200.38   20.60
   4  -5 -11  170.78   20.30
   4  -5 -11  211.68   31.90
   4  -5 -11  236.48   21.40
  -4   5  11  258.77   29.80
   4   5 -11  218.78   16.00
  -4   5  11  185.68   20.10
  -4   5  11  237.98   28.90
   3  -5 -11   80.99   20.80
   3  -5 -11   85.79   13.80
  -3  -5  11   49.80   24.60
   3  -5 -11   70.99   12.90
   3  -5 -11   59.29    9.00
  -3  -5  11   60.59   11.60
   3   5 -11   65.59   10.20
  -3   5  11   86.89   22.70
  -3   5  11   75.79   19.50
  -3   5  11   72.99   18.00
   2  -5 -11   40.30   22.60
   2  -5 -11   19.50   11.90
   2  -5 -11   35.30    8.80
   2  -5 -11   36.80   12.10
  -2  -5  11   30.40   10.30
  -2  -5  11   33.80   10.40
  -2   5  11   12.10   13.30
   2   5 -11   14.20    8.20
  -2   5  11   54.59   21.10
  -2   5  11   26.70   22.20
   1  -5 -11  118.59   15.30
  -1  -5  11  167.08   17.60
   1  -5 -11  116.09   17.70
   1  -5 -11  170.48   24.00
  -1  -5  11  113.39   17.50
   1  -5 -11  130.29   28.40
  -1  -5  11  180.18   27.50
  -1   5  11  148.69   25.70
   1   5 -11  161.28   33.40
   1   5 -11  123.39   15.40
  -1   5  11  146.09   26.20
   0  -5  11   39.70   20.90
   0  -5 -11   47.00   12.90
   0  -5  11   76.89   20.60
   0  -5 -11   60.99   13.00
   0  -5  11   47.30   10.70
   0  -5 -11   56.29   10.80
   0  -5  11   41.80    9.00
   0   5  11   43.70   14.30
   0   5 -11   72.29   28.40
   0   5 -11   46.80   10.60
   0   5  11   60.29   23.20
   0   5 -11   24.90   11.00
  -1  -5 -11   20.20   11.00
   1  -5  11   35.40   16.70
   1  -5  11   18.50    7.20
   1  -5  11   27.70   10.70
   1  -5  11   34.40   15.90
  -1  -5 -11   35.50   10.10
  -1  -5 -11   47.80   13.10
  -1   5 -11   29.20   12.60
   1   5  11   36.60   13.90
  -1   5 -11   22.60   10.80
  -1   5 -11  -29.60   27.00
   1   5  11   14.20   21.00
   2  -5  11   10.10    6.90
  -2  -5 -11   -5.70   10.90
  -2  -5 -11  -10.30   12.30
   2  -5  11   -0.20   15.10
   2  -5  11  -14.60   10.90
   2  -5  11    0.80   12.70
  -2  -5 -11   11.20    9.60
  -2   5 -11   15.00   10.80
   2   5  11   16.70   22.90
   2   5  11   19.80   13.30
  -2   5 -11   15.00   18.70
   3  -5  11   12.60    6.60
   3  -5  11    8.70   12.60
  -3  -5 -11   10.70   11.20
  -3  -5 -11   16.40   10.30
   3  -5  11   18.90   11.50
  -3   5 -11   33.90   11.50
  -3   5 -11   -2.10   16.10
   3   5  11   26.70   13.60
   4  -5  11  197.08   15.30
  -4  -5 -11  169.88   21.50
   4  -5  11  224.18   19.20
  -4  -5 -11  213.98   19.80
   4  -5  11  188.78   20.30
  -4   5 -11  253.67   37.20
  -4   5 -11  143.99   18.80
   4   5  11  234.18   23.00
  -4   5 -11  199.48   20.70
 -13   0  12  186.68   28.40
  13   0 -12  113.99   17.90
  13   0 -12  167.28   23.90
 -13   0  12  172.38   19.60
 -13   0  12  138.79   19.30
  12   0 -12   61.29   20.60
 -12   0  12   44.00   14.00
  12   0 -12   47.50   14.90
 -12   0  12   45.90   14.30
  11   0 -12  150.38   24.70
 -11   0  12  181.78   25.70
 -11   0  12  227.48   30.50
  11   0 -12  185.98   19.90
  11   0 -12  239.78   28.90
  11   0 -12  194.38   25.50
  10   0 -12   21.00   12.00
 -10   0  12   31.50   15.80
 -10   0  12   45.10   23.00
  10   0 -12   16.80   23.60
  10   0 -12   -2.10   27.50
 -10   0  12    8.30   29.20
  -9   0  12   85.69   22.80
   9   0 -12   71.19   15.20
   9   0 -12   87.19   27.10
  -9   0  12   59.99   16.60
  -9   0  12   76.99   21.20
   9   0 -12   71.49   23.40
   9   0 -12   63.59   24.10
   8   0 -12  370.46   27.60
  -8   0  12  410.06   37.10
   8   0 -12  370.36   42.00
   8   0 -12  246.08   42.50
  -8   0  12  374.46   53.79
  -8   0  12  350.66   29.30
  -8   0  12  292.67   39.30
   8   0 -12  355.86   38.50
   7   0 -12  194.58   28.90
  -7   0  12  166.58   24.10
  -7   0  12  135.49   22.90
   7   0 -12  148.29   26.90
   7   0 -12  147.09   27.10
   7   0 -12  140.99   22.60
  -7   0  12  208.58   37.20
  -6   0  12   38.40   13.50
  -6   0  12   29.30   20.50
   6   0 -12   44.70   14.80
  -6   0  12   72.39   27.50
   6   0 -12   -3.60   26.20
   6   0 -12   34.30   21.90
   6   0 -12   18.00   20.00
  -6   0  12   57.39   19.20
  -5   0  12   29.30   12.20
   5   0 -12   -0.20   20.10
  -5   0  12   10.50   18.50
   5   0 -12   16.70   23.30
   5   0 -12   10.70   21.60
  -5   0  12  -16.10   21.90
   5   0 -12   13.60   21.80
   5   0 -12    8.20   14.00
  -5   0  12   12.10   16.90
  -5   0  12   57.49   34.70
   4   0 -12  241.48   36.70
  -4   0  12  180.08   31.70
   4   0 -12  203.78   25.90
   4   0 -12  196.78   13.80
   4   0 -12  183.38   28.90
   4   0 -12  200.58   54.39
  -4   0  12  229.68   21.70
  -4   0  12  190.28   25.40
  -4   0  12  295.37   47.40
   4   0 -12  210.68   31.00
  -4   0  12  230.18   31.40
   4   0 -12  163.38   27.30
  -3   0  12  173.08   29.00
   3   0 -12  103.89   30.50
   3   0 -12  116.09   12.60
  -3   0  12  103.09   27.10
   3   0 -12   98.49   22.80
  -3   0  12  123.79   18.60
   3   0 -12  175.48   46.00
   3   0 -12  100.79   25.40
   3   0 -12  342.37   91.99
   3   0 -12  123.39   23.70
   3   0 -12  112.29   26.40
  -3   0  12   81.09   18.90
   2   0 -12  171.28   14.30
   2   0 -12  163.28   24.70
  -2   0  12  218.18   28.90
   2   0 -12   92.09   66.99
   2   0 -12  254.87   41.00
  -2   0  12  184.68   29.90
   2   0 -12  126.59   25.90
   2   0 -12  178.28   33.20
  -2   0  12  160.28   21.60
  -2   0  12  101.79   52.19
  -2   0  12  169.58   22.90
   1   0 -12  111.59   23.40
   1   0 -12   82.29   12.30
  -1   0  12  127.39   44.60
   1   0 -12   89.99   23.20
   1   0 -12   45.50   27.70
  -1   0  12   53.39   12.70
   1   0 -12  104.39   71.49
   1   0 -12   44.80   28.20
  -1   0  12   86.49   24.20
  -1   0  12   75.19   18.30
  -1   0  12   53.59   17.70
  -1   0  12   71.49   17.20
  -1   0  12   67.39   52.79
   0   0  12   43.20   22.90
   0   0 -12   38.20    8.20
   0   0 -12   44.60   22.80
   0   0 -12    5.70   29.50
   0   0  12   -2.20   33.90
   0   0 -12   33.60   20.80
   0   0  12    7.40   14.00
   0   0 -12   37.90   17.60
   0   0  12   85.39   35.60
   0   0  12   28.30   17.90
   0   0 -12   63.49   69.99
   0   0  12   19.60   16.60
   1   0  12  -29.70   22.30
   1   0  12   23.10   29.90
  -1   0 -12    4.90    8.20
   1   0  12   13.90   17.20
  -1   0 -12 -106.89   67.79
   1   0  12    5.80   13.80
  -1   0 -12  -27.00   14.50
   1   0  12    4.60   28.50
  -1   0 -12  -19.20   18.20
   1   0  12   25.00   18.10
  -1   0 -12   37.30   20.70
  -2   0 -12    3.90   19.20
   2   0  12   22.10   24.40
  -2   0 -12   64.79   34.70
   2   0  12  -33.70   22.40
  -2   0 -12    5.70   18.80
  -2   0 -12   12.70    9.80
   2   0  12  -42.60   57.99
   2   0  12   -0.80   15.00
   2   0  12   12.20   29.20
   2   0  12   11.30   17.10
   2   0  12  -20.10   23.90
  -2   0 -12   -0.30   14.10
  -3   0 -12  578.84   37.60
   3   0  12  500.85   40.10
  -3   0 -12  535.25   34.10
   3   0  12  556.94   47.90
  -3   0 -12  507.25   30.40
   3   0  12  523.55   35.20
  -3   0 -12  424.66   67.09
   3   0  12  517.25   47.60
   3   0  12  471.95   48.10
  -3   0 -12  496.05   40.80
   3   0  12  623.14   76.19
  -4   0 -12  263.57   27.10
  -4   0 -12  302.47   30.60
   4   0  12  267.67   39.40
  -4   0 -12  282.47   33.20
   4   0  12  297.77   42.60
   4   0  12  229.48   38.50
  -4   0 -12  268.47   25.70
   4   0  12  254.07   42.80
   5   0  12    8.90   24.30
   5   0  12   58.49   40.40
  -5   0 -12   15.60   17.00
   5   0  12   16.90   25.40
  -5   0 -12    2.50   18.00
   5   0  12    5.40   31.50
  -5   0 -12    7.30   16.50
  -5   0 -12    5.50   15.00
   6   0  12 1077.29   67.39
  -6   0 -12 1004.00   71.19
  -6   0 -12 1078.09   59.59
   6   0  12  915.11   69.79
  -6   0 -12 1095.29   53.59
  -6   0 -12 1096.09   57.19
   6   0  12 1054.89   63.19
   7   0  12  311.17   45.30
   7   0  12  273.07   36.50
   7   0  12  294.37   42.90
  -7   0 -12  293.07   35.00
  -7   0 -12  223.18   30.00
  -7   0 -12  261.47   32.70
  -7   0 -12  273.87   29.40
  -8   0 -12   27.40   16.10
   8   0  12   33.60   37.20
  -8   0 -12   15.80   24.90
  -9   0 -12    2.00   15.20
  -9   0 -12   19.10   12.40
   9   0  12   12.00   20.70
   9   0  12    8.20   16.30
  -9   0 -12   23.10   13.20
   9   0  12   25.50   25.30
  10   0  12   16.30   17.00
 -10   0 -12   48.80   10.80
  10   0  12   63.39   31.70
 -10   0 -12   47.40   12.30
  10   0  12   43.80   15.30
 -10   0 -12   53.69   16.30
  11   0  12   24.00   13.70
 -11   0 -12  -11.20    9.80
 -11   0 -12   -7.50    8.40
 -13  -1  12   16.60   12.40
  13  -1 -12   24.00   11.00
  13  -1 -12   25.40   14.40
 -13   1  12   38.30   11.10
 -13   1  12   27.40   11.70
  12  -1 -12  170.18   22.60
 -12  -1  12  154.48   25.60
  12  -1 -12  193.18   28.30
 -12  -1  12  179.38   21.50
  12  -1 -12  146.19   23.70
 -12   1  12  169.68   29.00
  12   1 -12  186.28   24.50
  12   1 -12  136.39   16.00
  12   1 -12  159.88   35.60
 -12   1  12  161.28   21.90
 -12   1  12  162.48   22.20
 -11  -1  12  192.98   26.30
  11  -1 -12  201.68   27.30
  11  -1 -12  224.58   35.00
 -11  -1  12  223.58   32.00
  11  -1 -12  212.98   35.20
 -11   1  12  223.68   29.80
 -11   1  12  188.38   27.00
  11   1 -12  190.78   30.00
  11   1 -12  234.88   19.80
  11   1 -12  281.97   40.60
  10  -1 -12   46.50   23.80
 -10  -1  12   -3.90   28.00
 -10  -1  12  -10.60   14.00
  10  -1 -12   14.40   22.80
 -10  -1  12   16.60   18.50
  10  -1 -12   41.10   24.00
  10   1 -12   -5.00   22.00
 -10   1  12    0.00   16.30
  10   1 -12    2.00   10.70
 -10   1  12  -31.40   17.70
 -10   1  12   25.30   17.20
  10   1 -12   12.60   19.10
  10   1 -12   16.40   25.20
  -9  -1  12  269.47   28.70
   9  -1 -12  250.57   22.80
  -9  -1  12  296.37   40.30
  -9  -1  12  246.78   31.50
   9  -1 -12  352.26   39.50
   9  -1 -12  266.57   36.60
   9  -1 -12  188.88   31.30
   9  -1 -12  236.18   37.00
  -9   1  12  354.26   51.29
  -9   1  12  289.27   32.30
  -9   1  12  230.58   36.60
   9   1 -12  320.77   35.90
  -9   1  12  322.57   34.30
   9   1 -12  211.08   30.20
   9   1 -12  280.87   24.40
   9   1 -12  318.27   44.80
   9   1 -12  270.17   31.10
  -8  -1  12  228.78   38.50
   8  -1 -12  337.67   40.90
   8  -1 -12  190.48   28.80
   8  -1 -12  222.58   24.00
   8  -1 -12  214.88   31.80
  -8  -1  12  274.57   37.10
   8  -1 -12  251.77   29.20
  -8  -1  12  296.87   43.40
   8   1 -12  262.87   30.70
  -8   1  12  239.88   35.70
   8   1 -12  282.77   42.90
   8   1 -12  199.68   31.20
   8   1 -12  217.38   22.90
   8   1 -12  206.48   29.60
  -8   1  12  281.17   37.00
  -7  -1  12  428.36   29.20
  -7  -1  12  367.46   40.90
  -7  -1  12  377.66   39.30
   7  -1 -12  331.17   46.20
   7  -1 -12  392.56   29.50
   7  -1 -12  420.26   44.60
   7  -1 -12  311.57   42.80
   7  -1 -12  375.56   41.90
   7   1 -12  390.76   39.80
  -7   1  12  425.46   37.20
  -7   1  12  524.85   61.79
   7   1 -12  468.45   48.70
   7   1 -12  383.36   43.10
   7   1 -12  416.56   28.70
  -7   1  12  359.76   31.70
  -7   1  12  324.87   39.10
  -6  -1  12  570.34   42.50
   6  -1 -12  595.84   47.00
   6  -1 -12  585.14   49.99
   6  -1 -12  586.84   34.10
   6  -1 -12  517.35   82.29
   6  -1 -12  492.25   47.20
  -6  -1  12  510.85   31.40
  -6  -1  12  540.45   42.70
   6  -1 -12  488.45   46.60
  -6   1  12  528.45   34.90
  -6   1  12  529.15   48.40
  -6   1  12  583.34   43.40
   6   1 -12  409.76   54.59
   6   1 -12  589.04   44.20
   6   1 -12  575.74   44.70
   6   1 -12  574.14   33.20
   6   1 -12  570.44   42.50
  -6   1  12  583.54   40.50
  -5  -1  12  763.82   38.30
  -5  -1  12  795.22   61.69
   5  -1 -12  745.93   74.29
   5  -1 -12  605.44   72.89
   5  -1 -12  780.52   34.80
  -5  -1  12  785.32   47.80
  -5  -1  12  731.23   63.69
   5  -1 -12  759.42   50.29
   5  -1 -12  831.82   73.59
   5  -1 -12  785.02   55.29
  -5  -1  12  784.72   46.10
   5  -1 -12  820.02   43.00
   5   1 -12  755.42   40.10
  -5   1  12  671.73   70.19
  -5   1  12  802.32   49.80
   5   1 -12  755.92   64.59
  -5   1  12  805.32   41.60
   5   1 -12  785.22   51.99
   5   1 -12  595.54   60.49
  -5   1  12  608.04   80.09
  -4  -1  12  415.96   34.60
  -4  -1  12  409.36   47.70
   4  -1 -12  403.06   22.90
  -4  -1  12  448.06   50.39
   4  -1 -12  433.56   44.80
  -4  -1  12  432.66   37.30
   4  -1 -12  431.46   63.09
   4  -1 -12  509.55   42.80
   4  -1 -12  430.26   52.39
   4  -1 -12  500.05   35.00
   4  -1 -12  443.46   43.00
  -4  -1  12  420.56   25.80
   4   1 -12  387.76   32.70
  -4   1  12  409.26   30.70
   4   1 -12  458.85   53.99
  -4   1  12  430.56   36.50
   4   1 -12  429.96   38.30
   4   1 -12  389.66   42.10
  -4   1  12  441.66   58.99
  -4   1  12  500.45   36.40
  -4   1  12  511.65   53.79
  -4   1  12  405.96   37.00
   4   1 -12  407.96   41.20
   3  -1 -12   75.59   27.00
   3  -1 -12  108.19   23.00
   3  -1 -12   94.49   13.40
   3  -1 -12  109.09   87.69
  -3  -1  12  124.99   26.40
  -3  -1  12  148.39   16.20
   3  -1 -12  105.69   22.10
   3  -1 -12  122.69   29.90
   3  -1 -12  132.39   34.00
  -3  -1  12   93.49   19.70
   3  -1 -12  146.59   24.90
   3   1 -12   93.99   20.30
  -3   1  12  126.09   19.10
  -3   1  12   92.09   37.10
  -3   1  12   91.19   32.40
   3   1 -12  116.39   20.80
  -3   1  12  108.89   19.80
   3   1 -12  126.19   23.80
   3   1 -12   95.59   35.60
  -3   1  12  125.59   21.90
   3   1 -12  129.49   25.30
  -3   1  12  104.59   19.80
  -2  -1  12  176.68   26.00
  -2  -1  12   79.79   12.00
   2  -1 -12  136.49   26.00
   2  -1 -12   52.99   73.39
   2  -1 -12   66.39   24.10
  -2  -1  12  163.48   26.80
   2  -1 -12  121.19   17.50
   2  -1 -12  117.19   13.80
   2  -1 -12  152.38   21.30
   2  -1 -12  113.39   30.90
  -2  -1  12   98.19   21.30
   2   1 -12  126.49   23.30
   2   1 -12  117.59   39.00
   2   1 -12  198.88   85.49
  -2   1  12   95.99   24.40
  -2   1  12   67.79   19.20
  -2   1  12  135.99   20.30
  -2   1  12  130.19   35.90
  -2   1  12  119.69   30.80
   2   1 -12  123.99   26.40
   2   1 -12   96.89   24.60
   2   1 -12   94.99   35.20
   1  -1 -12 1270.27   55.89
   1  -1 -12 1202.68   67.89
  -1  -1  12 1292.37   59.79
  -1  -1  12 1378.66   66.49
   1  -1 -12 1357.36   60.09
  -1  -1  12 1392.96   57.09
   1  -1 -12 1229.68  128.69
  -1  -1  12 1152.08   85.99
   1  -1 -12 1328.07   64.49
  -1  -1  12 1279.77   67.39
   1  -1 -12 1259.07   72.09
   1  -1 -12 1250.17   83.79
  -1   1  12 1350.16   72.99
   1   1 -12 1347.27   88.69
  -1   1  12 1253.07   70.09
   1   1 -12 1353.46   54.29
   1   1 -12 1221.38   69.99
  -1   1  12 1366.36   68.09
  -1   1  12 1357.16   73.89
   1   1 -12 1375.36   66.49
   1   1 -12 1572.44  124.39
  -1   1  12 1275.67   62.89
  -1   1  12 1361.46   66.09
   1   1 -12 1404.36   67.79
   0  -1 -12  102.09   16.20
   0  -1 -12   83.89   14.00
   0  -1 -12   96.69   75.79
   0  -1  12  108.59   33.00
   0  -1  12   96.49   15.80
   0  -1  12   80.99   15.00
   0  -1 -12  128.89   42.80
   0  -1  12   95.49   56.39
   0  -1  12   66.49   18.40
   0  -1 -12  121.69   20.80
   0  -1  12   69.39   19.60
   0  -1 -12   41.80   23.70
   0   1 -12   34.90   92.29
   0   1 -12   73.99   10.90
   0   1 -12  121.29   61.89
   0   1  12  114.29   21.90
   0   1  12   75.39   16.40
   0   1  12   80.69   39.80
   0   1  12  104.19   26.80
   0   1  12  126.39   31.10
   0   1 -12  139.09   30.00
   0   1  12  126.29   28.20
   0   1 -12  111.39   20.10
   0   1 -12   74.39   23.90
  -1  -1 -12  139.99   25.10
   1  -1  12  100.39   16.80
   1  -1  12  110.89   22.20
   1  -1  12   42.60   18.90
  -1  -1 -12   84.69   20.90
   1  -1  12  119.19   27.60
  -1  -1 -12   85.59   15.00
   1  -1  12   74.19   41.60
   1  -1  12  100.89   15.40
   1   1  12   44.30   48.90
   1   1  12  128.89   30.50
  -1   1 -12   81.79   12.20
   1   1  12   97.99   23.70
  -1   1 -12  128.69   27.00
  -1   1 -12  149.59  104.69
   1   1  12  100.99   33.50
   1   1  12  124.59   30.50
  -1   1 -12  111.19   25.40
   1   1  12  106.49   25.60
  -1   1 -12   83.19   20.30
  -2  -1 -12   77.09   12.70
   2  -1  12   70.89   37.80
  -2  -1 -12   86.69   15.30
   2  -1  12  127.99   21.60
  -2  -1 -12   66.19   20.80
   2  -1  12   59.19   18.10
  -2  -1 -12   90.09   22.20
   2  -1  12   77.39   14.10
   2  -1  12   59.69   19.10
   2  -1  12   82.69   25.30
  -2   1 -12   46.80   22.00
  -2   1 -12   61.19   27.10
   2   1  12  124.49   27.10
   2   1  12   91.69   24.50
   2   1  12   87.89   33.50
   2   1  12    2.80   41.50
  -2   1 -12   66.89   20.80
  -2   1 -12   59.99   28.40
   2   1  12   88.59   29.80
   2   1  12  100.79   33.20
  -2   1 -12   73.39   12.70
   3  -1  12  491.55   85.39
   3  -1  12  495.05   59.79
   3  -1  12  531.85   33.70
  -3  -1 -12  476.75   40.60
   3  -1  12  509.35   54.69
  -3  -1 -12  560.14   32.80
   3  -1  12  560.94   41.00
  -3  -1 -12  511.45   34.00
  -3   1 -12  534.15   41.30
  -3   1 -12  547.45   41.40
   3   1  12  527.65   51.49
  -3   1 -12  555.94   32.00
   3   1  12  396.76   64.49
  -3   1 -12  639.44   48.60
   3   1  12  534.45   60.69
   4  -1  12  251.07   36.10
   4  -1  12  235.48   34.10
  -4  -1 -12  235.38   25.80
   4  -1  12  186.18   32.30
   4  -1  12  234.88   41.10
   4  -1  12  174.68   40.00
   4  -1  12  212.28   29.50
  -4  -1 -12  191.78   26.10
  -4  -1 -12  223.18   33.50
  -4  -1 -12  197.18   27.00
  -4   1 -12  224.18   25.60
  -4   1 -12  248.88   34.20
   4   1  12  190.28   38.20
  -4   1 -12  197.88   33.80
   4   1  12  233.38   40.00
  -4   1 -12  148.39   23.10
   4   1  12  239.18   31.90
  -4   1 -12  260.07   40.40
   4   1  12  196.48   35.10
   4   1  12  238.78   35.50
  -5  -1 -12  120.89   22.70
  -5  -1 -12  156.38   26.10
  -5  -1 -12  110.39   21.10
   5  -1  12   99.69   25.60
   5  -1  12   89.29   20.00
   5  -1  12  126.39   34.10
   5  -1  12   87.89   30.90
   5  -1  12  139.39   26.10
  -5  -1 -12  123.39   18.00
   5  -1  12  108.99   28.60
  -5   1 -12  109.19   20.10
   5   1  12  148.29   28.80
   5   1  12  169.18   45.70
  -5   1 -12  113.69   19.20
  -5   1 -12  164.38   27.30
   5   1  12   98.79   22.40
  -5   1 -12  182.98   27.70
   5   1  12  105.69   32.40
   5   1  12  154.18   33.80
  -6  -1 -12  115.09   19.70
   6  -1  12  110.69   22.10
   6  -1  12   71.29   29.40
  -6  -1 -12  144.39   23.50
  -6  -1 -12   93.69   29.70
   6  -1  12  152.98   29.20
  -6  -1 -12   86.69   17.80
   6  -1  12   86.19   23.90
   6   1  12   63.49   28.50
  -6   1 -12   89.99   23.20
  -6   1 -12  119.59   18.50
  -6   1 -12   67.79   23.20
   6   1  12   95.69   22.00
  -6   1 -12  112.59   38.30
  -6   1 -12  101.59   20.20
   6   1  12   69.59   34.40
   6   1  12  112.79   30.10
  -6   1 -12  135.39   25.20
   6   1  12  110.19   27.50
   7  -1  12   96.59   25.90
  -7  -1 -12   99.69   21.30
   7  -1  12   96.39   27.60
  -7  -1 -12   85.09   18.30
   7  -1  12   93.59   25.50
  -7  -1 -12  106.29   17.60
   7   1  12   72.29   29.10
  -7   1 -12   65.49   22.30
  -7   1 -12   76.19   18.50
  -7   1 -12  115.59   22.90
  -7   1 -12  142.79   53.49
   7   1  12  108.49   20.80
  -7   1 -12   88.09   17.10
   7   1  12   89.59   27.90
   7   1  12   75.39   30.20
  -7   1 -12   91.29   28.60
   7   1  12  135.59   26.10
  -8  -1 -12   58.79   17.00
   8  -1  12   71.39   23.60
  -8  -1 -12   74.39   14.90
   8  -1  12   55.19   22.30
  -8  -1 -12   84.69   16.70
   8  -1  12   40.70   24.20
  -8   1 -12   85.69   22.80
   8   1  12   69.79   26.60
  -8   1 -12   49.00   14.10
   8   1  12   41.80   23.80
   8   1  12   41.20   23.20
  -8   1 -12   61.19   16.30
   8   1  12   77.59   27.90
   8   1  12   68.19   18.40
  -8   1 -12   57.59   21.30
   9  -1  12   44.30   17.70
  -9  -1 -12   29.10   13.40
   9  -1  12   -1.70   18.60
  -9  -1 -12   18.20   12.80
  -9  -1 -12   36.30   14.30
   9   1  12   40.40   20.70
   9   1  12   37.30   18.00
  -9   1 -12   41.00   14.50
   9   1  12   35.30   25.90
  -9   1 -12   18.70   27.30
   9   1  12    9.40   25.90
   9   1  12   37.00   25.40
  -9   1 -12   31.70   11.80
  -9   1 -12   24.80   20.00
 -10  -1 -12  194.98   22.40
  10  -1  12  185.28   28.40
 -10  -1 -12  181.68   22.80
  10  -1  12  215.58   23.90
 -10  -1 -12  203.38   21.10
  10   1  12  215.48   29.70
 -10   1 -12  215.28   34.10
 -10   1 -12  216.78   18.50
  10   1  12  137.59   26.60
  11  -1  12   59.99   14.90
 -11  -1 -12  113.19   14.80
 -11   1 -12   82.29   12.60
  12  -2 -12   63.19   14.90
  12  -2 -12   66.99   16.30
  12  -2 -12   97.49   14.30
  12  -2 -12   84.59   19.30
 -12  -2  12   81.09   19.80
 -12   2  12   61.39   13.20
  12   2 -12   83.09   11.80
  11  -2 -12   42.30   19.10
  11  -2 -12   44.20   15.50
 -11  -2  12   63.89   15.60
 -11  -2  12   86.59   34.00
  11  -2 -12   32.30   18.20
 -11   2  12   39.90   14.90
  11   2 -12   32.60    8.90
  10  -2 -12  179.28   28.10
  10  -2 -12  190.28   27.20
 -10  -2  12  189.78   25.90
  10  -2 -12  140.69   23.80
 -10  -2  12  158.88   24.10
 -10   2  12  165.08   21.70
  10   2 -12  160.88   18.30
 -10   2  12  167.48   26.50
  -9  -2  12   17.00   25.10
   9  -2 -12    7.60   24.60
   9  -2 -12    7.80   39.80
  -9  -2  12    2.60   15.10
   9  -2 -12    9.10   16.60
  -9   2  12   20.60   28.40
   9   2 -12    8.50   19.20
  -9   2  12   75.39   47.00
   9   2 -12   23.30   17.40
  -9   2  12  -16.30   15.00
  -9   2  12   -8.90   17.40
   8  -2 -12   39.80   21.80
  -8  -2  12   79.59   25.10
   8  -2 -12   32.00   26.30
   8  -2 -12  114.69   39.50
   8  -2 -12   83.69   18.90
  -8  -2  12   53.99   15.50
  -8   2  12   71.29   37.40
   8   2 -12   65.79   13.80
  -8   2  12   91.89   18.60
  -8   2  12   44.50   37.10
   8   2 -12   86.49   23.00
  -8   2  12   76.69   26.30
  -8   2  12   76.19   21.50
   7  -2 -12  121.09   35.70
  -7  -2  12   77.89   15.00
   7  -2 -12   91.19   32.00
   7  -2 -12  128.69   20.40
  -7  -2  12   52.09   25.90
   7  -2 -12   71.89   24.20
  -7   2  12   83.19   24.30
  -7   2  12   45.20   30.30
  -7   2  12   96.69   38.10
  -7   2  12   99.59   26.60
   7   2 -12   80.59   23.60
  -7   2  12   95.69   19.90
   7   2 -12   83.49   15.10
   6  -2 -12  117.59   25.50
   6  -2 -12  122.59   33.40
   6  -2 -12  232.28   39.80
  -6  -2  12  143.79   23.70
   6  -2 -12  210.98   33.10
  -6  -2  12  242.78   42.10
   6  -2 -12  138.09   16.00
  -6  -2  12  177.88   20.30
  -6   2  12  110.99   36.30
   6   2 -12  208.68   23.30
   6   2 -12  165.18   27.30
  -6   2  12  161.88   28.70
   6   2 -12  183.88   27.10
   6   2 -12  124.09   22.60
  -6   2  12   46.00   42.00
  -6   2  12  166.28   23.20
  -5  -2  12  387.06   41.40
   5  -2 -12  390.36   26.00
   5  -2 -12  413.76   57.19
   5  -2 -12  345.27   55.99
  -5  -2  12  380.76   25.30
   5  -2 -12  369.96   42.50
   5  -2 -12  393.96   35.20
  -5  -2  12  445.06   40.10
   5  -2 -12  362.56   37.30
  -5   2  12  353.56   62.69
  -5   2  12  372.26   42.00
   5   2 -12  367.06   36.90
   5   2 -12  334.57   37.10
  -5   2  12  383.26   55.59
   5   2 -12  355.56   28.30
  -5   2  12  425.96   41.20
  -5   2  12  369.46   42.40
   5   2 -12  343.27   40.50
   4  -2 -12   63.69   16.90
  -4  -2  12   63.69   12.00
  -4  -2  12   70.09   19.00
  -4  -2  12   49.40   22.90
   4  -2 -12  126.79   37.80
   4  -2 -12   74.69   16.90
   4  -2 -12   82.29   24.70
   4  -2 -12   74.69   31.30
   4  -2 -12   65.39   12.30
  -4   2  12   66.29   20.40
   4   2 -12  104.89   16.10
  -4   2  12   48.20   23.80
  -4   2  12   63.49   32.10
   4   2 -12   64.39   21.30
   4   2 -12   36.10   21.80
   4   2 -12   81.09   22.00
  -4   2  12   72.39   33.70
   3  -2 -12   22.20   10.40
   3  -2 -12   31.50   22.50
   3  -2 -12    0.60   28.00
   3  -2 -12   23.20   13.90
   3  -2 -12   16.90   16.00
  -3  -2  12   -5.30    9.50
  -3  -2  12   12.00   37.70
  -3  -2  12   28.70   17.60
   3  -2 -12    5.70   38.60
  -3  -2  12    7.00   27.50
  -3   2  12   44.90   27.90
   3   2 -12    3.90   17.40
  -3   2  12   -5.90   30.00
   3   2 -12    3.20   24.00
  -3   2  12  -15.20   17.60
   2  -2 -12  331.27   25.80
  -2  -2  12  323.07   22.80
   2  -2 -12  361.56   23.80
  -2  -2  12  456.35   57.89
   2  -2 -12  300.77   48.70
  -2  -2  12  343.87   30.60
  -2  -2  12  295.17   37.20
   2  -2 -12  290.17   43.50
   2   2 -12  283.97   35.20
  -2   2  12  331.37   31.10
  -2   2  12  299.47   34.40
  -2   2  12  221.88   43.40
   2   2 -12  254.67   42.10
   2   2 -12  310.67   31.80
  -1  -2  12  117.39   22.70
   1  -2 -12  129.99   38.80
   1  -2 -12  146.99   19.30
  -1  -2  12  143.09   24.50
   1  -2 -12   86.99   25.60
  -1  -2  12   76.79   30.90
  -1  -2  12  161.28   16.90
  -1  -2  12  111.19   31.10
   1  -2 -12  170.88   21.20
   1  -2 -12  139.19   22.20
   1   2 -12  123.99   23.30
   1   2 -12  113.49   26.10
  -1   2  12  224.48   30.10
  -1   2  12  118.59   39.30
   1   2 -12  115.39   31.30
  -1   2  12  151.48   40.90
  -1   2  12  120.09   36.60
  -1   2  12  148.49   31.70
   1   2 -12  118.29   32.90
   1   2 -12  134.09   21.50
  -1   2  12  135.49   26.70
   0  -2  12  741.53   35.10
   0  -2  12  732.13   54.09
   0  -2 -12  722.93   38.20
   0  -2 -12  709.83   36.80
   0  -2  12  709.03   54.89
   0  -2 -12  504.05   69.59
   0  -2  12  660.43   63.49
   0   2  12  715.73   63.89
   0   2 -12  671.23   46.00
   0   2 -12  693.23   46.10
  -1  -2 -12   40.30   14.10
   1  -2  12   35.40   13.20
   1  -2  12   89.79   27.20
   1  -2  12   52.19   11.70
  -1  -2 -12   44.60   13.50
   1  -2  12   45.10   19.10
  -1  -2 -12   67.49   18.90
  -1   2 -12   40.20   20.60
   1   2  12   28.50   19.40
  -1   2 -12   59.59   22.00
   1   2  12   45.20   33.10
   1   2  12   56.19   20.90
   1   2  12   32.90   28.70
   2  -2  12 1105.19   50.99
   2  -2  12 1233.08   63.19
  -2  -2 -12 1223.38   62.19
   2  -2  12 1036.40   58.69
  -2  -2 -12 1136.69   54.09
  -2  -2 -12 1077.99   53.99
   2  -2  12 1284.37   67.39
   2  -2  12 1025.60   49.80
   2   2  12  948.61   72.29
  -2   2 -12 1135.99   59.49
   2   2  12 1142.69   75.29
   2   2  12 1089.79   60.69
  -2   2 -12 1074.99   61.19
  -2   2 -12 1094.59   60.19
   2   2  12 1137.69   62.29
   3  -2  12 1630.64   70.19
  -3  -2 -12 1666.43   74.99
   3  -2  12 1619.44   77.99
   3  -2  12 1783.72   81.29
   3  -2  12 1672.23  100.29
   3  -2  12 1798.42  103.99
   3  -2  12 1699.93   70.89
  -3  -2 -12 1718.43   74.49
  -3  -2 -12 1659.33   81.29
  -3   2 -12 1726.23   72.39
  -3   2 -12 1681.03   80.59
   3   2  12 1598.04   79.69
  -3   2 -12 1578.64   80.19
   3   2  12 1670.53   80.49
   3   2  12 1628.14   92.59
   3   2  12 1590.04   89.19
  -3   2 -12 1676.13   78.39
   3   2  12 1473.55   90.39
  -4  -2 -12   77.09   16.30
   4  -2  12   76.19   19.10
  -4  -2 -12   41.60   23.10
   4  -2  12   53.39   13.20
   4  -2  12   80.49   18.90
   4  -2  12   93.59   38.80
  -4  -2 -12  112.39   23.80
   4  -2  12   69.49   27.20
   4  -2  12  142.99   40.00
   4  -2  12   89.49   23.90
   4   2  12   25.00   31.10
  -4   2 -12   94.79   19.20
   4   2  12   83.99   23.00
   4   2  12   71.59   21.60
   4   2  12   42.90   35.50
  -4   2 -12   90.59   22.20
   4   2  12   57.49   28.70
  -4   2 -12   56.09   20.60
   5  -2  12  169.38   34.10
   5  -2  12  188.28   36.80
   5  -2  12  264.07   33.00
   5  -2  12  223.08   31.70
   5  -2  12  202.38   34.40
   5  -2  12  187.28   29.50
  -5  -2 -12  158.18   26.30
  -5  -2 -12  157.38   24.10
  -5  -2 -12  176.88   31.20
   5  -2  12  193.88   26.40
   5   2  12  218.58   47.30
  -5   2 -12  198.48   25.30
   5   2  12  271.97   36.50
  -5   2 -12  241.08   30.60
   5   2  12  164.68   23.00
   5   2  12  148.89   33.60
   5   2  12  137.39   32.40
   5   2  12  250.47   45.40
   6  -2  12   98.09   29.10
  -6  -2 -12   90.49   22.70
  -6  -2 -12   85.59   17.60
  -6  -2 -12  123.29   29.10
   6  -2  12  124.89   25.10
   6  -2  12  121.89   30.10
   6  -2  12   77.59   18.20
   6   2  12   78.69   30.20
  -6   2 -12  113.69   21.00
  -6   2 -12  114.49   20.00
   6   2  12   59.19   28.30
   6   2  12  135.29   26.90
   6   2  12  121.89   20.10
   6   2  12  161.48   24.00
  -6   2 -12   58.49   33.30
  -7  -2 -12   42.90   15.20
   7  -2  12   34.00   18.50
   7  -2  12   28.00   23.40
   7  -2  12   25.80   26.60
  -7  -2 -12   21.80   17.90
  -7  -2 -12   24.70   23.90
   7  -2  12   40.70   21.10
   7   2  12   52.69   20.00
   7   2  12   27.30   22.70
   7   2  12   23.90   18.30
  -7   2 -12   33.60   16.80
  -7   2 -12   32.50   16.10
   7   2  12    3.70   25.50
  -8  -2 -12    9.50   15.10
   8  -2  12   14.00   20.20
  -8  -2 -12   17.00   13.50
   8  -2  12    2.90   18.80
   8  -2  12   -1.80   20.30
   8   2  12   20.60   20.80
   8   2  12   14.90   17.00
  -8   2 -12   38.10   27.10
  -8   2 -12    8.30   14.40
   8   2  12    6.70   24.40
  -8   2 -12   11.70   15.60
   9  -2  12   83.69   19.30
   9  -2  12   88.19   18.60
   9  -2  12   51.69   17.60
  -9  -2 -12   84.69   14.10
  -9  -2 -12   67.89   13.60
  -9   2 -12   67.99   30.50
   9   2  12   71.79   20.30
  -9   2 -12   67.79   15.60
  -9   2 -12   57.79   13.30
   9   2  12   45.10   40.70
   9   2  12  104.09   17.80
 -10  -2 -12  279.77   20.60
  10  -2  12  294.97   24.20
  10  -2  12  239.08   27.60
  10   2  12  240.18   31.00
  10   2  12  357.06   47.00
 -10   2 -12  226.98   26.10
 -10   2 -12  265.37   20.20
  11  -3 -12  113.79   18.20
  11  -3 -12   90.79   14.00
  11  -3 -12  112.29   17.40
  11   3 -12  114.39   12.30
 -11   3  12  108.99   15.70
  10  -3 -12   74.99   22.70
  10  -3 -12   60.49   13.60
  10  -3 -12   79.59   20.90
 -10   3  12   85.59   16.40
  10   3 -12   92.69   13.50
 -10   3  12  104.39   39.50
  -9  -3  12   96.99   18.90
   9  -3 -12  102.09   25.40
   9  -3 -12   51.19   22.10
   9  -3 -12   78.09   14.20
  -9   3  12   41.20   31.50
   9   3 -12   63.19   10.20
  -9   3  12  106.19   19.60
   8  -3 -12   91.39   16.30
   8  -3 -12   78.89   28.10
   8  -3 -12  112.59   30.60
   8  -3 -12  137.59   25.80
  -8   3  12  107.59   20.40
   8   3 -12  139.69   17.70
  -8   3  12  165.68   33.20
   7  -3 -12  281.57   37.10
  -7  -3  12  248.98   25.40
   7  -3 -12  290.27   47.50
   7  -3 -12  207.78   30.90
   7  -3 -12  273.77   41.70
   7   3 -12  232.68   26.40
   7   3 -12  255.97   30.20
  -7   3  12  266.67   37.80
   6  -3 -12   36.10   20.80
   6  -3 -12   12.30   16.60
   6  -3 -12   11.00   22.40
   6  -3 -12   37.50   36.60
  -6  -3  12   23.40   12.60
   6  -3 -12   36.80   27.00
   6  -3 -12   -8.50   13.70
  -6   3  12    5.10   24.90
   6   3 -12   -3.40   19.10
   6   3 -12   -6.70   24.90
   6   3 -12   18.70   12.00
  -6   3  12    3.00   24.50
  -6   3  12  -20.30   34.80
  -5  -3  12  159.48   19.90
   5  -3 -12  146.89   33.20
   5  -3 -12  154.88   28.40
   5  -3 -12  188.48   28.40
   5  -3 -12  202.48   46.60
   5  -3 -12  188.78   23.30
  -5  -3  12  150.08   22.70
   5  -3 -12  208.88   32.20
   5  -3 -12  151.28   24.30
   5   3 -12  170.88   21.70
   5   3 -12  187.28   25.30
  -5   3  12  194.18   39.60
   5   3 -12  196.58   29.50
  -5   3  12  118.89   29.60
   4  -3 -12  194.68   31.50
   4  -3 -12  294.67   27.40
  -4  -3  12  310.97   23.40
   4  -3 -12  303.67   29.40
  -4  -3  12  294.37   33.50
  -4  -3  12  288.67   44.70
   4  -3 -12  279.27   29.50
   4  -3 -12  268.77   40.80
   4  -3 -12  318.57   58.09
   4  -3 -12  229.08   34.90
  -4   3  12  336.27   39.00
  -4   3  12  189.48   34.90
   4   3 -12  225.68   40.90
   4   3 -12  240.58   31.80
   4   3 -12  231.58   35.70
   4   3 -12  270.17   24.40
  -4   3  12  274.57   45.50
   3  -3 -12  273.67   47.60
  -3  -3  12  215.18   32.40
   3  -3 -12  297.67   33.20
   3  -3 -12  351.96   26.00
   3  -3 -12  266.97   41.40
   3  -3 -12  290.57   28.90
  -3  -3  12  309.07   22.10
  -3  -3  12  258.07   43.70
   3   3 -12  301.57   25.50
   3   3 -12  213.58   31.00
   3   3 -12  296.67   36.00
   3   3 -12  318.27   36.50
  -3   3  12  316.77   42.00
  -3   3  12  297.97   41.90
  -3   3  12  260.87   40.00
   2  -3 -12   51.59   13.50
  -2  -3  12   59.89   15.30
   2  -3 -12   20.70   23.90
   2  -3 -12   30.70   27.30
   2  -3 -12   46.40   16.80
  -2  -3  12   28.80   20.80
  -2  -3  12   42.50   11.30
   2  -3 -12   48.80   16.70
   2   3 -12   39.60   14.40
   2   3 -12   66.29   26.90
   2   3 -12   22.30   17.90
   2   3 -12   88.39   18.50
  -2   3  12   27.80   23.20
   2   3 -12   52.09   20.50
  -2   3  12   15.90   22.70
  -2   3  12   44.70   35.80
  -2   3  12   34.80   30.30
   1  -3 -12 1193.58   56.99
  -1  -3  12 1249.77   70.59
   1  -3 -12 1245.28   60.19
   1  -3 -12 1148.69   75.19
   1  -3 -12 1267.27   61.29
  -1  -3  12 1339.57  150.98
   1  -3 -12 1230.98   68.39
  -1  -3  12 1143.89   63.79
  -1  -3  12 1356.66   57.79
  -1  -3  12 1234.78   54.29
  -1   3  12 1173.08   68.89
  -1   3  12 1221.88   67.59
   1   3 -12 1095.29   69.79
   1   3 -12 1207.68   62.39
  -1   3  12 1301.97   78.99
   1   3 -12 1211.68   61.39
   1   3 -12 1243.18   64.29
   1   3 -12 1207.98   57.49
  -1   3  12 1294.47   64.59
   0  -3  12  857.81   51.59
   0  -3 -12  845.52   55.49
   0  -3 -12  767.92   48.20
   0  -3 -12  873.21   65.69
   0  -3  12  710.43   81.29
   0  -3 -12  746.93   49.40
   0  -3  12  834.52   42.60
   0  -3  12  884.41   40.70
   0  -3 -12  840.72   43.50
   0  -3  12  865.41   54.29
   0   3 -12  876.51   47.90
   0   3  12  835.72   64.69
   0   3  12  823.52   51.69
   0   3 -12  891.91   50.09
   0   3 -12  867.91   51.59
   0   3  12  848.32   53.99
   0   3  12  814.42   56.49
   0   3 -12  853.71   48.20
   0   3 -12  838.02   57.19
   1  -3  12  779.62   79.79
   1  -3  12  828.82   40.30
  -1  -3 -12  752.42   50.89
   1  -3  12  823.12   48.20
   1  -3  12  782.62   50.99
  -1  -3 -12  778.02   48.10
  -1  -3 -12  766.02   55.29
  -1  -3 -12  805.62   64.19
  -1  -3 -12  809.42   42.30
   1  -3  12  786.32   38.10
  -1   3 -12  768.82   55.49
   1   3  12  748.43   49.80
  -1   3 -12  797.22   49.90
   1   3  12  779.82   54.09
  -1   3 -12  749.73   45.60
   1   3  12  787.22   63.29
   1   3  12  766.52   50.39
  -2  -3 -12  131.09   33.80
   2  -3  12  130.59   24.50
  -2  -3 -12  152.18   27.50
   2  -3  12  135.99   19.60
  -2  -3 -12  112.89   17.50
   2  -3  12  178.18   28.50
   2  -3  12  129.69   18.90
   2  -3  12  194.88   42.80
  -2  -3 -12  113.99   21.30
   2   3  12  176.38   24.20
  -2   3 -12   96.39   19.50
   2   3  12  101.99   30.60
   2   3  12  104.09   31.90
  -2   3 -12  133.99   21.50
   2   3  12  133.89   22.70
   2   3  12  119.99   24.00
  -2   3 -12  103.49   27.80
   3  -3  12  111.79   14.10
   3  -3  12  157.68   27.70
   3  -3  12  113.89   15.80
  -3  -3 -12  109.09   17.80
   3  -3  12  108.39   21.30
  -3  -3 -12  112.39   20.40
   3  -3  12   72.39   39.50
   3   3  12   61.49   33.30
   3   3  12   96.99   23.00
   3   3  12   91.99   32.50
  -3   3 -12  100.09   20.70
   3   3  12  111.59   22.20
  -3   3 -12  135.29   26.60
   3   3  12   91.09   20.90
  -3   3 -12   94.19   19.30
   4  -3  12  398.06   36.40
   4  -3  12  298.67   28.20
   4  -3  12  337.67   23.80
  -4  -3 -12  321.87   27.70
   4  -3  12  386.86   32.90
   4  -3  12  493.15   75.99
  -4  -3 -12  312.77   37.00
  -4   3 -12  294.97   36.90
   4   3  12  367.56   39.20
   4   3  12  356.66   36.60
  -4   3 -12  283.77   32.00
  -4   3 -12  299.97   40.40
   4   3  12  256.97   41.00
   4   3  12  370.36   41.10
  -5  -3 -12   81.09   15.50
   5  -3  12   84.39   14.30
   5  -3  12   37.50   39.10
  -5  -3 -12   78.99   19.40
   5   3  12  103.09   23.00
  -5   3 -12  157.08   24.70
  -5   3 -12  110.89   23.60
   5   3  12  101.09   45.10
  -6  -3 -12   90.69   19.50
   6  -3  12   72.09   15.20
   6  -3  12   46.30   29.00
   6  -3  12   94.69   19.60
  -6  -3 -12   90.79   15.00
   6  -3  12   35.20   32.10
   6   3  12   83.29   19.90
  -6   3 -12   97.79   17.10
   6   3  12   31.40   24.30
   6   3  12   81.39   16.60
  -6   3 -12  102.19   22.60
   7  -3  12   -5.40   21.90
  -7  -3 -12    1.90   11.70
  -7  -3 -12   13.10   14.70
   7  -3  12   34.70   14.00
   7  -3  12    7.20   14.80
   7  -3  12  -12.10   24.50
  -7   3 -12   12.10   12.00
   7   3  12  -11.70   23.20
   7   3  12   11.90   14.00
  -7   3 -12   59.79   21.20
   7   3  12   16.20   16.80
  -8  -3 -12   -1.60   17.70
   8  -3  12  -30.70   20.90
   8  -3  12  -30.00   19.50
   8  -3  12  -14.40   19.20
   8  -3  12  -16.30   14.10
  -8  -3 -12    6.60   11.50
   8   3  12   15.50   12.80
   8   3  12   29.00   19.50
  -8   3 -12  -18.20   11.40
  -8   3 -12    5.50   16.40
  -9  -3 -12   49.50   12.10
  -9  -3 -12   66.59   16.20
   9  -3  12   40.10   17.00
   9  -3  12   55.29   18.20
   9   3  12   48.10   15.80
  -9   3 -12   38.30   11.40
  -9   3 -12   71.59   19.30
   9   3  12   49.50   12.20
   9  -4 -12  185.48   27.10
   9  -4 -12  178.08   16.30
  -9   4  12  166.48   23.80
   9   4 -12  187.58   13.50
   8  -4 -12  190.38   32.90
   8  -4 -12  239.38   19.10
   8  -4 -12  213.68   27.50
  -8   4  12  268.97   33.40
   8   4 -12  208.48   15.50
   7  -4 -12    5.20   11.10
   7  -4 -12   11.20   42.90
   7  -4 -12   -2.30   18.30
  -7  -4  12    1.40   14.70
  -7   4  12   -6.60   18.20
   7   4 -12   11.20    8.00
   6  -4 -12  139.99   50.19
   6  -4 -12  124.39   15.50
  -6  -4  12  141.49   21.60
   6  -4 -12  110.89   22.10
   6  -4 -12   86.99   22.30
   6   4 -12  119.29   16.30
  -6   4  12  159.88   34.20
  -6   4  12   74.69   22.00
   5  -4 -12  158.68   28.20
  -5  -4  12  130.79   20.50
   5  -4 -12  177.78   18.20
  -5  -4  12  238.88   33.10
   5   4 -12  178.28   24.00
  -5   4  12  207.08   35.20
  -5   4  12  190.28   32.90
   5   4 -12  185.78   18.50
   4  -4 -12   49.10   24.50
  -4  -4  12   23.40   10.90
   4  -4 -12   39.40   15.40
  -4  -4  12    7.80   14.90
   4  -4 -12   37.80   14.60
   4  -4 -12   29.50   10.60
  -4   4  12   54.39   27.60
   4   4 -12   24.50   10.30
   4   4 -12   32.80   18.60
  -4   4  12   14.70   19.60
  -3  -4  12  195.58   26.70
   3  -4 -12  171.28   21.40
   3  -4 -12  171.88   32.00
   3  -4 -12  122.29   17.90
   3  -4 -12  151.28   23.90
  -3  -4  12  122.49   18.20
  -3   4  12  107.19   19.40
   3   4 -12  146.69   19.00
   3   4 -12  210.58   34.30
  -3   4  12  145.19   29.80
  -3   4  12  172.98   26.60
   2  -4 -12  249.78   54.49
  -2  -4  12  217.88   18.90
  -2  -4  12  225.78   39.90
  -2  -4  12  176.18   24.30
   2  -4 -12  179.48   24.00
   2   4 -12  209.88   21.10
  -2   4  12  203.08   32.10
   2   4 -12  175.98   25.70
  -1  -4  12    9.70   11.30
  -1  -4  12   11.50   24.50
  -1  -4  12   32.40   19.30
  -1  -4  12   19.80    9.70
   1  -4 -12   13.80   12.40
   1   4 -12   35.70   19.50
   1   4 -12   26.00   16.70
   1   4 -12   10.90   13.00
   1   4 -12   -7.30   22.20
  -1   4  12    1.30   18.40
  -1   4  12  -12.30   31.40
   0  -4  12  380.96   37.80
   0  -4  12  306.67   22.70
   0  -4 -12  415.36   54.99
   0  -4 -12  314.87   40.80
   0  -4  12  250.97   24.40
   0  -4 -12  289.47   25.80
   0  -4  12  310.17   34.50
   0   4 -12  299.17   46.40
   0   4 -12  274.37   27.60
   0   4  12  326.87   45.00
   0   4 -12  270.97   30.40
   0   4  12  397.16   38.40
  -1  -4 -12   44.40   30.00
   1  -4  12    3.60   16.60
   1  -4  12   27.20   19.50
   1  -4  12   -7.40    9.00
  -1  -4 -12    7.20   11.30
  -1  -4 -12   14.30   12.80
   1  -4  12   13.70   10.40
   1   4  12   18.80   26.10
  -1   4 -12   20.40   15.80
   1   4  12   -5.50   21.40
   1   4  12   -3.00   17.00
  -1   4 -12    1.00   15.10
  -1   4 -12    7.40   15.70
   1   4  12    5.90   16.40
  -2  -4 -12   66.99   13.60
   2  -4  12   47.20    9.60
   2  -4  12   85.09   19.20
   2  -4  12   22.60   15.80
   2  -4  12   37.40   11.20
  -2  -4 -12   46.50   14.10
  -2  -4 -12   50.39   32.90
   2   4  12    0.30   40.60
   2   4  12   53.49   19.60
   2   4  12   61.89   28.50
  -2   4 -12   47.50   15.90
   2   4  12   72.09   17.30
  -2   4 -12   44.40   15.60
  -2   4 -12   56.69   15.30
   3  -4  12   40.10   17.70
  -3  -4 -12  -28.30   35.20
  -3  -4 -12   49.80   13.00
   3  -4  12   19.90   14.20
  -3  -4 -12   32.30   14.10
   3  -4  12   45.60   12.20
   3  -4  12   37.60    8.90
  -3   4 -12   42.10   15.70
   3   4  12   46.70   29.70
   3   4  12   47.70   16.40
  -3   4 -12   41.90   15.70
   3   4  12   45.90   16.10
  -3   4 -12   30.30   14.80
  -4  -4 -12   80.19   13.60
   4  -4  12   50.29    9.60
  -4  -4 -12   61.49   15.60
  -4  -4 -12   76.79   43.40
   4  -4  12   58.39   17.10
   4  -4  12  101.89   17.90
   4  -4  12   73.99   14.40
   4   4  12   68.09   16.40
   4   4  12   69.69   15.70
   4   4  12   86.59   33.60
  -4   4 -12   84.49   15.90
  -4   4 -12   75.89   16.30
  -4   4 -12   89.19   17.20
   5  -4  12  119.59   23.30
   5  -4  12   83.19   18.70
  -5  -4 -12  123.19   19.10
  -5  -4 -12  109.09   15.80
   5  -4  12   94.09   14.00
  -5   4 -12   91.09   15.90
  -5   4 -12  102.19   18.00
   5   4  12   78.19   14.40
   5   4  12  152.48   24.30
  -5   4 -12   89.89   14.40
  -6  -4 -12   40.00   13.20
  -6  -4 -12   42.50   11.80
   6  -4  12   49.00   13.10
   6  -4  12   38.10   10.90
   6   4  12   59.39   12.90
   6   4  12   55.29   17.00
  -6   4 -12   42.10   13.20
  -6   4 -12   47.60   12.40
  -6   4 -12   12.20   18.40
   7  -4  12   54.99   13.60
  -7  -4 -12   41.90   13.00
   7  -4  12   63.29   11.80
   7   4  12   47.60   11.50
  -7   4 -12   60.19   12.70
  -7   4 -12   60.99   12.30
   5  -5 -12   17.40    8.90
   5  -5 -12   -1.80   14.30
   5   5 -12   16.00    6.70
  -5   5  12   21.00   17.30
   4  -5 -12   67.89   19.30
  -4  -5  12   63.69   12.80
   4  -5 -12   51.49   12.60
   4   5 -12   58.69    9.20
  -4   5  12   70.79   19.60
   3  -5 -12  144.29   18.10
  -3  -5  12  153.78   19.30
   3  -5 -12  192.78   25.30
   3  -5 -12  146.09   13.50
  -3  -5  12  111.39   13.50
   3  -5 -12  139.19   21.60
  -3   5  12  131.59   23.90
   3   5 -12  133.99   14.90
  -3   5  12  187.38   24.20
   2  -5 -12   59.89   20.80
   2  -5 -12   59.89   13.50
   2  -5 -12   21.60   10.60
  -2  -5  12   44.40   10.50
  -2   5  12   32.20   19.30
   2   5 -12   73.09   26.30
   2   5 -12   50.29   11.20
   1  -5 -12   42.70   12.00
  -1  -5  12   21.60   24.00
  -1  -5  12   59.29   10.60
   1  -5 -12   33.50    8.80
   1  -5 -12   23.30   23.80
   1  -5 -12   30.30   11.10
   1   5 -12   39.90   10.10
  -1   5  12   23.70   19.30
  -1   5  12   21.20   13.40
   1   5 -12   51.69   22.10
   0  -5 -12    7.10   10.70
   0  -5 -12  -53.79   26.30
   0  -5  12    4.00   27.10
   0  -5 -12   24.10    8.90
   0  -5  12    8.10    6.70
   0  -5  12   23.40   10.30
   0  -5 -12    6.90   10.90
   0  -5  12   29.10   17.10
   0   5 -12   -4.90   13.60
   0   5  12    8.90   19.40
   0   5  12   17.60   13.10
   0   5 -12   44.20   20.20
   1  -5  12   63.09   15.00
  -1  -5 -12   48.80    9.80
  -1  -5 -12  -10.60   32.60
  -1  -5 -12   57.89   11.90
   1  -5  12   57.89   11.60
   1  -5  12   38.60    7.50
  -1  -5 -12   44.10   15.40
   1  -5  12   73.59   20.00
   1   5  12   41.50   20.60
   1   5  12   68.29   15.50
  -1   5 -12   68.59   19.50
   2  -5  12  182.88   20.80
   2  -5  12  272.37   22.60
  -2  -5 -12  181.68   17.90
   2  -5  12  256.37   25.10
  -2  -5 -12  234.18   19.80
   2  -5  12  198.98   14.60
  -2  -5 -12  245.38   20.70
   2   5  12  242.98   25.30
   2   5  12  185.18   32.70
  -2   5 -12  204.08   29.10
   3  -5  12   69.19   14.30
   3  -5  12   55.49    8.50
  -3  -5 -12   74.59   10.10
  -3  -5 -12   48.50   14.00
   3  -5  12   66.29   11.80
  -3  -5 -12   86.39   12.70
  -3   5 -12   21.20   16.20
   3   5  12   63.89   13.80
 -12   0  13  179.58   22.10
  12   0 -13  210.18   30.30
 -12   0  13  244.68   24.90
  12   0 -13  183.48   22.50
 -11   0  13  170.08   23.30
  11   0 -13  148.69   26.00
  11   0 -13  179.78   28.20
 -11   0  13  162.78   25.80
  11   0 -13  169.28   25.30
  10   0 -13  199.48   29.90
  10   0 -13  164.28   26.30
 -10   0  13  220.28   36.30
  10   0 -13  187.48   20.30
 -10   0  13  182.08   26.60
 -10   0  13  221.88   31.00
  10   0 -13  196.98   27.60
  10   0 -13  189.78   23.60
   9   0 -13    6.20   11.00
   9   0 -13   -0.10   19.30
  -9   0  13    7.10   18.80
  -9   0  13   20.60   16.30
  -9   0  13  -16.60   13.90
   9   0 -13   -6.00   20.50
   9   0 -13   -9.20   21.50
   8   0 -13  191.78   21.10
  -8   0  13  171.18   22.30
   8   0 -13  125.29   26.90
   8   0 -13  241.48   38.40
  -8   0  13  160.78   23.80
  -8   0  13  206.08   26.50
   8   0 -13  154.78   24.70
  -8   0  13  163.98   58.49
   7   0 -13  181.78   28.30
   7   0 -13  156.38   26.50
  -7   0  13  194.98   24.40
   7   0 -13  190.78   22.20
  -7   0  13  228.58   46.20
  -7   0  13  150.78   23.50
   7   0 -13  118.49   26.20
  -6   0  13  398.06   29.90
   6   0 -13  397.06   38.20
  -6   0  13  381.66   57.49
   6   0 -13  371.36   29.70
   6   0 -13  371.26   43.10
  -6   0  13  399.96   35.20
  -6   0  13  398.46   37.30
   6   0 -13  435.86   43.40
  -5   0  13   37.60   26.40
  -5   0  13   33.70   17.10
   5   0 -13   22.90   15.20
   5   0 -13   13.80   20.20
   5   0 -13   56.89   23.60
  -5   0  13   27.20   17.60
   5   0 -13   35.60   24.10
  -5   0  13   30.60   13.00
   4   0 -13  150.48   29.00
  -4   0  13  182.48   28.90
  -4   0  13  173.08   32.70
   4   0 -13  133.99   27.10
  -4   0  13  137.59   27.10
   4   0 -13  170.08   24.00
   4   0 -13  113.99   25.00
   4   0 -13  162.38   21.70
  -4   0  13  156.48   20.20
  -4   0  13  175.38   22.40
   4   0 -13   94.89   48.60
   3   0 -13   96.99   40.60
   3   0 -13   29.50   22.00
   3   0 -13   27.10   17.90
  -3   0  13   34.30   23.70
  -3   0  13   26.00   16.40
  -3   0  13   30.00   12.30
  -3   0  13   39.20   16.30
   3   0 -13   18.30   23.40
   3   0 -13   -8.50   22.30
  -3   0  13   35.00   20.20
   3   0 -13   31.30    9.10
   3   0 -13   42.70   29.00
   2   0 -13   25.30    8.50
   2   0 -13    3.30  112.39
  -2   0  13   61.59   16.30
   2   0 -13   41.40   21.70
   2   0 -13   44.20   19.60
   2   0 -13   23.10   22.80
  -2   0  13   48.60   23.60
  -2   0  13   47.60   16.60
   2   0 -13   52.59   30.20
  -2   0  13   -4.10   18.50
  -2   0  13   12.50   45.00
  -2   0  13   60.79   13.90
   1   0 -13 1623.14   79.99
  -1   0  13 1686.43   95.09
   1   0 -13 1572.54   85.59
  -1   0  13 1660.63   78.89
  -1   0  13 1421.96   99.59
   1   0 -13 1596.64   80.59
   1   0 -13 1527.75  189.08
   1   0 -13 1664.83   67.09
  -1   0  13 1534.05   76.89
   1   0 -13 1676.33   75.79
   1   0 -13 1533.15   76.19
  -1   0  13 1671.73   74.89
  -1   0  13 1693.03   72.89
   0   0 -13    6.60    8.70
   0   0  13  -44.90   30.60
   0   0 -13  -16.90   18.50
   0   0  13    8.70   20.60
   0   0  13   44.60   15.70
   0   0  13    6.80   16.60
   0   0 -13   21.80   19.50
   0   0 -13    6.00   26.40
   0   0 -13   -3.30   19.30
   0   0  13    5.90   14.60
   0   0  13  -19.00   17.20
   0   0 -13   18.40   24.40
   0   0  13    3.70   31.20
  -1   0 -13  550.84   37.80
   1   0  13  602.74   56.59
   1   0  13  555.64   39.80
  -1   0 -13  511.65   56.99
   1   0  13  592.14   39.60
   1   0  13  548.05   53.89
  -1   0 -13  555.74   37.20
  -1   0 -13  590.74   30.70
  -1   0 -13  584.34   41.10
   1   0  13  650.63   46.80
  -2   0 -13  -32.40   21.50
   2   0  13   11.70   22.60
  -2   0 -13    0.40   29.20
  -2   0 -13   14.50   10.60
   2   0  13   28.50   17.60
   2   0  13   16.40   16.30
  -2   0 -13   12.70   15.60
   2   0  13  -11.00   86.59
   2   0  13   19.60   28.30
   2   0  13   40.30   29.40
   3   0  13   11.30   17.70
   3   0  13   10.10   18.90
   3   0  13   -5.10   24.00
   3   0  13   56.09   26.00
   3   0  13   -0.20   24.50
  -3   0 -13   12.50   12.30
   3   0  13   -1.90   51.99
  -4   0 -13    1.60   17.60
   4   0  13   49.30   25.40
  -4   0 -13   12.30   17.90
   4   0  13  -23.20   35.40
   4   0  13   14.10   20.10
   4   0  13   17.00   23.60
   4   0  13   60.99   31.40
  -4   0 -13   34.60   16.80
   5   0  13   26.90   23.20
  -5   0 -13   24.60   18.60
  -5   0 -13   14.90   17.50
   5   0  13  -10.40   37.20
   5   0  13    4.60   24.20
  -5   0 -13   -3.00   17.10
   5   0  13    1.40   32.30
  -5   0 -13   26.30   15.80
  -6   0 -13   49.90   25.80
   6   0  13  131.89   26.20
   6   0  13  118.69   27.00
  -6   0 -13   96.29   19.50
   6   0  13   92.29   31.40
  -6   0 -13  135.39   21.10
   7   0  13   30.90   19.00
   7   0  13    6.10   24.30
  -7   0 -13    9.10   15.00
   7   0  13   43.80   24.50
  -7   0 -13  -11.10   16.40
  -7   0 -13  -14.00   14.30
   8   0  13   18.40   16.30
   8   0  13  -10.10   21.40
  -8   0 -13   30.70   13.30
   8   0  13   15.50   22.00
  -8   0 -13   29.40   14.80
  -8   0 -13   -3.30   16.70
   9   0  13   53.39   15.60
  -9   0 -13   45.20   13.60
   9   0  13   16.90   18.50
   9   0  13   48.50   22.80
  -9   0 -13   50.69   11.40
  -9   0 -13   53.29   17.40
 -10   0 -13   -4.30   12.40
  10   0  13   19.00   17.10
  10   0  13  -58.69   30.80
  10   0  13  -12.90   14.00
 -10   0 -13   13.10   10.00
  12  -1 -13  344.17   24.10
  12  -1 -13  348.67   27.70
 -12  -1  13  303.27   28.20
 -12  -1  13  304.97   25.90
  12   1 -13  343.37   31.60
 -12   1  13  369.96   25.10
 -12   1  13  330.07   25.50
  12   1 -13  331.07   40.10
  11  -1 -13  120.49   16.60
  11  -1 -13  201.08   31.00
 -11  -1  13  176.08   29.50
  11  -1 -13  154.38   22.30
  11   1 -13  155.28   22.10
 -11   1  13  160.08   23.80
 -11   1  13  164.68   23.00
  11   1 -13  176.18   28.10
 -11   1  13  192.78   28.00
  11   1 -13  150.68   17.10
  10  -1 -13   48.50   21.20
  10  -1 -13   54.59   23.40
  10  -1 -13   45.40   26.20
 -10  -1  13   18.90   13.70
 -10  -1  13   53.39   25.80
 -10  -1  13   46.70   17.20
  10   1 -13   58.79   23.10
 -10   1  13   41.50   14.80
  10   1 -13   32.60   17.50
  10   1 -13   32.40   26.10
 -10   1  13   27.40   17.90
  10   1 -13   42.00   11.30
 -10   1  13   27.30   17.90
   9  -1 -13   61.69   25.00
   9  -1 -13  144.29   26.90
  -9  -1  13  161.98   27.80
   9  -1 -13  108.59   23.20
  -9  -1  13  177.98   24.40
   9   1 -13  161.38   28.30
   9   1 -13  128.49   19.30
   9   1 -13  101.19   44.70
  -9   1  13  102.09   18.50
   9   1 -13  107.49   20.80
  -9   1  13  129.89   20.80
  -9   1  13  157.18   24.00
   9   1 -13  156.38   26.10
  -8  -1  13   48.60   15.50
   8  -1 -13   48.30   23.10
  -8  -1  13   27.40   21.50
  -8  -1  13   22.30   18.90
   8  -1 -13   27.80   22.00
   8  -1 -13  -11.40   24.10
   8  -1 -13   18.60   24.50
   8  -1 -13   21.30   11.90
   8   1 -13   66.89   27.40
  -8   1  13   37.50   17.90
   8   1 -13   50.19   23.00
   8   1 -13   43.30   26.20
   8   1 -13   22.70   12.10
   8   1 -13    0.00   22.10
  -8   1  13   49.30   18.80
  -8   1  13   11.20   42.20
  -8   1  13   30.30   19.50
   7  -1 -13  620.64   52.79
   7  -1 -13  661.23   36.40
   7  -1 -13  672.13   50.49
  -7  -1  13  655.43   45.50
  -7  -1  13  505.05   41.80
   7  -1 -13  611.54   49.10
   7  -1 -13  660.03   49.80
  -7  -1  13  588.14   43.00
   7   1 -13  660.83   46.40
   7   1 -13  615.84   55.79
   7   1 -13  656.53   48.20
   7   1 -13  692.93   35.80
  -7   1  13  604.24   42.40
  -7   1  13  604.34   43.90
  -7   1  13  667.03   46.50
  -7   1  13  507.85   64.59
   6  -1 -13  901.81   46.70
  -6  -1  13  874.61   50.09
   6  -1 -13  951.00   55.69
   6  -1 -13  856.01   55.99
   6  -1 -13  826.52   57.59
   6  -1 -13  910.41   60.79
  -6  -1  13  801.22   53.29
  -6  -1  13  937.01   98.89
   6  -1 -13  950.80   86.29
  -6   1  13  830.92   81.49
   6   1 -13  952.80   46.10
   6   1 -13  967.70   55.19
   6   1 -13  882.01   65.09
  -6   1  13  775.62   86.19
   6   1 -13  898.01   52.29
   6   1 -13  944.31   54.69
  -6   1  13  945.61   51.49
  -6   1  13  978.60   48.00
  -6   1  13  899.21   70.19
  -6   1  13  907.81   52.89
  -5  -1  13  192.48   30.80
  -5  -1  13   80.79   28.80
  -5  -1  13  142.99   18.60
  -5  -1  13  145.69   22.20
   5  -1 -13  141.19   25.00
  -5  -1  13  117.09   37.50
   5  -1 -13   62.99   43.10
   5  -1 -13  144.89   26.10
   5  -1 -13  160.98   19.50
   5  -1 -13  174.68   30.00
   5  -1 -13  125.29   17.80
   5  -1 -13  135.49   29.10
   5   1 -13  127.89   24.00
   5   1 -13  129.09   23.10
   5   1 -13  165.48   25.00
   5   1 -13  143.59   34.40
  -5   1  13  130.59   37.50
   5   1 -13  165.18   23.50
  -5   1  13  169.68   25.50
  -5   1  13  157.58   27.90
  -5   1  13   72.49   43.40
  -5   1  13  109.19   19.30
  -5   1  13  149.49   22.90
   4  -1 -13  432.36   40.30
  -4  -1  13  348.07   52.19
   4  -1 -13  333.67   46.20
   4  -1 -13  349.27   21.90
  -4  -1  13  347.17   38.60
  -4  -1  13  285.17   30.60
   4  -1 -13  297.17   35.10
   4  -1 -13  338.27   34.20
  -4  -1  13  345.37   24.00
  -4   1  13  318.67   37.50
   4   1 -13  367.36   36.20
  -4   1  13  392.66   30.60
  -4   1  13  375.36   33.90
  -4   1  13  341.27   49.70
   4   1 -13  333.47   36.20
   4   1 -13  315.17   38.10
   4   1 -13  361.76   52.59
  -4   1  13  368.06   33.10
   3  -1 -13  537.55   53.09
  -3  -1  13  481.65   28.20
   3  -1 -13  408.76   41.90
   3  -1 -13  480.25   44.20
   3  -1 -13  489.75   39.60
  -3  -1  13  585.74   47.30
  -3  -1  13  504.95   33.80
   3  -1 -13  500.25   26.40
   3  -1 -13  439.06   43.40
  -3  -1  13  477.75   48.00
  -3  -1  13  501.35   37.40
   3  -1 -13  507.15   59.79
  -3   1  13  461.35   35.40
  -3   1  13  454.15   38.90
   3   1 -13  463.35   39.20
  -3   1  13  466.65   54.69
   3   1 -13  461.45   36.30
   3   1 -13  458.85   54.69
  -3   1  13  422.26   57.99
  -3   1  13  484.05   39.40
   3   1 -13  442.06   48.40
   3   1 -13  551.94   42.60
  -3   1  13  536.75   38.00
   2  -1 -13  158.78   26.50
   2  -1 -13  120.69   23.50
   2  -1 -13  105.79   23.80
  -2  -1  13   96.49   16.50
   2  -1 -13   98.49   15.20
  -2  -1  13   95.79   18.80
  -2  -1  13   92.69   24.30
   2  -1 -13  120.49   20.20
   2  -1 -13   90.69   32.00
   2   1 -13   46.30   32.60
  -2   1  13  117.99   22.70
  -2   1  13   75.29   19.80
  -2   1  13  116.29   20.50
  -2   1  13  124.89   29.30
  -2   1  13   77.89   28.60
  -2   1  13  106.89   21.00
   2   1 -13  133.89   22.60
   2   1 -13  112.79   24.40
   2   1 -13   86.09   23.60
  -1  -1  13  155.88   39.10
  -1  -1  13  184.48   28.60
  -1  -1  13  168.78   29.10
   1  -1 -13  175.58   26.80
   1  -1 -13  172.08   23.20
   1  -1 -13  167.68   26.70
  -1  -1  13  216.18   24.40
   1  -1 -13  197.78   29.50
   1  -1 -13  160.18   17.30
  -1  -1  13  171.68   18.20
   1  -1 -13  101.49   33.90
   1   1 -13  119.29   24.10
  -1   1  13  186.08   22.90
   1   1 -13  193.58   17.90
  -1   1  13  118.99   21.30
   1   1 -13  156.18   33.70
   1   1 -13  133.79   22.80
  -1   1  13  146.49   25.60
  -1   1  13  134.69   41.40
  -1   1  13  150.88   30.20
  -1   1  13  138.29   24.70
  -1   1  13  139.49   32.00
   1   1 -13  134.59   23.80
   0  -1 -13  282.17   21.80
   0  -1 -13  292.17   26.90
   0  -1 -13  294.77   33.10
   0  -1  13  335.17   47.30
   0  -1  13  297.27   36.40
   0  -1  13  285.37   31.50
   0  -1 -13  345.47   47.20
   0  -1  13  286.47   51.69
   0  -1 -13  328.27   38.60
   0  -1  13  301.27   22.30
   0   1 -13  220.68   36.80
   0   1  13  349.17   35.70
   0   1  13  273.27   41.60
   0   1  13  257.17   42.30
   0   1 -13  290.27   21.90
   0   1  13  299.97   34.50
   0   1 -13  255.27   30.90
   0   1 -13  344.07   34.80
   0   1 -13  326.37   42.90
   0   1  13  290.87   30.50
   0   1  13  274.87   45.70
   1  -1  13  200.88   31.20
   1  -1  13  144.29   41.80
   1  -1  13  137.59   24.70
  -1  -1 -13  142.29   18.20
  -1  -1 -13  124.89   22.10
   1  -1  13  111.59   26.20
  -1  -1 -13  174.08   45.00
   1  -1  13  156.28   19.90
  -1  -1 -13  129.59   17.30
  -1   1 -13  120.59   19.00
  -1   1 -13  118.09   27.00
  -1   1 -13  108.89   26.50
  -1   1 -13  124.29   36.40
   1   1  13   57.89   36.40
   1   1  13   91.89   44.10
   1   1  13  133.59   28.60
   1   1  13  112.79   34.50
   1   1  13  101.69   23.10
   1   1  13   99.09   18.80
   2  -1  13   -4.10   20.20
   2  -1  13    0.60   13.20
  -2  -1 -13    3.10   22.80
  -2  -1 -13   13.20   18.70
   2  -1  13   -5.10   15.50
   2  -1  13    4.70   20.40
   2  -1  13   16.10   16.90
  -2  -1 -13   25.60   14.60
  -2  -1 -13    0.50   11.40
   2  -1  13    1.10   21.60
   2   1  13   40.10   28.20
   2   1  13    1.00   25.40
  -2   1 -13   64.69   23.60
  -2   1 -13   -1.70   17.60
   2   1  13   28.70   21.70
  -2   1 -13    9.90   12.10
  -2   1 -13   15.10   21.70
   2   1  13   12.60   29.90
  -2   1 -13   40.70   31.10
   3  -1  13   56.49   17.90
   3  -1  13   84.09   22.40
   3  -1  13   94.39   22.60
  -3  -1 -13   81.59   19.60
  -3  -1 -13   68.49   20.40
   3  -1  13  134.79   24.50
  -3  -1 -13   91.59   17.30
   3  -1  13   44.80   30.90
  -3  -1 -13   91.79   16.80
   3  -1  13   66.19   18.00
  -3   1 -13   50.49   21.00
  -3   1 -13   95.79   15.80
  -3   1 -13  114.29   21.80
   3   1  13   11.30   34.90
  -3   1 -13   74.09   24.90
   3   1  13   40.80   26.80
   3   1  13   68.79   22.30
   3   1  13   67.09   31.00
  -3   1 -13  100.69   26.90
   3   1  13   95.39   32.80
   4  -1  13   42.20   28.80
   4  -1  13   13.40   24.60
  -4  -1 -13   20.80   20.00
   4  -1  13   67.79   39.90
  -4  -1 -13   26.90   19.40
   4  -1  13   37.10   22.80
   4  -1  13   32.90   23.30
  -4  -1 -13   13.00   16.80
  -4  -1 -13   13.40   15.20
   4  -1  13    4.60   17.50
  -4   1 -13   27.20   18.10
  -4   1 -13   42.00   27.60
  -4   1 -13   24.90   24.50
   4   1  13   40.50   28.30
  -4   1 -13   48.30   16.30
   4   1  13   22.20   31.60
   4   1  13  -16.70   30.60
  -4   1 -13   39.50   18.50
   4   1  13   22.60   20.20
   4   1  13   25.80   28.40
  -5  -1 -13  116.69   22.40
   5  -1  13  153.78   22.20
  -5  -1 -13  117.19   24.70
   5  -1  13  109.09   28.30
  -5  -1 -13   94.99   25.00
  -5  -1 -13  135.69   21.40
   5  -1  13  148.69   35.70
   5   1  13   95.59   21.40
   5   1  13  143.99   30.80
   5   1  13   87.19   30.60
  -5   1 -13  159.48   22.80
  -5   1 -13  143.19   30.40
  -5   1 -13  165.18   26.50
  -5   1 -13  137.59   20.40
  -5   1 -13  100.89   31.70
   5   1  13  137.09   29.10
  -5   1 -13  138.29   20.50
   5   1  13   81.69   40.70
   6  -1  13   40.50   27.40
   6  -1  13   28.40   21.80
  -6  -1 -13   58.39   16.40
  -6  -1 -13    5.10   32.40
  -6  -1 -13   21.70   16.90
   6  -1  13   31.70   26.20
   6  -1  13   51.49   24.70
  -6  -1 -13   42.20   17.50
   6   1  13   34.20   18.30
  -6   1 -13   53.09   18.70
  -6   1 -13   51.89   32.80
   6   1  13   21.90   26.70
  -6   1 -13   72.99   24.70
   6   1  13   23.30   29.60
  -6   1 -13    9.30   25.50
  -6   1 -13   29.60   15.50
   6   1  13   56.79   27.00
  -6   1 -13   31.10   22.20
  -7  -1 -13   46.20   15.30
   7  -1  13   37.70   23.40
   7  -1  13   64.49   35.80
  -7  -1 -13   35.60   15.20
  -7   1 -13   50.99   22.90
  -7   1 -13   89.29   39.10
   7   1  13   26.10   27.80
  -7   1 -13   17.70   25.60
  -7   1 -13   51.69   17.10
   7   1  13   29.00   24.70
  -8  -1 -13   29.60   14.60
  -8  -1 -13   29.70   14.20
  -8  -1 -13   30.20   13.80
   8  -1  13   14.60   20.30
   8  -1  13   49.90   20.90
   8  -1  13   32.60   18.30
   8   1  13   59.59   16.70
  -8   1 -13   39.40   13.10
   8   1  13   48.60   41.00
  -8   1 -13   62.09   21.90
  -8   1 -13   41.00   14.70
   8   1  13   57.39   25.30
   8   1  13   37.90   21.20
  -9  -1 -13    5.40   13.30
   9  -1  13   21.90   17.30
   9  -1  13    5.60   19.30
  -9  -1 -13   22.30   11.50
  -9  -1 -13   30.90   13.60
   9  -1  13    8.80   14.80
  -9   1 -13   38.20   14.00
   9   1  13    0.30   24.60
  -9   1 -13   19.20   11.70
   9   1  13   14.10   16.90
 -10  -1 -13   -6.40   13.80
  10  -1  13   -0.70   14.80
  10  -1  13   59.29   32.70
 -10  -1 -13   23.50   10.10
 -10  -1 -13   19.40   12.20
  10  -1  13   10.80   12.80
 -10   1 -13   21.90   12.60
  12  -2 -13  213.18   23.70
  12  -2 -13  222.28   19.50
  12   2 -13  222.58   15.10
 -12   2  13  271.77   20.20
  11  -2 -13  155.78   26.30
  11  -2 -13  167.08   24.60
 -11  -2  13  113.59   19.00
 -11  -2  13  142.19   24.30
  11  -2 -13  108.69   19.20
 -11   2  13  109.49   15.90
  11   2 -13  132.09   14.20
  10  -2 -13   44.00   16.10
  10  -2 -13   28.70   21.90
  10  -2 -13   38.50   18.90
 -10  -2  13   50.39   18.00
 -10   2  13   50.19   16.10
 -10   2  13   42.60   15.30
  10   2 -13   33.70    9.70
   9  -2 -13    7.50   20.50
  -9  -2  13   -6.80   14.10
   9  -2 -13   21.20   16.20
   9  -2 -13   24.10   23.60
   9   2 -13   -6.60   17.80
   9   2 -13   21.10   10.50
  -9   2  13    5.10   15.60
  -9   2  13   83.69   46.70
  -9   2  13  -18.80   16.70
  -8  -2  13  208.88   27.10
  -8  -2  13  182.98   24.60
   8  -2 -13  114.49   28.30
   8  -2 -13  147.09   23.40
  -8   2  13  187.08   25.90
   8   2 -13  265.47   38.20
  -8   2  13  112.69   39.10
   8   2 -13  193.18   20.00
  -7  -2  13  112.69   22.60
   7  -2 -13  173.18   34.00
  -7  -2  13  128.99   25.30
   7  -2 -13   82.19   24.40
   7  -2 -13  118.19   31.60
   7  -2 -13  128.39   20.70
   7   2 -13   88.69   22.50
  -7   2  13  134.89   20.40
  -7   2  13   59.09   33.30
  -7   2  13   96.39   22.20
   7   2 -13   98.99   15.80
  -7   2  13   90.59   34.90
   6  -2 -13   42.10   29.70
  -6  -2  13   77.99   22.00
   6  -2 -13   72.29   15.90
   6  -2 -13   74.49   24.90
  -6  -2  13   79.49   13.80
   6  -2 -13   68.29   19.60
  -6  -2  13   52.99   19.50
   6  -2 -13   63.99   32.50
  -6   2  13   44.80   30.00
   6   2 -13   42.70   23.30
  -6   2  13   79.79   20.60
   6   2 -13   64.79   20.90
   6   2 -13   39.70   21.00
  -6   2  13   82.79   23.00
   6   2 -13   68.19   15.60
  -6   2  13   55.39   31.50
  -6   2  13   15.60   37.00
  -5  -2  13  835.52   47.40
  -5  -2  13  882.81   41.80
   5  -2 -13  865.71   54.89
   5  -2 -13  751.82   52.89
   5  -2 -13  767.52   40.80
   5  -2 -13  911.51   66.69
  -5  -2  13  917.31   59.49
   5  -2 -13  772.42   67.39
   5  -2 -13  839.62   50.49
  -5  -2  13  838.12   51.39
   5   2 -13  875.01   50.69
  -5   2  13  794.82   53.99
   5   2 -13  859.01   43.50
  -5   2  13  904.91   54.59
  -5   2  13  803.22   70.79
   5   2 -13  905.61   52.29
  -5   2  13  896.91   57.29
   5   2 -13  814.32   52.09
  -5   2  13  842.12   65.99
   4  -2 -13 1752.22   81.09
   4  -2 -13 1811.62   94.29
  -4  -2  13 1792.02   77.79
   4  -2 -13 1800.92   76.29
  -4  -2  13 1668.53   80.29
   4  -2 -13 1628.94   74.19
   4  -2 -13 1830.22   85.19
   4  -2 -13 1822.72   95.29
  -4  -2  13 1711.33   73.49
  -4   2  13 1643.84   83.99
   4   2 -13 1774.92   75.19
  -4   2  13 1644.44   93.49
   4   2 -13 1785.12   82.39
  -4   2  13 1725.53   90.19
  -4   2  13 1571.44   92.79
   4   2 -13 1712.63   80.49
   4   2 -13 1764.32   81.49
  -3  -2  13  604.44   37.80
   3  -2 -13  707.23   59.69
  -3  -2  13  525.55   77.69
  -3  -2  13  722.73   44.90
   3  -2 -13  637.14   34.50
  -3  -2  13  671.73   33.90
   3  -2 -13  682.43   38.40
   3  -2 -13  624.04   70.79
   3  -2 -13  632.14   39.70
   3  -2 -13  620.34   49.40
  -3   2  13  619.84   49.50
  -3   2  13  552.44   45.30
   3   2 -13  684.13   45.20
  -3   2  13  673.23   55.79
   3   2 -13  644.24   38.80
  -3   2  13  698.53   60.89
   3   2 -13  632.04   44.90
   3   2 -13  653.83   45.00
   2  -2 -13  977.30   46.90
   2  -2 -13  919.31   66.39
   2  -2 -13 1022.80   51.09
  -2  -2  13  815.72   53.49
   2  -2 -13 1054.79   56.89
  -2  -2  13  980.90   47.40
   2  -2 -13  966.80   45.50
   2  -2 -13  969.20   85.19
  -2  -2  13 1008.80   75.49
   2   2 -13  919.61   53.39
  -2   2  13  717.83   81.79
  -2   2  13  931.51   69.09
  -2   2  13 1005.80   52.59
   2   2 -13  898.21   54.49
  -2   2  13  914.51   61.19
   2   2 -13  944.71   54.19
   2   2 -13  957.20   49.90
  -2   2  13  872.21   59.49
  -1  -2  13  369.46   24.10
   1  -2 -13  320.97   27.90
   1  -2 -13  332.87   32.60
   1  -2 -13  344.87   38.60
  -1  -2  13  344.27   41.90
   1  -2 -13  439.36   51.09
  -1  -2  13  381.86   35.90
   1  -2 -13  364.16   27.30
  -1  -2  13  389.46   28.10
  -1  -2  13  395.06   53.09
   1   2 -13  365.96   38.00
  -1   2  13  309.87   50.89
  -1   2  13  402.26   42.50
  -1   2  13  267.97   43.70
   1   2 -13  427.96   38.70
   1   2 -13  347.67   35.70
  -1   2  13  347.57   35.80
  -1   2  13  319.97   51.19
   0  -2  13  245.88   31.80
   0  -2  13  241.58   20.30
   0  -2 -13  162.78   22.80
   0  -2  13  256.27   23.30
   0  -2  13  252.87   35.80
   0  -2 -13  220.78   23.80
   0  -2  13  225.88   42.60
   0  -2 -13  244.58   31.40
   0  -2 -13  214.28   30.70
   0   2  13  227.88   28.30
   0   2 -13  239.28   34.50
   0   2  13  210.78   29.20
   0   2  13  144.39   36.20
   0   2 -13  271.97   32.90
   0   2 -13  238.08   28.30
  -1  -2 -13  268.87   33.50
   1  -2  13  225.28   33.90
   1  -2  13  295.87   22.00
  -1  -2 -13  252.47   26.20
   1  -2  13  276.97   32.50
   1  -2  13  310.57   24.00
  -1  -2 -13  274.07   26.80
   1  -2  13  310.97   39.80
  -1   2 -13  322.97   36.70
   1   2  13  225.38   35.90
  -1   2 -13  271.47   34.40
  -1   2 -13  276.07   34.90
   1   2  13  271.27   37.60
  -1   2 -13  235.78   35.10
   1   2  13  222.28   37.20
   1   2  13  306.67   34.80
   2  -2  13  194.18   20.10
   2  -2  13  176.98   28.70
   2  -2  13  186.78   20.10
   2  -2  13   80.29   47.50
  -2  -2 -13  207.18   31.40
   2  -2  13  185.58   35.30
  -2  -2 -13  209.98   32.50
  -2  -2 -13  191.58   24.30
   2  -2  13  169.58   31.40
  -2   2 -13  167.88   24.70
  -2   2 -13  227.38   31.20
   2   2  13  253.37   33.20
  -2   2 -13  120.59   25.50
   2   2  13  154.78   35.40
  -2   2 -13  133.69   26.60
   2   2  13  118.99   31.60
   2   2  13  147.19   24.10
  -3  -2 -13  355.16   29.20
   3  -2  13  385.36   32.80
   3  -2  13  352.06   28.70
  -3  -2 -13  385.46   36.00
  -3  -2 -13  346.47   36.60
   3  -2  13  375.16   39.10
   3  -2  13  291.57   45.10
   3  -2  13  355.86   53.89
   3  -2  13  323.07   26.70
  -3   2 -13  366.16   36.60
  -3   2 -13  391.56   48.30
   3   2  13  355.36   39.30
   3   2  13  267.17   50.79
   3   2  13  394.16   36.00
   3   2  13  335.67   61.19
  -3   2 -13  401.56   35.50
   4  -2  13   -5.00   15.50
   4  -2  13   68.69   30.30
   4  -2  13    1.30   34.50
  -4  -2 -13    4.00   28.40
   4  -2  13   34.70   14.30
  -4  -2 -13   -8.80   13.70
   4  -2  13   29.50   20.30
  -4  -2 -13    7.70   17.80
   4   2  13   14.80   30.00
   4   2  13    2.50   34.00
   4   2  13   24.50   28.00
  -4   2 -13   15.00   18.50
  -4   2 -13   23.80   18.80
   4   2  13   19.40   20.40
   4   2  13   13.30   17.70
   5  -2  13 1056.09   59.49
   5  -2  13 1115.59   61.49
  -5  -2 -13 1019.50   56.59
   5  -2  13 1070.19   54.49
   5  -2  13  858.01   72.09
   5  -2  13 1040.40   70.49
   5  -2  13  890.41   76.69
  -5  -2 -13 1054.99   51.59
  -5   2 -13 1035.20   54.09
   5   2  13  989.10   68.79
   5   2  13 1152.38   55.49
   5   2  13 1005.60   57.79
  -5   2 -13 1003.60   55.99
   5   2  13 1057.69   66.09
   5   2  13  838.02   80.99
   6  -2  13   -3.80   27.70
   6  -2  13   56.49   28.00
  -6  -2 -13   13.40   37.10
  -6  -2 -13   27.10   13.70
   6  -2  13   26.00   17.00
  -6  -2 -13   32.00   17.70
   6   2  13   42.80   20.00
  -6   2 -13   39.40   19.00
   6   2  13   58.49   26.40
  -6   2 -13   29.80   18.20
  -6   2 -13   48.90   24.00
   6   2  13   51.79   18.10
   7  -2  13   16.30   23.40
  -7  -2 -13   57.19   16.10
  -7  -2 -13   49.50   14.40
   7  -2  13   56.59   23.20
   7  -2  13   30.60   18.40
   7  -2  13   25.30   17.30
  -7   2 -13   57.89   16.10
   7   2  13   52.29   23.30
   7   2  13   43.90   19.10
   7   2  13   65.69   25.20
  -7   2 -13   64.49   16.60
  -7   2 -13   36.40   23.60
  -8  -2 -13   90.59   14.60
   8  -2  13   97.59   20.50
   8  -2  13   61.29   18.30
   8  -2  13   53.79   20.40
  -8  -2 -13   76.19   21.60
  -8   2 -13  102.69   15.70
   8   2  13   68.29   18.40
   8   2  13   85.19   25.90
  -8   2 -13   85.99   17.00
   8   2  13  105.69   26.00
  -8   2 -13  121.69   26.10
  -9  -2 -13   26.40   12.00
   9  -2  13   22.00   14.10
   9  -2  13   -9.20   17.30
   9  -2  13   16.50   17.60
  -9  -2 -13   28.50   11.90
  -9   2 -13    5.50   33.30
   9   2  13   23.50   29.60
  -9   2 -13    8.70   14.30
   9   2  13  -14.50   18.30
  -9   2 -13    3.60   11.00
  10  -3 -13   36.60   14.10
  10  -3 -13  113.89   26.00
  10  -3 -13   37.70   21.10
  10   3 -13   47.70    8.10
 -10   3  13   73.89   37.90
 -10   3  13   37.70   16.70
  -9  -3  13   88.19   17.70
   9  -3 -13  140.09   19.80
   9  -3 -13   56.09   20.10
   9  -3 -13  127.19   25.80
   9   3 -13  102.09   14.30
  -9   3  13   97.19   31.70
  -9   3  13  154.18   19.80
   8  -3 -13  152.68   22.60
  -8  -3  13  140.99   25.70
   8  -3 -13  119.59   23.00
  -8  -3  13  127.29   18.90
   8  -3 -13  154.88   29.90
   8  -3 -13  160.88   28.40
   8   3 -13  143.79   17.00
  -8   3  13  117.19   22.30
  -8   3  13  177.48   31.60
   7  -3 -13   64.99   22.90
   7  -3 -13   78.59   26.90
   7  -3 -13   70.49   15.10
  -7  -3  13   80.99   23.70
  -7  -3  13   77.39   13.90
   7  -3 -13  150.98   34.50
  -7   3  13   93.99   24.40
  -7   3  13   48.60   26.40
   7   3 -13   55.69   23.90
   7   3 -13   92.39   13.10
   6  -3 -13   56.69   25.20
  -6  -3  13   81.89   20.30
   6  -3 -13   78.09   24.20
   6  -3 -13   70.09   36.80
  -6  -3  13   41.90   12.10
  -6   3  13   47.00   34.20
   6   3 -13   43.60   28.60
  -6   3  13   48.80   28.70
   6   3 -13   15.60   24.60
  -6   3  13   22.30   35.50
   6   3 -13   53.79   20.10
   5  -3 -13  409.66   34.70
   5  -3 -13  437.66   68.39
  -5  -3  13  419.96   26.80
   5  -3 -13  409.16   50.99
   5  -3 -13  332.47   42.30
   5  -3 -13  418.86   30.10
  -5  -3  13  499.75   35.90
   5   3 -13  428.46   36.10
   5   3 -13  393.36   27.20
  -5   3  13  342.47   42.90
  -5   3  13  355.36   47.80
   5   3 -13  400.26   41.70
  -4  -3  13   25.50   20.40
   4  -3 -13    6.90   26.90
   4  -3 -13   61.49   18.40
   4  -3 -13   61.99   17.70
  -4  -3  13   63.99   16.40
  -4  -3  13   46.30   12.40
   4  -3 -13   40.60   47.70
   4  -3 -13   42.10   14.20
   4  -3 -13   59.99   22.60
   4  -3 -13   85.69   19.70
   4   3 -13   48.10   19.50
   4   3 -13   50.79   24.80
  -4   3  13   26.00   28.10
   4   3 -13   64.69   22.20
   4   3 -13   45.70   12.20
  -4   3  13   48.60   24.20
  -3  -3  13   48.00   13.90
   3  -3 -13   14.90   14.50
   3  -3 -13   27.10   20.80
   3  -3 -13   30.00   26.20
  -3  -3  13   73.09   21.00
   3  -3 -13   24.40   14.30
  -3  -3  13   42.10   11.50
   3  -3 -13   22.10   17.70
  -3   3  13   22.90   27.10
   3   3 -13   20.40   23.50
  -3   3  13    5.70   20.90
   3   3 -13   39.50   19.50
  -3   3  13   16.10   22.60
   3   3 -13   62.79   19.10
   3   3 -13   33.70   14.00
   2  -3 -13   51.69   14.60
  -2  -3  13   48.70   19.40
   2  -3 -13   67.49   18.80
  -2  -3  13   41.40   12.30
   2  -3 -13   17.50   27.20
  -2  -3  13   49.50   13.70
   2  -3 -13   58.79   21.90
   2  -3 -13   59.69   16.30
  -2   3  13   34.40   22.40
  -2   3  13   14.30   26.80
   2   3 -13   47.00   14.60
   2   3 -13   66.09   20.10
   2   3 -13   17.90   18.70
   2   3 -13   87.99   26.10
  -2   3  13   21.10   21.90
  -2   3  13   71.39   36.50
  -1  -3  13 1389.56   72.49
  -1  -3  13 1434.26  126.49
  -1  -3  13 1480.05   66.49
   1  -3 -13 1520.25   76.49
   1  -3 -13 1517.15   67.29
   1  -3 -13 1509.15   69.49
   1  -3 -13 1516.05   70.99
  -1  -3  13 1486.05   78.59
   1  -3 -13 1507.45   84.49
  -1  -3  13 1462.25   64.69
  -1   3  13 1455.65   79.79
   1   3 -13 1573.64   76.29
   1   3 -13 1436.56   67.49
   1   3 -13 1530.15   71.79
  -1   3  13 1625.34   77.29
   1   3 -13 1481.65   72.59
  -1   3  13 1446.06   84.19
  -1   3  13 1532.95   73.29
   1   3 -13 1586.14   70.89
   0  -3 -13  469.95   34.80
   0  -3  13  461.65   28.00
   0  -3 -13  428.66   40.70
   0  -3  13  485.95   37.60
   0  -3 -13  438.56   41.90
   0  -3  13  398.66   41.80
   0  -3  13  436.56   29.70
   0  -3  13  526.55   86.09
   0  -3 -13  491.15   51.39
   0  -3 -13  469.55   32.50
   0   3  13  453.05   38.80
   0   3 -13  484.55   45.40
   0   3 -13  512.15   36.80
   0   3  13  482.95   42.40
   0   3  13  503.65   48.50
   0   3 -13  461.05   38.40
   0   3  13  362.96   57.09
   0   3  13  369.46   51.59
   0   3 -13  452.25   38.90
  -1  -3 -13  360.06   49.00
  -1  -3 -13  240.68   31.50
  -1  -3 -13  210.18   28.50
   1  -3  13  270.47   32.10
  -1  -3 -13  278.47   25.90
   1  -3  13  327.57   22.90
   1  -3  13  269.97   37.40
   1  -3  13  266.07   23.70
   1  -3  13  269.07   50.09
  -1  -3 -13  294.17   32.00
   1   3  13  280.47   35.90
  -1   3 -13  285.37   33.40
   1   3  13  223.98   42.40
  -1   3 -13  287.67   32.40
  -1   3 -13  341.37   38.70
   1   3  13  236.68   37.20
   1   3  13  201.78   36.40
   1   3  13  280.87   35.00
  -1   3 -13  288.07   31.80
   2  -3  13  -24.60   45.40
  -2  -3 -13   17.60   16.10
   2  -3  13    9.60    9.90
  -2  -3 -13   33.90   27.90
   2  -3  13  -15.90   18.30
   2  -3  13   13.90   12.00
  -2  -3 -13   12.90   13.40
   2  -3  13   -0.80   14.60
  -2  -3 -13    5.70   21.10
   2   3  13    5.80   29.60
   2   3  13   -1.30   22.40
   2   3  13  -20.90   18.00
  -2   3 -13   18.00   18.40
  -2   3 -13   -7.70   22.50
  -2   3 -13   -3.40   15.40
  -2   3 -13    2.10   17.40
   2   3  13   -2.00   27.90
   2   3  13  -12.40   18.60
   3  -3  13  137.49   23.70
   3  -3  13  162.08   26.80
   3  -3  13  168.68   18.50
  -3  -3 -13  180.98   32.50
  -3  -3 -13  142.39   23.00
   3  -3  13  132.79   16.70
  -3  -3 -13  104.09   19.40
  -3  -3 -13  125.39   23.90
  -3   3 -13  135.79   22.90
   3   3  13  154.78   36.60
   3   3  13   67.49   29.50
  -3   3 -13   91.29   18.30
   3   3  13  141.19   22.40
  -3   3 -13  137.59   24.30
   3   3  13  123.59   20.70
   3   3  13   85.89   29.90
  -4  -3 -13   12.00   13.60
  -4  -3 -13  -13.90   30.10
  -4  -3 -13   17.50   17.30
   4  -3  13   17.60   23.60
   4  -3  13  -25.60   44.20
   4  -3  13   18.60   11.40
   4   3  13    0.10   23.90
   4   3  13   -1.10   20.50
  -4   3 -13   15.50   21.50
   4   3  13   63.09   33.20
  -4   3 -13   22.20   21.70
   4   3  13   19.50   21.00
  -5  -3 -13  -28.10   31.30
   5  -3  13   -1.40   34.90
   5  -3  13   32.60   21.70
   5  -3  13   10.20   13.30
  -5  -3 -13   31.00   13.10
   5  -3  13   29.30   17.60
  -5  -3 -13   22.70   14.70
  -5   3 -13   10.60   14.30
  -5   3 -13   38.50   20.20
  -5   3 -13   59.39   32.30
   5   3  13   19.20   19.70
   5   3  13   24.30   15.40
   5   3  13   17.60   23.80
  -6  -3 -13   53.69   13.90
   6  -3  13   67.89   29.20
  -6  -3 -13   45.40   14.20
  -6  -3 -13   78.29   34.50
   6  -3  13   84.49   18.20
   6  -3  13   80.99   14.60
   6   3  13   79.99   16.50
  -6   3 -13   85.79   20.80
   6   3  13   85.89   20.20
  -6   3 -13   56.19   15.50
   6   3  13   48.80   24.20
  -6   3 -13  105.19   19.20
  -7  -3 -13  166.08   21.10
  -7  -3 -13  150.18   20.20
   7  -3  13  152.78   23.20
   7  -3  13  159.88   25.50
   7  -3  13  165.18   25.50
   7   3  13  172.78   23.10
   7   3  13   97.99   25.00
   7   3  13  189.78   28.60
  -7   3 -13  166.88   26.00
  -7   3 -13  165.58   21.90
  -8  -3 -13   43.60   14.90
   8  -3  13   26.40   18.20
  -8  -3 -13   32.00   10.70
  -8  -3 -13   15.70   11.30
   8  -3  13   29.60   15.10
   8   3  13   32.50   17.80
  -8   3 -13   65.59   16.90
   8   3  13   16.60   11.70
  -8   3 -13   52.19   12.10
   8  -4 -13  152.68   16.30
   8  -4 -13  159.18   32.10
   8  -4 -13  132.29   23.70
  -8   4  13  147.19   22.40
   8   4 -13  118.09   12.00
   7  -4 -13   -0.30    8.90
   7  -4 -13   30.90   18.80
   7  -4 -13  -23.50   34.50
  -7  -4  13   19.50   25.30
   7   4 -13   11.50    8.00
  -7   4  13   -7.10   16.90
   6  -4 -13    0.30   46.50
   6  -4 -13   21.70   10.90
   6  -4 -13   31.70   18.10
  -6  -4  13   41.60   12.50
  -6   4  13    7.30   35.70
  -6   4  13   34.00   19.70
   6   4 -13   33.10    9.00
  -5  -4  13   62.29   16.90
   5  -4 -13   85.79   23.30
  -5  -4  13   68.09   16.90
   5  -4 -13  124.19   15.70
   5  -4 -13   99.59   16.90
  -5   4  13   59.29   20.10
   5   4 -13  110.49   15.00
  -5   4  13   93.79   27.10
   4  -4 -13  210.08   24.30
  -4  -4  13  228.28   19.70
  -4  -4  13  244.08   26.20
   4  -4 -13  230.08   20.50
   4  -4 -13  224.68   38.70
   4   4 -13  212.48   19.90
  -4   4  13  260.57   41.20
  -4   4  13  206.38   26.40
   4   4 -13  229.98   31.60
   3  -4 -13  233.48   25.80
   3  -4 -13  191.18   24.50
  -3  -4  13  241.08   41.30
   3  -4 -13  207.68   21.90
  -3  -4  13  135.19   22.60
   3  -4 -13  172.98   29.80
  -3  -4  13  175.78   18.90
  -3   4  13  115.49   25.20
   3   4 -13  207.78   24.80
  -3   4  13  154.38   23.80
   3   4 -13  186.08   19.50
  -2  -4  13   12.40   19.50
  -2  -4  13    4.90   10.60
   2  -4 -13    9.00   11.40
   2  -4 -13   19.00   14.80
   2  -4 -13    6.20   23.50
  -2  -4  13   13.00    9.60
   2  -4 -13   24.80   12.80
  -2   4  13   17.80   20.70
   2   4 -13   19.80   15.70
  -2   4  13    3.20   18.60
   2   4 -13   10.00   11.80
  -2   4  13   24.30   17.20
   1  -4 -13  375.76   47.60
  -1  -4  13  252.97   33.50
  -1  -4  13  239.78   21.50
  -1  -4  13  249.97   20.30
   1  -4 -13  221.28   24.00
   1  -4 -13  234.58   25.40
   1   4 -13  278.17   29.90
  -1   4  13  222.58   33.70
   1   4 -13  255.47   24.20
  -1   4  13  235.48   32.70
   1   4 -13  229.48   30.30
  -1   4  13  219.98   39.70
   0  -4  13  215.98   28.70
   0  -4 -13  161.18   21.60
   0  -4  13  221.48   35.80
   0  -4 -13  210.88   32.60
   0  -4  13  180.28   18.70
   0  -4  13  212.58   20.20
   0  -4 -13  222.08   24.30
   0   4 -13  193.28   29.20
   0   4 -13  164.18   24.00
   0   4  13  245.98   33.80
   0   4  13  206.78   25.00
   0   4 -13  194.98   27.00
   1  -4  13   61.89   19.20
   1  -4  13   40.70   14.90
   1  -4  13   51.69   11.00
  -1  -4 -13   36.70   13.00
   1  -4  13   26.40    8.90
  -1  -4 -13   52.49   13.60
  -1  -4 -13   59.69   28.80
   1   4  13   52.49   16.40
  -1   4 -13   27.60   13.30
   1   4  13   53.79   24.70
  -1   4 -13   47.80   15.80
   1   4  13   98.79   20.60
  -1   4 -13   12.60   14.80
   1   4  13   25.30   21.40
   2  -4  13  170.98   24.90
  -2  -4 -13  188.08   32.90
  -2  -4 -13  130.79   20.90
   2  -4  13  125.79   19.30
   2  -4  13  159.18   28.30
  -2  -4 -13  115.39   18.40
   2  -4  13  113.99   15.60
   2   4  13  142.99   27.90
  -2   4 -13  124.39   17.60
  -2   4 -13  128.09   18.20
  -2   4 -13  168.38   24.40
   2   4  13  136.39   19.90
   2   4  13  128.79   21.10
  -3  -4 -13  121.39   33.40
   3  -4  13   69.19   14.40
   3  -4  13   68.99   14.60
   3  -4  13   53.99    9.10
  -3  -4 -13   69.49   13.30
   3  -4  13   65.99   16.70
  -3  -4 -13   55.69   13.40
   3   4  13   50.49   27.50
   3   4  13   59.89   16.10
  -3   4 -13   56.29   15.10
  -3   4 -13   65.89   15.10
  -3   4 -13   74.99   16.30
   3   4  13   48.10   17.60
   4  -4  13   24.20   14.60
   4  -4  13   28.00   11.20
   4  -4  13   12.10    9.70
  -4  -4 -13   19.70   11.60
  -4  -4 -13   27.10   11.10
   4   4  13  -35.10   41.90
  -4   4 -13   25.70   12.10
   4   4  13   32.00   12.70
  -4   4 -13   35.00   13.00
  -4   4 -13   19.90   14.10
   4   4  13   41.60   16.90
  -5  -4 -13    5.10   10.70
  -5  -4 -13   17.90   12.60
   5  -4  13   15.80   10.00
   5  -4  13   16.60   12.40
   5  -4  13   36.80   21.60
   5   4  13    7.00   11.10
  -5   4 -13    0.00   11.70
  -5   4 -13   16.70   11.40
   5   4  13    1.60   17.30
  -6  -4 -13   14.90   10.70
   6  -4  13   20.70   10.40
   6  -4  13   -2.60   11.60
   6   4  13   -0.90   14.90
  -6   4 -13   19.40   11.00
  -6   4 -13    8.80   11.60
   6   4  13    7.30   11.50
   4  -5 -13   64.39   15.30
   4  -5 -13   54.59    9.30
   4   5 -13   87.99   10.90
  -3  -5  13   57.69   15.90
   3  -5 -13   52.19    7.70
   3  -5 -13   41.80    9.60
   3  -5 -13   48.60   17.40
  -3  -5  13   41.60   11.00
   3   5 -13   76.19   12.00
  -3   5  13   51.09   19.90
   2  -5 -13   16.30    7.00
  -2  -5  13   22.80   11.10
   2  -5 -13   64.69   18.50
  -2  -5  13   18.80    9.00
   2  -5 -13   12.40    9.00
  -2   5  13   16.10   21.00
   2   5 -13   14.10    9.50
  -1  -5  13   54.19   11.40
   1  -5 -13   21.20    9.90
  -1  -5  13   43.10    8.30
   1  -5 -13   48.10   13.00
   1  -5 -13   59.59   22.50
  -1   5  13   55.19   22.20
   1   5 -13   63.49   22.10
   0  -5  13   23.50    6.90
   0  -5  13   44.80   16.30
   0  -5 -13   57.19   24.60
   0  -5 -13   20.20   12.00
   0  -5 -13   18.60    9.40
   0  -5 -13   26.90    9.90
   0  -5  13   15.90   11.30
   0   5  13   33.90   21.10
   0   5  13    2.90   13.10
   0   5 -13    5.20   19.40
   1  -5  13   -7.40   12.10
  -1  -5 -13    7.70    9.50
  -1  -5 -13    4.70    7.30
   1  -5  13   14.70    6.90
  -1  -5 -13    8.40   11.00
   1   5  13    7.90   14.20
   1   5  13   -2.50   18.00
  -1   5 -13   11.70   17.90
   2  -5  13   30.30    7.60
   2  -5  13   45.20   11.90
  -2  -5 -13   59.39   10.60
 -12   0  14  112.09   15.70
 -12   0  14   86.09   13.40
  12   0 -14   92.79   17.00
  12   0 -14   80.59   15.80
 -12   0  14  143.99   21.00
 -11   0  14    6.70   11.90
  11   0 -14  -25.50   17.70
  11   0 -14    5.10   15.50
 -11   0  14    4.10   13.70
  10   0 -14   15.70   17.20
  10   0 -14    7.50    8.90
 -10   0  14   16.00   13.80
 -10   0  14   45.00   19.10
  10   0 -14    6.40   15.70
 -10   0  14   10.10   14.30
  10   0 -14   17.90   20.10
  10   0 -14  -20.90   18.00
   9   0 -14   16.10   21.10
  -9   0  14    9.50   19.20
   9   0 -14    5.60   22.20
   9   0 -14    6.40   17.20
   9   0 -14   -5.70   11.80
  -9   0  14    4.50   14.00
  -9   0  14   18.10   18.00
  -8   0  14  271.97   32.10
  -8   0  14  380.36   99.29
  -8   0  14  299.97   35.50
   8   0 -14  321.57   39.20
   8   0 -14  300.47   24.40
  -8   0  14  278.17   28.20
   8   0 -14  334.87   36.70
   8   0 -14  289.87   32.20
   7   0 -14   32.30   20.90
   7   0 -14   49.10   23.60
   7   0 -14    4.60   11.90
  -7   0  14    3.30   46.70
  -7   0  14   16.00   18.20
   7   0 -14   17.50   21.20
  -7   0  14   47.70   17.50
  -7   0  14   35.10   15.80
  -6   0  14  186.48   30.20
   6   0 -14  174.48   28.00
   6   0 -14  158.98   23.00
  -6   0  14  175.48   25.20
   6   0 -14  146.99   27.60
  -6   0  14  165.68   37.60
  -6   0  14  156.78   41.60
   6   0 -14  161.38   23.80
   5   0 -14   24.90   21.00
  -5   0  14  -23.40   29.90
  -5   0  14   30.40   15.10
   5   0 -14  -16.00   18.90
   5   0 -14  -12.10   20.60
  -5   0  14   -1.10   15.90
  -5   0  14  -40.90   37.50
   5   0 -14   36.90   15.50
   4   0 -14  100.69   19.10
  -4   0  14  106.49   29.30
   4   0 -14   70.89   23.30
  -4   0  14  122.59   28.70
   4   0 -14   93.49   22.00
   4   0 -14   36.80   62.09
  -4   0  14   93.79   16.00
  -4   0  14   97.39   19.40
   4   0 -14   69.29   26.40
  -4   0  14   90.69   19.90
   4   0 -14   91.89   23.20
  -3   0  14  113.19   16.30
  -3   0  14   67.29   43.50
  -3   0  14  107.49   19.30
   3   0 -14   93.79   24.30
  -3   0  14   97.09   18.30
   3   0 -14   45.60   22.40
   3   0 -14   92.39   12.40
  -3   0  14  101.79   28.70
   3   0 -14   64.79   21.00
  -3   0  14   45.70   23.30
   2   0 -14  234.38   37.70
  -2   0  14  277.07   38.50
   2   0 -14  226.08   33.80
  -2   0  14  277.67   29.50
  -2   0  14  258.17   29.80
  -2   0  14  276.97   26.10
  -2   0  14  255.27   49.20
   2   0 -14  234.18   30.50
   2   0 -14  249.78   20.00
  -1   0  14  362.86   37.80
  -1   0  14  381.36   53.39
  -1   0  14  419.46   40.60
   1   0 -14  332.97   35.40
   1   0 -14  361.06   24.00
  -1   0  14  371.06   30.40
   1   0 -14  490.15   51.69
  -1   0  14  329.87   32.40
   1   0 -14  401.16   59.89
  -1   0  14  424.26   67.29
  -1   0  14  381.66   39.70
   0   0 -14  363.86   58.29
   0   0  14  346.07   52.49
   0   0  14  432.86   40.50
   0   0  14  563.54   37.90
   0   0 -14  445.66   44.10
   0   0 -14  469.45   28.20
   0   0 -14  496.95   37.90
   0   0  14  575.84   37.20
   0   0  14  539.75   42.90
   0   0 -14  477.95   50.09
  -1   0 -14   26.40   20.00
   1   0  14   41.60   20.30
  -1   0 -14    8.60   11.10
   1   0  14   29.30   21.30
   1   0  14   27.30   16.40
   1   0  14   49.90   28.60
  -1   0 -14   13.30   17.30
  -1   0 -14  -16.80   26.30
   1   0  14  -10.30   26.50
  -1   0 -14   22.40   17.30
   1   0  14   -7.60   26.60
   2   0  14   44.40   17.60
  -2   0 -14   21.30   17.80
  -2   0 -14   19.70   12.60
  -2   0 -14  -20.40   29.80
   2   0  14   60.79   21.00
   2   0  14   26.40   25.30
   2   0  14   40.30   25.50
   2   0  14   78.99   24.80
  -2   0 -14   10.30   17.70
  -2   0 -14   34.90   18.30
   3   0  14   -1.20   23.70
   3   0  14    7.20   42.20
  -3   0 -14    6.10   34.90
   3   0  14   16.10   17.80
  -3   0 -14  -26.40   16.50
  -3   0 -14    7.70   17.20
  -3   0 -14  -17.50   16.80
  -3   0 -14   -5.30   14.10
   3   0  14   22.90   24.10
   3   0  14   26.70   24.80
   4   0  14  148.79   29.80
  -4   0 -14  185.58   44.20
   4   0  14  285.07   38.20
   4   0  14  235.78   35.50
  -4   0 -14  172.98   29.90
   4   0  14  187.98   34.90
  -4   0 -14  266.97   30.40
   4   0  14  137.59   40.20
  -4   0 -14  219.68   31.20
   5   0  14  424.16   42.90
  -5   0 -14  406.26   35.90
  -5   0 -14  384.76   33.90
   5   0  14  380.76   59.99
   5   0  14  287.97   55.19
  -5   0 -14  385.46   35.20
  -5   0 -14  371.16   41.80
   5   0  14  369.66   45.20
  -6   0 -14  358.96   34.30
  -6   0 -14  328.37   29.80
   6   0  14  282.07   36.30
   6   0  14  398.36   44.60
  -6   0 -14  362.46   33.60
   6   0  14  271.47   49.70
  -7   0 -14  439.76   37.20
  -7   0 -14  486.45   34.20
   7   0  14  455.25   45.10
   7   0  14  356.46   46.20
   7   0  14  485.15   36.90
  -7   0 -14  481.05   32.30
  -8   0 -14   -4.80   19.80
   8   0  14   -4.20   19.10
   8   0  14   23.20   21.60
  -8   0 -14    4.30   13.50
   8   0  14    2.40   15.00
  -8   0 -14    6.50   11.90
   9   0  14  101.59   24.70
   9   0  14   62.99   17.40
  -9   0 -14  117.89   19.50
  -9   0 -14   58.79   12.90
   9   0  14   85.49   15.90
  10   0  14   13.00   15.30
  12  -1 -14   51.49   14.40
 -12  -1  14   30.90   12.00
  12  -1 -14   68.39   12.60
 -12   1  14   54.79   12.10
 -12   1  14   62.69   12.00
 -11  -1  14  122.49   16.00
  11  -1 -14   72.39   13.80
  11  -1 -14   92.29   18.70
 -11  -1  14   97.99   15.20
  11  -1 -14   88.29   17.90
 -11   1  14  119.49   21.90
  11   1 -14  120.89   28.20
 -11   1  14  118.29   15.60
  11   1 -14  118.49   29.10
 -11   1  14   88.79   13.80
  11   1 -14  117.79   12.90
 -10  -1  14   57.99   24.00
 -10  -1  14   32.60   13.60
  10  -1 -14   30.00   18.70
 -10  -1  14   52.09   16.40
  10  -1 -14   47.00   20.30
  10   1 -14    0.80   23.00
  10   1 -14   17.80   25.40
  10   1 -14   47.60   11.10
 -10   1  14   24.50   13.40
 -10   1  14  -10.70   21.30
  10   1 -14   38.40   16.20
 -10   1  14   37.50   17.00
   9  -1 -14   24.70   22.40
  -9  -1  14   40.90   15.50
   9  -1 -14   35.60   20.70
  -9  -1  14   47.30   22.10
  -9  -1  14   48.00   14.00
   9  -1 -14   32.60   20.30
  -9   1  14   59.79   17.80
   9   1 -14   35.70   19.30
   9   1 -14   62.19   28.70
   9   1 -14   18.90   26.80
  -9   1  14   17.20   15.20
   9   1 -14   19.60   11.20
  -9   1  14   30.70   19.20
   9   1 -14  -14.00   25.40
   8  -1 -14   25.20   22.70
   8  -1 -14   49.10   31.40
   8  -1 -14   20.10   20.70
  -8  -1  14   39.80   28.30
  -8  -1  14   -0.60   14.50
   8  -1 -14   12.90   23.70
   8   1 -14   -5.90   25.80
  -8   1  14   26.80   17.80
   8   1 -14  -26.80   37.10
  -8   1  14   25.60   19.00
   8   1 -14   18.10   32.00
   8   1 -14   24.50   11.40
  -8   1  14   22.90   15.60
   8   1 -14   19.10   17.70
   7  -1 -14  946.31   57.99
   7  -1 -14  936.51   56.89
   7  -1 -14  937.31   62.59
   7  -1 -14  940.71   61.29
   7  -1 -14  947.01   47.10
  -7  -1  14  980.30   48.50
  -7  -1  14  872.11   52.79
  -7  -1  14  982.20   54.99
   7   1 -14  951.90   64.59
  -7   1  14  908.21   79.89
  -7   1  14 1001.10   56.99
   7   1 -14  972.40   46.70
   7   1 -14  951.50   55.29
   7   1 -14  950.10   55.99
  -7   1  14  945.61   52.79
  -7   1  14 1002.20   51.99
   6  -1 -14  172.88   45.40
   6  -1 -14  155.18   24.50
   6  -1 -14  149.69   23.90
  -6  -1  14  109.39   20.30
   6  -1 -14  175.98   28.00
   6  -1 -14  145.59   27.70
  -6  -1  14  177.28   21.60
  -6  -1  14  211.68   36.70
  -6  -1  14  146.09   55.69
   6   1 -14  165.68   32.30
  -6   1  14  207.38   35.00
  -6   1  14  195.28   30.00
  -6   1  14  136.99   39.40
   6   1 -14  212.08   35.20
  -6   1  14  113.59   21.20
   6   1 -14  232.88   33.10
   6   1 -14  172.78   23.30
  -6   1  14  107.19   46.30
  -5  -1  14   85.29   17.80
   5  -1 -14  108.09   24.40
   5  -1 -14   95.99   19.00
   5  -1 -14   60.69   37.60
   5  -1 -14  104.49   29.10
  -5  -1  14   92.29   18.00
   5  -1 -14   78.49   28.00
   5  -1 -14   68.29   21.10
  -5  -1  14  101.09   44.00
  -5  -1  14   90.59   28.00
  -5   1  14   58.89   31.80
   5   1 -14  106.59   22.50
   5   1 -14   89.69   21.80
   5   1 -14  113.49   17.00
  -5   1  14   64.29   17.60
  -5   1  14   69.49   37.60
  -5   1  14  102.09   19.30
  -5   1  14  117.59   19.10
   5   1 -14  108.79   23.40
  -5   1  14   39.70   26.40
   5   1 -14   49.00   29.70
  -4  -1  14   -9.40   33.80
  -4  -1  14   17.60   11.20
   4  -1 -14   23.80   21.30
  -4  -1  14   20.50   16.20
   4  -1 -14   -0.70   23.50
   4  -1 -14   27.80   28.40
   4  -1 -14   28.40   11.10
   4  -1 -14   20.10   19.00
  -4  -1  14    0.30   14.70
   4  -1 -14  -22.10   31.80
  -4  -1  14   -4.90   23.10
  -4   1  14   35.10   17.70
  -4   1  14    4.80   28.00
   4   1 -14   28.70   19.20
  -4   1  14   81.39   36.20
  -4   1  14   33.50   18.30
   4   1 -14   31.70   16.00
  -4   1  14   22.20   30.20
  -4   1  14   25.20   16.10
   4   1 -14   16.60   21.50
   4   1 -14   54.99   29.10
   4   1 -14   17.50   19.20
  -3  -1  14   81.29   13.50
  -3  -1  14   63.59   24.10
  -3  -1  14   84.39   17.70
  -3  -1  14   94.89   31.50
   3  -1 -14   97.79   21.30
   3  -1 -14   74.49   23.90
   3  -1 -14  108.69   16.60
   3  -1 -14   93.79   33.50
   3  -1 -14   76.29   22.30
  -3  -1  14   80.09   16.80
   3  -1 -14  104.39   29.20
  -3   1  14   89.79   19.80
   3   1 -14   85.99   23.30
  -3   1  14  125.39   22.30
  -3   1  14  143.99   35.00
  -3   1  14   73.99   18.80
   3   1 -14   59.69   29.20
   3   1 -14  118.49   20.80
  -3   1  14   84.99   28.40
   3   1 -14   99.99   21.70
  -3   1  14   79.69   23.40
   3   1 -14   74.49   19.60
  -2  -1  14  362.36   38.40
  -2  -1  14  319.77   24.10
   2  -1 -14  315.17   37.30
   2  -1 -14  365.26   53.59
   2  -1 -14  319.17   32.40
   2  -1 -14  348.57   22.90
   2  -1 -14  270.97   37.70
  -2  -1  14  336.97   27.80
  -2  -1  14  337.87   46.50
   2  -1 -14  371.36   35.50
  -2  -1  14  360.46   32.30
  -2   1  14  376.86   47.60
  -2   1  14  315.97   47.30
  -2   1  14  333.07   33.30
   2   1 -14  370.76   37.40
   2   1 -14  352.56   38.60
  -2   1  14  309.37   37.30
   2   1 -14  333.77   34.30
  -2   1  14  288.37   36.50
  -1  -1  14  292.47   36.10
   1  -1 -14  205.38   29.40
  -1  -1  14  210.08   31.50
   1  -1 -14  191.48   35.30
  -1  -1  14  195.48   21.10
   1  -1 -14  224.38   27.30
   1  -1 -14  188.58   27.60
  -1  -1  14  197.88   28.10
   1  -1 -14  254.37   20.60
   1  -1 -14  228.38   32.90
  -1  -1  14  199.18   25.00
   1   1 -14  236.08   31.30
  -1   1  14  209.28   30.70
  -1   1  14  227.78   45.10
  -1   1  14  206.18   32.50
   1   1 -14  224.68   28.20
  -1   1  14  216.48   33.10
  -1   1  14  199.08   30.90
   1   1 -14  168.48   25.70
   0  -1  14  270.87   39.90
   0  -1 -14  252.17   39.90
   0  -1 -14  231.58   31.10
   0  -1  14  213.18   25.40
   0  -1  14  287.07   35.70
   0  -1 -14  229.78   29.10
   0  -1  14  285.07   31.20
   0  -1  14  285.57   57.39
   0  -1 -14  275.37   33.40
   0  -1 -14  259.17   21.70
   0  -1 -14  269.67   28.90
   0  -1  14  224.68   23.30
   0  -1  14  273.77   46.90
   0   1  14  290.47   36.40
   0   1 -14  243.38   24.90
   0   1  14  236.08   33.10
   0   1  14  286.27   46.40
   0   1 -14  243.58   38.70
   0   1  14  265.27   32.90
   0   1 -14  247.28   31.60
   0   1 -14  305.67   58.69
   0   1  14  230.08   40.90
   0   1 -14  245.28   36.30
   0   1  14  269.57   37.60
   1  -1  14  146.09   26.10
   1  -1  14  111.59   26.00
   1  -1  14  102.19   18.20
   1  -1  14  144.59   23.80
  -1  -1 -14  143.99   44.70
   1  -1  14   86.39   39.60
  -1  -1 -14  125.99   20.10
   1  -1  14  143.89   23.10
  -1  -1 -14  128.39   18.80
   1  -1  14  100.39   15.90
  -1  -1 -14   97.89   21.40
  -1  -1 -14  132.69   20.90
  -1   1 -14  146.19   25.30
   1   1  14  145.99   33.00
  -1   1 -14   75.59   30.70
   1   1  14   85.59   24.70
  -1   1 -14  227.08   36.30
   1   1  14  122.09   34.00
  -1   1 -14  113.79   20.60
  -1   1 -14  187.88   23.60
   1   1  14  117.49   23.00
   1   1  14   56.89   26.90
   2  -1  14   -5.00   18.70
   2  -1  14   33.40   23.10
   2  -1  14   72.49   29.20
  -2  -1 -14   22.90   15.40
  -2  -1 -14   36.50   18.30
  -2  -1 -14   24.30   17.10
   2  -1  14   28.10   17.00
   2  -1  14   30.50   26.80
   2  -1  14   -7.20   15.40
   2  -1  14   35.50   31.20
  -2   1 -14   21.40   23.10
   2   1  14   39.00   27.00
  -2   1 -14   24.20   17.00
   2   1  14   36.50   23.40
  -2   1 -14   12.20   31.00
   2   1  14   12.30   29.50
   2   1  14   -1.30   27.90
  -2   1 -14    8.40   23.20
   2   1  14  -21.50   24.90
   3  -1  14   78.09   21.40
   3  -1  14   55.79   22.00
   3  -1  14   55.79   15.90
   3  -1  14   76.89   26.30
  -3  -1 -14   65.79   17.70
   3  -1  14   55.29   24.30
  -3  -1 -14   68.39   20.40
  -3  -1 -14   57.09   19.00
  -3  -1 -14   63.69   16.80
   3  -1  14   63.19   30.30
  -3   1 -14   93.79   18.00
   3   1  14   43.40   35.90
  -3   1 -14   40.60   23.50
  -3   1 -14   65.19   23.50
  -3   1 -14   77.19   21.50
   3   1  14   61.69   30.70
  -3   1 -14   69.29   20.60
   3   1  14   81.59   22.40
   3   1  14   80.49   28.30
   3   1  14   41.10   29.20
   4  -1  14   70.29   25.50
   4  -1  14   63.69   16.50
  -4  -1 -14   40.90   17.40
  -4  -1 -14   35.40   16.10
  -4  -1 -14   51.19   19.20
  -4  -1 -14   47.90   20.90
   4  -1  14   32.50   27.80
   4  -1  14   61.89   41.20
   4  -1  14   84.69   29.80
   4  -1  14   54.29   22.70
  -4   1 -14   34.20   27.10
   4   1  14   78.59   28.50
   4   1  14   40.10   19.30
  -4   1 -14   98.39   26.80
   4   1  14    9.20   31.20
  -4   1 -14   15.60   19.70
   4   1  14   70.19   28.10
  -4   1 -14   47.50   18.70
   4   1  14   43.50   32.80
  -4   1 -14   34.90   17.10
  -5  -1 -14   61.79   28.50
   5  -1  14  148.49   31.30
   5  -1  14   92.19   25.90
   5  -1  14   78.59   24.60
  -5  -1 -14  122.39   18.60
   5  -1  14  115.79   20.80
  -5  -1 -14  117.69   19.10
  -5  -1 -14  113.99   19.20
   5  -1  14  120.19   33.30
   5   1  14  113.29   20.70
  -5   1 -14  165.58   27.40
   5   1  14  111.19   29.80
  -5   1 -14   71.89   18.70
   5   1  14   42.40   31.20
  -5   1 -14   94.39   25.40
  -5   1 -14  141.29   21.70
   5   1  14   96.79   30.60
  -5   1 -14   81.39   29.10
   5   1  14  122.69   38.60
   6  -1  14   93.49   29.10
   6  -1  14  154.38   33.30
  -6  -1 -14  119.39   19.60
  -6  -1 -14  166.18   27.10
  -6  -1 -14  125.49   22.60
   6  -1  14  149.99   34.80
  -6   1 -14  121.69   26.30
  -6   1 -14  123.29   20.70
   6   1  14  133.09   35.00
  -6   1 -14  162.88   35.60
   6   1  14  104.79   30.70
   6   1  14  152.48   31.90
  -7  -1 -14  130.29   18.70
   7  -1  14  141.79   23.10
  -7  -1 -14  173.78   24.90
   7  -1  14  111.59   22.00
   7  -1  14   98.49   26.40
  -7  -1 -14  181.18   24.70
   7   1  14  121.89   26.30
   7   1  14  194.38   27.10
  -7   1 -14   55.19   36.90
  -7   1 -14  130.79   25.00
   7   1  14  117.69   25.90
  -7   1 -14  170.58   24.10
  -8  -1 -14    4.20   11.80
   8  -1  14   -5.50   17.80
  -8  -1 -14    4.00   14.10
   8  -1  14   15.50   19.30
  -8  -1 -14   10.50   21.30
   8  -1  14  -10.40   15.40
   8   1  14   34.70   16.10
   8   1  14   19.40   21.30
   8   1  14    4.80   17.80
  -8   1 -14   10.40   11.20
  -8   1 -14    4.20   17.80
   9  -1  14  100.99   15.70
   9  -1  14   70.09   19.00
  -9  -1 -14  117.69   14.70
  -9  -1 -14  145.99   23.00
  -9  -1 -14   78.49   12.00
   9  -1  14   94.99   25.00
   9   1  14   95.69   24.30
  -9   1 -14  119.39   14.70
 -11  -2  14   59.39   15.50
  11  -2 -14   65.59   13.30
  11  -2 -14   49.00   15.80
  11  -2 -14   52.69   18.10
 -11  -2  14   58.49   15.70
 -11   2  14   68.89   13.80
  11   2 -14   64.09    9.80
 -10  -2  14   18.80   15.30
  10  -2 -14   30.50   19.10
  10  -2 -14    1.20   15.50
 -10  -2  14   -7.30   12.40
  10  -2 -14   57.79   20.40
  10   2 -14   -3.30    7.80
 -10   2  14   13.20   14.40
   9  -2 -14  200.58   25.00
   9  -2 -14  217.68   36.50
  -9  -2  14  167.18   24.10
   9  -2 -14  189.78   26.20
   9   2 -14  178.38   22.90
  -9   2  14  370.86   83.39
  -9   2  14  140.29   20.60
   9   2 -14  194.28   18.50
  -9   2  14  196.78   21.10
  -8  -2  14  255.27   25.40
   8  -2 -14  252.17   36.20
  -8  -2  14  293.47   35.80
   8  -2 -14  279.67   30.90
  -8  -2  14  367.66   50.09
   8  -2 -14  306.17   42.40
   8   2 -14  253.47   33.40
  -8   2  14  217.98   33.30
   8   2 -14  266.77   22.20
  -8   2  14  197.88   35.60
  -8   2  14  252.87   33.60
  -7  -2  14  113.09   25.60
   7  -2 -14   68.09   27.20
   7  -2 -14   36.90   38.90
  -7  -2  14   59.99   15.70
  -7  -2  14   60.09   30.40
   7  -2 -14   84.79   23.40
   7   2 -14  109.39   22.50
  -7   2  14   54.69   37.30
  -7   2  14   77.89   21.90
  -7   2  14   85.59   22.00
   7   2 -14   77.29   13.20
   6  -2 -14  170.48   26.70
   6  -2 -14  170.08   22.10
  -6  -2  14  171.28   21.40
   6  -2 -14  148.89   34.00
  -6  -2  14  222.58   25.20
   6  -2 -14  231.88   37.60
  -6  -2  14  169.88   22.90
  -6  -2  14  123.39   32.60
   6   2 -14  247.28   34.00
  -6   2  14  113.29   36.90
   6   2 -14  183.38   22.10
  -6   2  14  231.48   37.20
   6   2 -14  204.38   34.60
  -6   2  14  176.18   37.80
   6   2 -14  125.29   21.10
  -6   2  14  217.58   35.80
  -6   2  14  247.28   39.50
   5  -2 -14  346.17   37.70
  -5  -2  14  293.07   24.00
  -5  -2  14  266.07   30.30
   5  -2 -14  224.38   38.00
   5  -2 -14  315.47   35.10
  -5  -2  14  297.87   33.80
   5  -2 -14  314.77   26.50
  -5  -2  14  274.47   41.00
   5  -2 -14  260.87   38.60
  -5   2  14  255.57   37.10
  -5   2  14  259.97   36.00
   5   2 -14  304.37   34.40
   5   2 -14  287.37   35.90
   5   2 -14  307.17   34.30
  -5   2  14  281.47   41.00
  -5   2  14  317.17   40.20
   5   2 -14  263.37   25.30
   4  -2 -14  882.41   64.39
   4  -2 -14  867.51   68.39
  -4  -2  14  870.81   48.60
   4  -2 -14  841.32   44.90
   4  -2 -14  797.52   41.70
   4  -2 -14  791.02   50.09
  -4  -2  14  814.32   44.20
   4  -2 -14  792.62   52.79
  -4   2  14  763.82   63.99
   4   2 -14  859.11   50.79
  -4   2  14  781.62   53.29
  -4   2  14  766.62   58.99
   4   2 -14  889.71   50.59
   4   2 -14  857.91   43.40
   4   2 -14  823.02   50.09
  -4   2  14  831.12   60.79
   3  -2 -14   31.70   15.90
   3  -2 -14   36.70   13.30
   3  -2 -14   37.00   17.40
  -3  -2  14   49.00   14.10
   3  -2 -14   19.70   25.70
   3  -2 -14   37.60   19.50
  -3  -2  14   20.50   10.30
   3  -2 -14  -32.00   37.30
  -3  -2  14  -32.20   46.20
  -3  -2  14   -1.20   15.50
   3   2 -14   53.19   21.20
   3   2 -14   32.20   17.50
   3   2 -14   18.00   18.90
  -3   2  14   41.70   26.70
  -3   2  14   25.60   25.90
  -3   2  14   -2.20   27.70
  -3   2  14  -14.80   21.70
   3   2 -14   -9.60   15.60
  -2  -2  14  205.98   20.10
  -2  -2  14  206.18   24.80
   2  -2 -14  193.98   22.90
   2  -2 -14  191.18   21.80
   2  -2 -14  245.18   45.60
  -2  -2  14  254.77   31.10
  -2  -2  14  121.49   44.50
   2  -2 -14  199.78   26.80
   2  -2 -14  239.28   34.00
   2  -2 -14  228.98   26.70
   2   2 -14  217.18   32.00
   2   2 -14  149.19   23.70
  -2   2  14  264.77   40.00
  -2   2  14  208.28   30.10
  -2   2  14  147.99   44.80
  -2   2  14  217.38   35.90
   2   2 -14  178.38   24.10
   2   2 -14  230.58   33.20
   1  -2 -14  492.55   33.50
  -1  -2  14  503.05   55.69
   1  -2 -14  537.35   43.40
  -1  -2  14  571.34   62.59
   1  -2 -14  496.15   31.90
   1  -2 -14  518.75   84.39
   1  -2 -14  526.35   36.20
  -1  -2  14  444.56   38.40
  -1  -2  14  457.75   28.30
   1  -2 -14  437.26   53.39
  -1  -2  14  502.85   31.20
  -1   2  14  484.85   40.10
   1   2 -14  425.76   41.00
   1   2 -14  489.85   38.50
  -1   2  14  439.26   52.49
   1   2 -14  485.45   39.40
  -1   2  14  436.66   63.09
  -1   2  14  524.45   44.90
  -1   2  14  505.25   55.19
   0  -2 -14  159.28   22.90
   0  -2 -14  142.39   19.70
   0  -2 -14  106.69   25.20
   0  -2  14  147.99   21.50
   0  -2 -14  118.09   16.60
   0  -2  14  129.69   29.50
   0  -2  14  107.09   15.40
   0  -2  14  121.89   18.30
   0  -2  14  194.38   37.40
   0   2  14  121.29   33.70
   0   2  14  163.18   25.30
   0   2  14  111.89   24.70
   0   2 -14  195.08   32.30
   0   2 -14  106.49   21.00
   0   2  14  143.89   35.50
   0   2 -14  107.49   21.60
  -1  -2 -14  117.39   38.10
   1  -2  14   97.79   14.70
   1  -2  14  105.59   32.20
   1  -2  14  124.19   19.10
   1  -2  14  132.09   27.70
  -1  -2 -14  121.89   20.90
   1  -2  14  140.69   20.90
  -1  -2 -14  131.19   17.70
  -1  -2 -14  119.79   18.60
  -1   2 -14   65.59   21.00
  -1   2 -14  140.09   23.20
  -1   2 -14   80.69   20.30
   1   2  14  133.29   33.00
   1   2  14   79.79   30.10
   1   2  14  101.99   23.50
   1   2  14  107.29   22.50
   2  -2  14  497.75   75.79
   2  -2  14  426.36   31.90
   2  -2  14  539.45   62.39
  -2  -2 -14  434.66   37.00
   2  -2  14  407.66   43.00
   2  -2  14  432.86   35.30
  -2  -2 -14  438.86   32.10
   2  -2  14  429.16   28.20
  -2  -2 -14  401.86   34.60
   2   2  14  386.96   52.19
  -2   2 -14  455.25   40.10
  -2   2 -14  383.56   36.70
   2   2  14  456.25   38.60
   2   2  14  346.97   53.49
  -2   2 -14  428.16   41.00
   2   2  14  481.35   41.50
   3  -2  14   36.90   16.70
   3  -2  14   36.60   21.30
  -3  -2 -14   28.90   25.00
  -3  -2 -14   43.10   15.30
   3  -2  14   34.60   19.30
   3  -2  14   51.09   34.90
  -3  -2 -14   66.19   18.10
   3  -2  14   24.30   20.60
   3  -2  14    8.70   35.10
   3  -2  14   19.00   12.70
   3   2  14   76.79   20.70
  -3   2 -14   77.39   20.40
  -3   2 -14   43.70   19.90
   3   2  14   54.99   30.40
   3   2  14   66.29   18.50
   3   2  14   43.20   27.40
  -3   2 -14   78.79   18.70
   4  -2  14  123.39   18.10
   4  -2  14  145.69   31.50
   4  -2  14  118.59   22.70
  -4  -2 -14  107.79   20.30
  -4  -2 -14  151.58   24.10
   4  -2  14  146.19   24.90
   4  -2  14  148.89   47.20
   4  -2  14  113.39   35.60
   4   2  14  110.09   34.70
   4   2  14  128.09   20.20
  -4   2 -14   85.09   19.20
   4   2  14  116.29   31.70
  -4   2 -14  136.09   22.40
   4   2  14  119.19   22.30
  -4   2 -14  150.88   25.10
  -5  -2 -14   90.69   29.20
  -5  -2 -14   80.79   15.00
   5  -2  14   78.29   29.30
   5  -2  14  116.79   25.20
   5  -2  14   93.49   18.40
   5   2  14   88.19   20.90
   5   2  14   90.19   40.70
  -5   2 -14   72.49   22.00
  -5   2 -14   71.29   21.60
   5   2  14   81.89   21.70
  -5   2 -14   72.99   20.90
   6  -2  14   81.49   21.30
  -6  -2 -14   95.89   15.70
   6  -2  14   68.59   25.10
   6  -2  14   53.79   15.50
   6  -2  14   33.40   30.90
  -6  -2 -14   64.69   15.00
  -6   2 -14   73.39   18.00
   6   2  14   41.30   24.30
   6   2  14   91.89   18.50
  -6   2 -14   87.09   17.10
  -6   2 -14   81.49   23.40
   6   2  14   92.39   21.10
   7  -2  14   26.00   20.20
   7  -2  14    2.70   23.40
   7  -2  14   -6.90   17.20
  -7  -2 -14    9.20   11.80
  -7  -2 -14    2.30   12.00
  -7   2 -14   24.70   22.00
  -7   2 -14   -3.20   15.40
   7   2  14    5.30   20.60
   7   2  14  -17.60   17.60
  -7   2 -14    8.60   12.20
  -8  -2 -14   13.10   11.20
   8  -2  14   18.70   15.80
   8  -2  14   30.40   16.70
   8  -2  14   43.50   22.70
  -8  -2 -14   19.00   10.40
   8   2  14   32.00   25.10
  -8   2 -14    8.90   11.00
   8   2  14   10.70   17.00
  -8   2 -14   37.70   17.30
  -8   2 -14  -25.10   22.40
  -9  -2 -14   37.10    8.80
   9  -2  14   37.50   12.70
   9  -2  14   31.30   17.30
  -9   2 -14   42.50   12.20
  10  -3 -14   63.79   13.10
  10  -3 -14   75.49   17.80
  10   3 -14   67.29   10.50
   9  -3 -14   32.80   20.60
   9  -3 -14   33.60   12.10
  -9  -3  14   30.30   18.10
   9  -3 -14   22.50   18.60
  -9  -3  14   54.59   15.10
  -9   3  14   45.00   20.30
  -9   3  14  -13.30   28.50
   9   3 -14   51.89    9.10
   8  -3 -14   33.90   43.00
   8  -3 -14   52.09   25.40
   8  -3 -14   58.49   13.00
  -8  -3  14   92.59   19.10
  -8  -3  14   41.20   13.50
   8  -3 -14   52.99   20.00
  -8   3  14   74.49   27.30
   8   3 -14   57.99    9.90
  -8   3  14   58.59   28.50
   7  -3 -14  108.49   25.00
   7  -3 -14   53.99   20.70
   7  -3 -14  113.59   32.20
   7  -3 -14   78.79   14.10
  -7  -3  14   86.49   19.80
  -7   3  14   80.39   25.40
   7   3 -14   46.00   22.70
   7   3 -14   91.89   12.70
   6  -3 -14   18.60   14.20
   6  -3 -14   -6.30   32.60
   6  -3 -14   -9.30   24.80
  -6  -3  14   26.90   15.80
   6  -3 -14   39.10   22.30
  -6  -3  14   -1.70   11.20
  -6   3  14   69.29   32.50
   6   3 -14  -37.90   21.60
   6   3 -14   12.40   11.00
  -6   3  14   10.80   21.40
   5  -3 -14  346.17   26.60
   5  -3 -14  295.57   51.49
  -5  -3  14  364.26   37.90
  -5  -3  14  243.58   40.00
  -5  -3  14  371.66   30.80
  -5  -3  14  295.47   23.40
   5  -3 -14  252.57   44.30
   5  -3 -14  393.16   40.40
   5  -3 -14  301.47   33.10
  -5   3  14  406.06   50.49
   5   3 -14  319.87   45.80
   5   3 -14  309.07   37.80
  -5   3  14  344.77   47.00
   5   3 -14  324.57   25.20
  -4  -3  14   -4.40   17.90
   4  -3 -14    4.20   15.60
  -4  -3  14   23.50   10.50
   4  -3 -14    3.60   46.30
   4  -3 -14   13.90   16.60
   4  -3 -14  -10.70   22.50
   4  -3 -14    8.50   24.70
  -4   3  14  -20.60   24.40
   4   3 -14   33.40   27.60
   4   3 -14  -12.80   22.20
   4   3 -14   16.30   17.80
  -4   3  14  -11.00   20.90
   3  -3 -14  199.78   24.70
  -3  -3  14  193.38   32.30
   3  -3 -14  238.48   27.00
  -3  -3  14  162.08   23.50
   3  -3 -14  220.68   30.20
   3  -3 -14  192.88   25.80
  -3  -3  14  178.08   19.40
   3  -3 -14  129.69   29.50
  -3   3  14  118.29   23.80
   3   3 -14  157.28   22.60
   3   3 -14  210.28   29.50
   3   3 -14  227.58   32.70
   3   3 -14  183.78   23.10
  -3   3  14  136.49   29.60
   2  -3 -14   63.39   24.50
   2  -3 -14   59.69   15.90
   2  -3 -14   70.69   22.20
   2  -3 -14   56.99   15.90
  -2  -3  14   56.39   12.10
   2  -3 -14   28.20   22.30
  -2  -3  14   67.39   18.80
  -2  -3  14   61.89   13.00
   2   3 -14   82.29   18.70
   2   3 -14   64.49   19.20
   2   3 -14   56.99   21.80
  -2   3  14   76.29   23.40
  -2   3  14    4.10   25.50
   2   3 -14   86.59   16.30
   1  -3 -14  267.97   28.60
  -1  -3  14  262.37   31.30
   1  -3 -14  284.07   29.40
  -1  -3  14  281.77   23.30
   1  -3 -14  305.17   38.20
   1  -3 -14  280.67   26.90
  -1  -3  14  261.47   22.10
  -1  -3  14  244.58   43.60
   1   3 -14  267.37   31.40
  -1   3  14  195.28   33.30
   1   3 -14  334.17   37.20
   1   3 -14  296.87   32.60
  -1   3  14  229.38   35.20
   0  -3  14  439.16   26.50
   0  -3 -14  468.75   49.60
   0  -3 -14  421.76   30.80
   0  -3  14  397.46   34.80
   0  -3 -14  429.86   32.50
   0  -3  14  429.86   42.10
   0  -3  14  449.56   27.50
   0  -3 -14  450.95   40.20
   0   3  14  465.15   40.90
   0   3 -14  396.06   41.20
   0   3  14  426.06   37.00
   0   3  14  363.66   47.20
   0   3  14  321.17   54.49
   0   3 -14  439.86   35.30
  -1  -3 -14  321.07   30.40
  -1  -3 -14  336.57   37.70
   1  -3  14  370.76   24.60
   1  -3  14  381.16   33.10
   1  -3  14  405.26   38.60
   1  -3  14  364.86   25.60
  -1  -3 -14  415.96   28.90
  -1  -3 -14  336.87   47.70
  -1   3 -14  433.66   33.10
   1   3  14  347.27   35.30
   1   3  14  368.36   37.20
   1   3  14  323.87   53.99
   1   3  14  301.37   46.50
  -1   3 -14  366.86   35.90
   1   3  14  342.47   51.39
  -1   3 -14  347.87   33.70
  -2  -3 -14  188.98   22.70
   2  -3  14  214.48   23.20
   2  -3  14  208.78   19.50
   2  -3  14  198.28   27.20
  -2  -3 -14  247.48   30.70
  -2   3 -14  236.88   30.00
   2   3  14  125.99   33.00
   2   3  14  290.47   46.20
  -2   3 -14  220.78   28.70
   2   3  14  228.48   25.60
  -2   3 -14  199.68   31.90
   2   3  14  152.18   50.49
  -2   3 -14  236.68   36.30
  -3  -3 -14   55.89   21.00
   3  -3  14   45.70   17.30
   3  -3  14   44.30   11.00
  -3  -3 -14   41.10   13.60
  -3  -3 -14   44.30   14.80
  -3  -3 -14   19.60   26.40
   3  -3  14   54.59   14.90
   3  -3  14   45.20   17.80
   3   3  14   26.90   25.30
  -3   3 -14   34.20   17.00
   3   3  14   51.29   18.60
   3   3  14   53.09   29.20
  -3   3 -14   70.19   17.50
  -3   3 -14   27.60   19.20
  -3   3 -14   18.30   21.00
   3   3  14   85.39   22.50
   3   3  14   58.29   20.30
  -4  -3 -14   49.80   28.10
  -4  -3 -14   30.50   12.70
   4  -3  14   42.90   13.40
  -4  -3 -14   47.20   18.90
   4  -3  14   30.40   41.20
  -4  -3 -14   28.20   14.50
   4  -3  14   46.30   14.60
   4  -3  14   47.00   18.20
   4  -3  14   57.99   19.70
   4   3  14   26.00   15.10
   4   3  14   15.10   24.90
   4   3  14   52.69   20.80
  -4   3 -14   24.40   13.60
  -4   3 -14   23.30   15.90
   4   3  14   42.90   21.80
   4   3  14   19.10   31.20
  -4   3 -14   16.20   19.40
  -5  -3 -14   -4.80   26.80
  -5  -3 -14    7.10   11.30
  -5  -3 -14    2.80   17.00
   5  -3  14    3.70   12.40
   5  -3  14   44.00   20.80
   5  -3  14   27.50   32.90
   5  -3  14    1.40   16.20
  -5  -3 -14   10.50   12.80
   5   3  14   28.60   21.40
   5   3  14    0.70   19.50
  -5   3 -14   10.90   13.80
  -5   3 -14    9.00   19.10
  -5   3 -14   -6.30   14.90
   5   3  14   19.60   16.00
  -6  -3 -14   34.40   16.50
   6  -3  14    3.40   34.70
  -6  -3 -14   22.30   11.40
  -6  -3 -14   21.80   33.20
   6  -3  14   20.60   12.40
  -6  -3 -14    8.50   10.80
   6  -3  14   15.50   14.30
  -6   3 -14   18.30   11.80
  -6   3 -14   26.40   19.70
  -6   3 -14   22.40   15.10
   6   3  14   27.50   13.60
   6   3  14    9.90   20.60
   6   3  14   32.00   21.30
   7  -3  14   58.99   19.20
   7  -3  14   62.89   21.90
  -7  -3 -14  108.89   16.30
  -7  -3 -14   80.69   12.50
  -7  -3 -14   76.79   11.80
   7  -3  14   84.49   17.10
   7   3  14   54.29   21.40
  -7   3 -14   82.59   16.40
   7   3  14  118.89   14.80
  -7   3 -14   77.19   15.60
   8  -4 -14   34.80    9.00
   8   4 -14   27.50    7.00
  -8   4  14   57.99   18.90
   7  -4 -14    7.50   11.50
   7  -4 -14  130.69   42.40
  -7  -4  14   34.90   19.70
   6  -4 -14   -3.00   18.10
  -6  -4  14   21.00   11.90
   6  -4 -14   15.70    9.60
  -6  -4  14  -13.50   15.50
  -6   4  14   22.20   37.10
   6   4 -14    7.50    7.70
  -6   4  14   14.30   16.90
  -5  -4  14    9.10   21.40
   5  -4 -14   24.00   17.90
  -5  -4  14   57.09   13.60
  -5  -4  14   36.60   12.00
   5  -4 -14   10.90   10.60
  -5   4  14   41.20   17.00
  -5   4  14   23.40   25.50
   5   4 -14   45.20    9.30
   4  -4 -14   58.09   20.40
  -4  -4  14   44.40   13.20
   4  -4 -14   58.39   13.10
   4  -4 -14   79.99   10.50
   4   4 -14   53.79   10.50
   4   4 -14   53.69   16.80
  -4   4  14   56.69   18.30
  -4   4  14   58.99   24.60
   3  -4 -14   72.89   12.90
  -3  -4  14   76.49   12.00
  -3  -4  14   81.99   20.90
  -3  -4  14  105.69   14.10
   3  -4 -14  119.39   18.60
   3  -4 -14   63.89   23.00
   3  -4 -14  115.99   17.50
   3   4 -14   69.09   11.90
  -3   4  14   62.09   20.70
   3   4 -14   75.69   16.70
  -3   4  14   74.69   18.50
  -2  -4  14   28.20   10.10
   2  -4 -14   26.10   12.00
  -2  -4  14   40.60   17.40
   2  -4 -14   36.10   22.30
   2  -4 -14   34.80   10.50
   2  -4 -14   28.10   14.80
  -2  -4  14   31.00   10.00
  -2   4  14   25.90   18.70
  -2   4  14    8.70   17.00
   2   4 -14   26.00   12.20
   2   4 -14   66.39   17.20
   1  -4 -14   54.29   13.80
   1  -4 -14   69.19   23.90
  -1  -4  14   61.99   16.30
  -1  -4  14   75.19   11.10
   1  -4 -14   72.79   12.30
  -1  -4  14   52.69   11.20
   1   4 -14   27.70   14.40
  -1   4  14   33.00   17.90
  -1   4  14   48.80   19.70
  -1   4  14   69.99   19.60
   0  -4  14   22.80   14.30
   0  -4 -14   45.50   40.80
   0  -4  14   14.70    7.90
   0  -4  14   25.50   23.80
   0  -4 -14   58.29   23.10
   0  -4 -14   13.70   12.30
   0  -4 -14    7.20   10.40
   0  -4  14    1.40    9.90
   0   4 -14   -7.80   12.80
   0   4  14    2.40   18.40
   0   4  14    7.30   20.70
   0   4  14   12.90   18.20
   0   4 -14   16.30   15.10
   1  -4  14  104.89   14.10
   1  -4  14  109.69   21.10
  -1  -4 -14   90.79   13.40
   1  -4  14   97.49   13.60
   1  -4  14   84.79   15.30
  -1  -4 -14  142.99   28.00
  -1  -4 -14  104.29   17.80
  -1   4 -14   88.19   15.40
  -1   4 -14   85.69   15.80
   1   4  14  103.19   21.60
   1   4  14   80.99   21.40
   1   4  14   96.49   25.00
   2  -4  14   61.39   13.20
  -2  -4 -14   66.69   17.10
   2  -4  14   87.69   14.00
  -2  -4 -14  130.79   28.60
   2  -4  14   85.39   14.40
   2  -4  14   82.09   18.80
  -2  -4 -14   86.59   13.30
  -2   4 -14   72.29   14.50
  -2   4 -14   75.49   14.90
   2   4  14  100.19   20.20
   2   4  14  104.39   15.30
   2   4  14   94.29   25.20
   3  -4  14   96.79   13.50
   3  -4  14  128.19   23.70
  -3  -4 -14   99.89   12.80
  -3  -4 -14  115.69   40.00
   3  -4  14   72.39   10.20
  -3  -4 -14  124.59   17.10
   3   4  14   98.29   25.90
   3   4  14  101.59   14.60
  -3   4 -14   94.29   14.80
   3   4  14   88.29   25.30
  -3   4 -14   73.09   13.80
  -4  -4 -14   85.59   37.90
   4  -4  14    8.50   13.20
  -4  -4 -14    3.50    9.70
  -4  -4 -14   28.40    9.50
   4  -4  14   25.20   15.90
   4  -4  14   11.80    9.80
   4   4  14   35.10   18.90
  -4   4 -14  -14.30   10.70
   4   4  14   -8.80   10.70
  -4   4 -14   13.00   10.00
  -5  -4 -14   29.20    8.90
   5  -4  14   13.30    9.40
  -5  -4 -14    6.70   11.10
   5  -4  14   27.10   12.40
  -5   4 -14    8.20   11.20
  -5   4 -14   23.20   10.60
   5   4  14   20.20   10.80
  -2  -5  14   12.80    8.60
   2  -5 -14   15.80   10.70
  -2  -5  14   25.90   12.80
  -2   5  14   -8.20   18.10
   1  -5 -14   12.80    8.20
  -1  -5  14   27.90    7.40
   1  -5 -14   11.30    5.00
   1  -5 -14  -22.90   19.80
  -1  -5  14   24.20   11.60
  -1   5  14    5.20   16.20
  12   0 -15  -16.30   15.50
 -12   0  15    0.50    9.40
 -11   0  15  133.59   18.10
 -11   0  15  136.49   19.70
  11   0 -15  158.08   19.20
  11   0 -15  139.29   20.90
 -10   0  15    0.20   17.80
 -10   0  15   10.90   12.80
  10   0 -15   38.90   18.80
 -10   0  15   20.40   17.10
  10   0 -15   45.90   17.20
  10   0 -15  -15.70   17.60
  -9   0  15    3.00   14.00
  -9   0  15   -4.70   17.40
   9   0 -15  -10.50   19.30
  -9   0  15   -1.00   13.80
   9   0 -15    9.80   19.10
   9   0 -15    3.80   16.00
   9   0 -15   17.60   10.40
  -8   0  15  450.45   50.69
   8   0 -15  420.56   57.89
  -8   0  15  456.55   47.20
   8   0 -15  420.76   39.90
  -8   0  15  345.77   31.30
  -7   0  15   28.70   15.00
   7   0 -15    0.10   18.60
   7   0 -15    6.40   12.50
  -7   0  15 -111.39   52.59
   7   0 -15   12.70   21.40
  -7   0  15   -8.80   15.10
   7   0 -15    4.50   21.40
  -7   0  15   -3.50   14.50
   6   0 -15    4.90   17.30
  -6   0  15   19.80   16.70
   6   0 -15    6.50   20.70
   6   0 -15   -0.20   12.90
   6   0 -15   -9.40   20.50
  -6   0  15  -12.90   14.30
  -6   0  15   21.50   41.30
  -6   0  15   57.79   34.30
  -5   0  15    0.20   34.80
  -5   0  15   13.60   17.90
  -5   0  15   15.30   14.30
   5   0 -15   -7.00   17.70
  -5   0  15   35.80   16.10
  -5   0  15   45.10   30.10
   5   0 -15   53.49   21.50
   5   0 -15   24.80   22.30
   5   0 -15    3.10   15.40
  -4   0  15   56.99   29.40
  -4   0  15  106.99   17.90
  -4   0  15  102.89   28.80
  -4   0  15   62.99   18.30
  -4   0  15   91.39   16.70
   4   0 -15   28.00   23.50
   4   0 -15   68.19   19.80
   4   0 -15   93.59   22.10
   4   0 -15   86.09   23.40
   4   0 -15  104.49   21.80
  -3   0  15   27.60   15.00
   3   0 -15   40.90   22.50
  -3   0  15   49.40   26.00
   3   0 -15   45.20   20.30
  -3   0  15   45.10   30.80
   3   0 -15   20.20   18.80
  -3   0  15   36.70   15.20
  -3   0  15   35.20   17.40
  -3   0  15   30.50   43.00
   3   0 -15   34.80   26.40
   3   0 -15   40.80   37.70
   2   0 -15   -0.10   20.70
  -2   0  15    8.30   15.40
  -2   0  15   10.90   14.60
   2   0 -15    0.30   28.00
  -2   0  15  -10.70   14.90
  -2   0  15   38.60   25.40
   2   0 -15    1.10   17.80
   2   0 -15   14.30   12.90
   2   0 -15   43.70   32.00
   2   0 -15  -26.60   21.50
  -2   0  15   -2.50   35.80
  -1   0  15  256.07   40.60
   1   0 -15  144.39   42.80
  -1   0  15  164.78   20.20
  -1   0  15  193.78   42.90
  -1   0  15  114.89   19.20
   1   0 -15  148.49   25.80
  -1   0  15  181.08   47.40
   1   0 -15  172.88   23.40
  -1   0  15  136.69   21.40
   1   0 -15  150.18   21.60
   1   0 -15  161.58   24.70
  -1   0  15  112.69   34.10
   0   0  15 1066.49   78.89
   0   0  15  985.30   51.39
   0   0  15  985.90   52.49
   0   0 -15  903.91   55.89
   0   0  15 1090.19   62.69
   0   0 -15  901.31   52.99
   0   0  15 1013.30   69.39
   0   0  15  957.00   72.59
   0   0 -15  941.71   53.19
   0   0 -15  917.31   62.09
   1   0  15  275.87   44.50
   1   0  15  289.77   43.00
  -1   0 -15  222.28   31.50
  -1   0 -15  318.97   36.30
  -1   0 -15  205.78   24.50
  -1   0 -15  256.87   32.00
   1   0  15  277.07   47.80
   1   0  15  187.08   28.50
  -1   0 -15  233.18   31.10
  -2   0 -15  313.27   33.40
  -2   0 -15  317.67   51.39
  -2   0 -15  297.77   32.70
   2   0  15  325.57   43.70
   2   0  15  355.96   43.70
   2   0  15  379.86   34.50
   2   0  15  378.06   45.50
  -2   0 -15  338.37   39.30
  -2   0 -15  311.97   29.10
   2   0  15  393.46   48.00
  -3   0 -15   50.39   17.20
  -3   0 -15   72.29   22.70
   3   0  15   51.49   25.20
  -3   0 -15   56.99   33.90
  -3   0 -15   50.29   19.80
   3   0  15  131.59   28.80
   3   0  15   61.49   23.90
   3   0  15   61.09   18.70
  -3   0 -15   38.80   17.20
   4   0  15   96.79   26.50
   4   0  15   83.19   29.60
  -4   0 -15   94.59   17.90
  -4   0 -15   79.59   39.50
  -4   0 -15   98.99   19.20
   4   0  15    8.10   36.60
  -4   0 -15  116.49   21.90
   4   0  15   96.39   23.20
   4   0  15   69.39   24.10
  -4   0 -15   99.29   23.00
   5   0  15   33.70   22.90
   5   0  15    6.50   31.70
   5   0  15   34.60   19.70
  -5   0 -15   31.30   19.60
  -5   0 -15    4.50   15.00
  -5   0 -15   40.10   17.20
   6   0  15  264.37   32.10
   6   0  15  197.88   31.90
  -6   0 -15  304.27   28.60
  -6   0 -15  248.88   27.10
   6   0  15  233.18   38.60
  -6   0 -15  318.37   35.60
   7   0  15   29.20   21.70
   7   0  15   12.00   14.60
   7   0  15    5.20   19.60
  -7   0 -15   12.20   12.60
  -7   0 -15   -0.40   12.90
  -7   0 -15    3.10   19.60
   8   0  15    4.50   17.90
  -8   0 -15    0.30   11.40
   8   0  15    8.50   13.50
  -8   0 -15   14.30   10.70
   8   0  15    2.20   17.90
  -9   0 -15   21.50    9.40
   9   0  15   32.80   21.40
   9   0  15   31.10   14.30
 -11  -1  15    3.70   12.50
  11  -1 -15  -10.00   13.80
  11  -1 -15   36.60   16.20
 -11  -1  15    9.90   16.40
  11  -1 -15   17.40   15.90
 -11   1  15    8.30   11.90
 -11   1  15    3.20   16.70
  11   1 -15    7.50    7.10
 -10  -1  15   36.10   13.50
 -10  -1  15   21.60   13.80
  10  -1 -15   18.00   16.60
  10  -1 -15   44.00   18.00
 -10  -1  15   47.30   21.50
 -10   1  15    8.70   14.00
 -10   1  15    3.10   12.10
 -10   1  15   37.70   22.50
  10   1 -15    1.90   31.40
  10   1 -15   24.40   14.40
  10   1 -15   22.90    8.30
   9  -1 -15    8.00   17.80
   9  -1 -15   14.80   19.50
  -9  -1  15   33.70   20.40
  -9  -1  15   15.90   13.30
   9  -1 -15   34.80   18.40
  -9  -1  15    0.70   12.50
  -9   1  15   -0.70   13.10
  -9   1  15  -16.10   19.90
   9   1 -15    4.80    9.40
  -9   1  15    9.10   16.30
   9   1 -15    3.20   25.50
   9   1 -15   -2.50   15.50
   8  -1 -15   87.89   22.20
  -8  -1  15  198.98   32.50
   8  -1 -15  149.79   25.00
   8  -1 -15  111.09   25.00
  -8  -1  15  147.99   23.80
  -8   1  15  139.89   18.90
   8   1 -15  117.39   23.30
  -8   1  15  101.19   20.50
   8   1 -15  136.69   19.50
   8   1 -15  156.98   29.90
   8   1 -15   85.59   18.60
  -8   1  15  134.89   22.40
   7  -1 -15  442.16   44.80
   7  -1 -15  432.36   39.00
  -7  -1  15  384.06   29.90
   7  -1 -15  429.86   38.70
  -7  -1  15  448.36   38.10
  -7  -1  15  437.96   35.10
  -7   1  15  429.46   38.30
  -7   1  15  383.86   37.30
  -7   1  15  387.26   36.00
   7   1 -15  376.56   27.30
   7   1 -15  392.86   37.80
   7   1 -15  439.46   37.60
  -6  -1  15   10.00   15.60
  -6  -1  15   -1.20   31.10
   6  -1 -15   -0.50   22.30
   6  -1 -15   26.90   20.00
  -6  -1  15  -85.09   64.29
  -6  -1  15    7.80   13.70
  -6  -1  15   21.10   17.10
   6  -1 -15    7.00   19.70
   6   1 -15   12.90   18.40
  -6   1  15   25.10   18.90
   6   1 -15   30.70   20.20
  -6   1  15   24.10   19.50
  -6   1  15  -11.30   35.70
   6   1 -15   11.10   12.70
  -6   1  15  -13.00   40.60
   6   1 -15   18.20   26.90
  -6   1  15   20.10   15.70
  -6   1  15  -30.00   34.90
   5  -1 -15   93.39   22.40
  -5  -1  15   86.79   16.90
   5  -1 -15   20.60   37.30
   5  -1 -15   78.99   21.80
  -5  -1  15   87.39   18.80
   5  -1 -15   42.60   24.20
  -5  -1  15   78.69   16.50
  -5  -1  15  117.39   26.60
  -5  -1  15  -36.00   46.10
  -5   1  15   81.69   20.10
   5   1 -15   53.59   21.30
   5   1 -15   67.69   30.80
  -5   1  15  113.49   36.40
   5   1 -15   70.79   15.40
  -5   1  15   36.20   31.60
  -5   1  15   72.59   21.70
  -5   1  15   67.29   30.00
   5   1 -15   61.09   20.60
  -5   1  15   80.69   18.10
   5   1 -15   31.00   17.90
   4  -1 -15   96.39   31.90
   4  -1 -15   49.60   22.60
  -4  -1  15   73.79   17.50
  -4  -1  15  102.29   25.30
   4  -1 -15   46.70   21.60
  -4  -1  15   82.09   16.80
   4  -1 -15   81.19   26.10
   4  -1 -15  133.49   44.20
   4  -1 -15   68.79   15.80
  -4  -1  15   52.29   40.20
  -4   1  15  105.59   20.60
  -4   1  15   82.39   30.20
  -4   1  15   79.79   33.10
  -4   1  15   67.19   18.20
   4   1 -15   51.59   19.50
  -4   1  15   73.59   28.80
   4   1 -15   70.89   29.40
   4   1 -15  100.49   22.30
  -4   1  15  101.59   24.00
   4   1 -15   70.99   18.50
   4   1 -15   97.29   22.50
   3  -1 -15   24.10   30.20
  -3  -1  15   29.60   13.10
  -3  -1  15    8.00   20.20
   3  -1 -15   91.89   29.80
   3  -1 -15   33.80   19.20
  -3  -1  15   17.40   35.20
  -3  -1  15   45.90   16.40
  -3  -1  15   35.60   15.50
   3  -1 -15   13.60   19.40
   3  -1 -15   13.60   12.60
   3  -1 -15    1.00   28.90
  -3   1  15  -16.80   24.80
  -3   1  15   15.90   17.70
   3   1 -15    3.50   20.60
   3   1 -15  -10.40   22.00
   3   1 -15   22.60   26.70
   3   1 -15   25.80   19.80
  -3   1  15   61.89   28.30
   3   1 -15    2.50   18.30
  -3   1  15   40.10   17.00
  -3   1  15   35.80   27.40
   2  -1 -15  481.65   54.89
   2  -1 -15  421.26   37.50
  -2  -1  15  485.75   29.40
   2  -1 -15  468.95   51.79
  -2  -1  15  452.95   41.20
  -2  -1  15  526.25   36.00
  -2  -1  15  410.56   32.00
  -2  -1  15  421.06   54.09
   2  -1 -15  445.96   28.50
   2  -1 -15  465.65   41.20
   2  -1 -15  452.45   40.90
  -2   1  15  432.26   42.20
  -2   1  15  531.35   37.80
   2   1 -15  478.15   35.90
   2   1 -15  534.75   52.19
  -2   1  15  363.06   43.40
   2   1 -15  408.16   40.20
  -2   1  15  454.75   49.70
  -2   1  15  443.66   50.49
   2   1 -15  510.85   40.20
  -1  -1  15  226.78   26.70
   1  -1 -15  252.47   34.00
  -1  -1  15  240.58   41.10
   1  -1 -15  318.67   34.40
   1  -1 -15  260.47   32.80
  -1  -1  15  290.97   23.60
   1  -1 -15  248.98   22.90
  -1  -1  15  271.77   36.20
   1  -1 -15  238.48   29.90
  -1  -1  15  193.48   33.10
  -1  -1  15  246.58   29.50
   1  -1 -15  292.27   40.40
   1   1 -15  184.78   34.10
  -1   1  15  308.57   38.30
  -1   1  15  343.97   44.30
  -1   1  15  250.67   44.60
   1   1 -15  264.47   32.00
  -1   1  15  245.78   31.70
   1   1 -15  265.27   35.90
   1   1 -15  232.18   35.30
  -1   1  15  217.58   45.00
   0  -1 -15  125.29   21.50
   0  -1  15  164.78   34.30
   0  -1 -15   81.59   22.80
   0  -1 -15  152.28   39.40
   0  -1  15  133.39   23.90
   0  -1  15   91.39   17.10
   0  -1 -15  131.99   19.90
   0  -1  15  118.49   17.30
   0  -1  15  166.38   30.40
   0  -1 -15  109.89   20.00
   0  -1  15  116.99   16.50
   0  -1  15  137.29   41.40
   0  -1 -15  110.89   15.90
   0   1 -15  119.89   24.10
   0   1  15  100.99   35.90
   0   1 -15  145.49   31.40
   0   1 -15   95.99   20.30
   0   1  15  115.19   20.80
   0   1  15  105.69   28.40
   0   1 -15   90.19   22.70
   0   1  15  115.89   28.00
   0   1  15   84.29   26.80
  -1  -1 -15   15.90   16.50
   1  -1  15   17.90   16.10
  -1  -1 -15   30.00   14.40
   1  -1  15  -21.90   27.00
  -1  -1 -15   86.09   40.70
   1  -1  15    8.90   14.40
  -1  -1 -15   19.80   16.30
   1  -1  15   -3.90   19.70
  -1  -1 -15    8.20   21.60
   1  -1  15    7.20   25.60
   1  -1  15   54.69   34.90
  -1  -1 -15   13.00   19.30
  -1   1 -15   45.90   28.20
   1   1  15   22.40   22.80
   1   1  15   29.80   25.40
  -1   1 -15    1.70   16.60
  -1   1 -15   18.00   22.90
  -1   1 -15   16.90   19.30
  -1   1 -15   -4.90   20.30
   1   1  15    9.90   20.90
   1   1  15   -7.00   28.10
   1   1  15   48.20   24.90
  -2  -1 -15  133.59   19.50
   2  -1  15  153.68   28.20
   2  -1  15  166.78   35.80
  -2  -1 -15  113.19   22.30
   2  -1  15  209.68   30.10
   2  -1  15  145.99   21.20
   2  -1  15  158.78   26.10
  -2  -1 -15  176.88   27.60
  -2   1 -15  170.88   28.30
   2   1  15  141.19   33.60
  -2   1 -15  139.89   21.60
   2   1  15  149.79   29.10
  -2   1 -15  141.49   25.40
  -2   1 -15  159.38   23.90
   2   1  15  122.79   24.30
   2   1  15  109.89   28.40
  -2   1 -15   98.19   29.20
  -3  -1 -15  646.94   39.80
   3  -1  15  553.44   57.29
   3  -1  15  644.14   57.09
   3  -1  15  616.74   40.50
  -3  -1 -15  707.73   42.70
  -3  -1 -15  542.55   42.40
  -3  -1 -15  646.24   41.50
   3  -1  15  641.94   46.50
   3  -1  15  615.34   50.39
   3   1  15  529.35   56.49
  -3   1 -15  778.32   51.49
  -3   1 -15  628.34   47.90
  -3   1 -15  585.04   54.89
   3   1  15  662.73   46.40
   3   1  15  475.25   55.29
   3   1  15  669.73   55.99
  -3   1 -15  577.84   45.90
  -3   1 -15  606.04   39.80
  -4  -1 -15   48.30   16.80
   4  -1  15  106.39   25.00
   4  -1  15   76.89   25.20
   4  -1  15   64.39   26.40
  -4  -1 -15   38.40   17.10
  -4  -1 -15   52.99   25.50
   4  -1  15   53.59   16.60
  -4  -1 -15   43.30   15.90
  -4   1 -15   36.90   23.90
   4   1  15   78.89   35.60
   4   1  15   54.09   18.90
   4   1  15   39.40   28.20
  -4   1 -15    7.30   27.50
  -4   1 -15  119.49   26.80
  -4   1 -15   60.09   17.20
   5  -1  15   25.00   32.40
   5  -1  15   99.09   37.70
  -5  -1 -15   65.19   23.70
   5  -1  15   48.70   18.10
  -5  -1 -15   54.69   17.90
  -5  -1 -15   73.09   16.80
   5  -1  15   48.10   37.40
   5  -1  15   34.30   28.70
  -5   1 -15   66.09   23.80
  -5   1 -15  -20.70   26.60
  -5   1 -15   45.60   23.80
   5   1  15   88.29   37.90
   5   1  15    5.80   40.20
   5   1  15   15.70   27.60
   5   1  15   33.30   23.20
   6  -1  15  107.99   22.40
  -6  -1 -15  125.79   19.40
  -6  -1 -15  191.48   26.10
   6  -1  15  110.29   30.60
  -6  -1 -15  154.18   25.80
   6  -1  15   92.69   21.00
  -6   1 -15  130.49   32.10
   6   1  15  125.79   26.40
   6   1  15  123.79   19.50
  -6   1 -15  177.38   22.90
  -6   1 -15  179.58   26.50
   6   1  15   90.69   27.30
   7  -1  15   64.89   20.20
   7  -1  15   77.29   19.10
  -7  -1 -15  163.28   30.00
   7  -1  15   55.29   24.70
  -7  -1 -15   88.19   14.20
  -7  -1 -15  114.19   17.50
   7   1  15  160.08   24.40
  -7   1 -15  205.58   54.79
  -7   1 -15  103.69   14.90
   7   1  15  101.39   22.10
   8  -1  15   81.49   16.10
  -8  -1 -15   80.69   12.10
  -8  -1 -15   82.99   16.90
  -8  -1 -15   88.09   16.10
   8  -1  15   75.29   19.40
   8  -1  15   76.19   21.30
   8   1  15   72.29   21.40
   8   1  15   86.99   17.50
  -8   1 -15   90.09   12.10
   9  -1  15   57.09   12.80
   9  -1  15   44.50   19.60
  -9  -1 -15   45.40    9.40
  -9   1 -15   27.10    8.50
  11  -2 -15   14.70   12.80
 -11  -2  15   30.80   12.40
  10  -2 -15  149.59   21.40
 -10  -2  15   96.19   15.30
  10  -2 -15   88.09   16.20
 -10  -2  15   98.29   14.70
  10   2 -15  106.99   12.70
 -10   2  15  107.09   17.00
   9  -2 -15  103.39   21.50
   9  -2 -15   51.79   17.20
   9  -2 -15   65.79   17.60
  -9  -2  15   66.79   14.80
  -9  -2  15   75.89   14.90
   9   2 -15   56.29   10.30
   9   2 -15   39.10   15.80
   8  -2 -15    2.00   22.10
  -8  -2  15   45.70   26.10
  -8  -2  15   -5.70   15.00
  -8  -2  15   14.40   12.20
   8  -2 -15   -1.10   16.30
   8  -2 -15   28.40   17.20
  -8   2  15  -10.00   16.20
   8   2 -15   14.60   10.00
   8   2 -15    8.60   15.90
  -8   2  15  -39.40   34.70
  -8   2  15    5.90   18.50
  -7  -2  15   72.79   14.80
  -7  -2  15   63.69   21.70
   7  -2 -15   98.29   34.00
   7  -2 -15   35.70   23.90
   7  -2 -15   75.19   21.80
   7  -2 -15   82.29   18.80
  -7  -2  15   65.19   16.90
   7   2 -15   53.59   20.60
  -7   2  15   85.49   21.10
   7   2 -15   75.49   12.90
  -7   2  15   50.69   33.60
  -7   2  15   37.20   21.70
   6  -2 -15   59.49   40.20
   6  -2 -15   88.19   38.10
   6  -2 -15   30.90   20.20
   6  -2 -15   19.50   20.00
  -6  -2  15    6.50   28.10
  -6  -2  15   77.49   19.30
  -6   2  15    0.50   25.60
   6   2 -15   44.30   16.80
  -6   2  15   49.90   33.80
  -6   2  15   72.09   34.30
   6   2 -15   70.19   25.90
  -6   2  15   73.69   25.80
   6   2 -15   52.09   21.40
   5  -2 -15  122.09   20.30
   5  -2 -15   79.69   18.50
  -5  -2  15   90.99   18.40
   5  -2 -15   66.69   31.10
  -5  -2  15   69.59   24.00
   5  -2 -15   57.49   30.20
  -5  -2  15   55.99   12.90
  -5  -2  15   56.49   15.40
  -5   2  15   76.09   29.80
   5   2 -15   90.79   20.50
   5   2 -15  129.99   20.30
  -5   2  15   75.89   21.60
   5   2 -15   94.79   20.10
  -5   2  15   68.29   29.00
   5   2 -15   62.89   18.30
  -4  -2  15 1623.04   73.59
  -4  -2  15 1556.54   64.29
   4  -2 -15 1433.36   70.59
   4  -2 -15 1406.66   71.89
  -4  -2  15 1495.25   68.39
   4  -2 -15 1358.26   80.79
  -4  -2  15 1438.96   65.79
   4  -2 -15 1337.27   64.69
   4  -2 -15 1527.25   85.49
   4   2 -15 1513.85   71.99
  -4   2  15 1374.66   81.99
  -4   2  15 1524.05   74.49
  -4   2  15 1188.38   83.49
   4   2 -15 1489.95   71.09
   4   2 -15 1459.15   64.49
  -4   2  15 1442.16   79.99
   4   2 -15 1430.36   69.59
   3  -2 -15   39.90   34.10
   3  -2 -15   23.10   15.10
   3  -2 -15   59.89   21.40
   3  -2 -15   11.50   23.40
  -3  -2  15   27.10   11.10
  -3  -2  15  -52.59   56.19
  -3  -2  15   28.80   20.90
  -3  -2  15   23.20   13.50
   3  -2 -15   32.30   14.60
  -3  -2  15   29.60   14.40
   3   2 -15   21.10   17.00
   3   2 -15   26.20   19.00
  -3   2  15    4.30   22.60
   3   2 -15    8.00   18.00
  -3   2  15   -6.10   22.70
   3   2 -15   10.20   16.60
  -3   2  15   23.30   25.90
  -2  -2  15  130.19   20.60
   2  -2 -15   86.09   19.80
  -2  -2  15  123.09   19.50
   2  -2 -15   98.79   16.90
  -2  -2  15   29.40   46.90
   2  -2 -15   95.69   23.30
   2  -2 -15   85.79   16.10
   2  -2 -15   74.39   25.50
  -2  -2  15  124.29   20.00
   2  -2 -15  146.49   42.10
   2   2 -15  132.99   22.30
   2   2 -15  111.99   22.90
  -2   2  15  139.69   26.90
  -2   2  15   57.09   28.20
  -2   2  15   66.39   25.30
  -2   2  15  109.79   42.30
   2   2 -15  101.19   20.90
   1  -2 -15   51.99   20.00
  -1  -2  15   84.69   41.30
   1  -2 -15   80.09   46.80
   1  -2 -15    3.00   15.90
  -1  -2  15   33.10   38.20
   1  -2 -15   33.60   14.60
  -1  -2  15   54.49   16.00
   1  -2 -15   18.60   15.30
   1  -2 -15   35.50   26.00
  -1  -2  15   42.30   12.30
  -1  -2  15   30.30   12.10
  -1   2  15   -9.30   34.40
   1   2 -15   19.00   17.20
  -1   2  15   18.90   21.20
  -1   2  15   -9.10   25.50
  -1   2  15    3.90   28.40
   1   2 -15   16.30   18.50
   1   2 -15   15.00   18.30
   0  -2  15   58.89   38.00
   0  -2 -15   48.00   21.50
   0  -2 -15   51.99   17.20
   0  -2 -15   51.89   17.00
   0  -2  15   54.69   26.70
   0  -2 -15   18.10   14.70
   0  -2  15   31.40   13.20
   0  -2  15   59.09   12.50
   0  -2 -15   49.10   24.90
   0  -2  15   31.60   16.80
   0   2 -15    7.70   15.20
   0   2  15   -2.40   25.60
   0   2  15   14.40   18.70
   0   2 -15   27.20   17.80
   0   2 -15   24.00   18.90
   0   2  15    2.40   29.90
   0   2  15   31.00   20.70
  -1  -2 -15  278.97   29.30
   1  -2  15  237.58   30.10
   1  -2  15  318.47   41.00
   1  -2  15  270.37   24.20
  -1  -2 -15  244.68   35.50
   1  -2  15  281.77   26.80
  -1  -2 -15  313.27   32.60
  -1  -2 -15  223.58   28.00
   1  -2  15  421.46   71.59
   1   2  15  245.08   34.40
   1   2  15  276.97   45.80
  -1   2 -15  281.47   30.90
   1   2  15  246.78   38.80
   1   2  15  220.08   35.70
  -1   2 -15  250.47   33.40
  -1   2 -15  295.47   34.40
   2  -2  15   65.99   41.10
  -2  -2 -15    4.60   15.40
   2  -2  15    9.90   17.60
   2  -2  15   -8.90   17.70
   2  -2  15    2.00   20.20
   2  -2  15    5.80   15.00
  -2  -2 -15  -11.70   19.00
  -2  -2 -15    9.60   22.70
   2  -2  15    2.10   12.30
  -2  -2 -15    7.30   14.30
   2  -2  15  -36.50   39.60
   2   2  15  -21.70   19.40
   2   2  15   23.40   26.10
   2   2  15  -11.50   26.20
  -2   2 -15    1.30   16.50
   2   2  15   -8.40   17.70
  -2   2 -15   -1.70   16.20
  -2   2 -15   12.50   19.40
   3  -2  15  243.78   60.99
  -3  -2 -15  174.38   28.50
   3  -2  15  211.98   26.80
   3  -2  15  199.68   31.90
  -3  -2 -15  201.58   25.90
   3  -2  15  239.88   36.70
  -3   2 -15  225.78   24.00
  -3   2 -15  203.68   32.10
   3   2  15  173.78   32.10
   3   2  15  240.78   27.30
   3   2  15  187.38   30.40
   3   2  15  173.18   32.50
  -3   2 -15  158.18   25.00
   4  -2  15   45.80   15.60
  -4  -2 -15   71.89   16.00
   4  -2  15   64.29   29.20
   4  -2  15   74.39   21.20
  -4  -2 -15   72.79   16.90
   4  -2  15   87.19   21.20
  -4   2 -15   97.19   23.50
  -4   2 -15   67.89   18.80
   4   2  15   44.20   31.80
   4   2  15   82.89   20.10
   4   2  15   47.20   18.00
  -4   2 -15  130.89   20.00
   4   2  15   36.90   24.50
  -5  -2 -15   61.49   15.10
   5  -2  15  106.19   27.70
   5  -2  15   50.79   19.20
  -5  -2 -15   40.90   13.40
   5  -2  15   70.49   15.80
   5  -2  15   12.70   24.30
  -5   2 -15   90.79   22.20
   5   2  15   60.39   17.30
   5   2  15  102.59   50.29
  -5   2 -15   89.19   19.00
  -5   2 -15  103.69   17.00
   5   2  15   72.89   20.70
   5   2  15   45.30   22.40
  -6  -2 -15   25.60   12.10
   6  -2  15   15.30   20.40
   6  -2  15    1.20   14.70
   6  -2  15    9.50   17.40
  -6  -2 -15   36.40   14.20
  -6   2 -15   51.59   16.30
   6   2  15   27.30   17.20
   6   2  15   18.70   20.00
  -6   2 -15   -8.80   19.40
   6   2  15   22.00   18.30
  -6   2 -15   36.30   13.90
   7  -2  15   65.59   15.40
   7  -2  15   47.10   18.50
  -7  -2 -15   56.99   11.70
  -7  -2 -15   42.30   13.00
   7   2  15   97.89   20.20
  -7   2 -15   64.39   27.30
   7   2  15   51.09   20.30
  -7   2 -15   71.59   12.80
  -7   2 -15   70.19   22.20
   8  -2  15   88.09   15.20
  -8  -2 -15   60.19   12.50
  -8  -2 -15   57.39   10.00
  -8  -2 -15   19.40   23.70
   8  -2  15   83.49   17.00
  -8   2 -15   51.59   11.00
   8   2  15   45.40   21.80
   9  -3 -15  161.78   22.00
  -9  -3  15  146.09   24.80
   9  -3 -15  133.39   18.60
   9  -3 -15  142.89   20.30
   9   3 -15  143.49   12.90
  -9   3  15  156.18   33.10
  -8  -3  15   94.29   14.60
  -8  -3  15   86.49   16.00
   8  -3 -15  101.69   25.10
   8  -3 -15  133.99   25.00
   8  -3 -15   90.19   12.80
  -8   3  15  125.69   38.20
   8   3 -15   95.49   13.10
  -7  -3  15  214.58   21.90
   7  -3 -15  254.27   31.20
   7  -3 -15  266.77   33.50
   7  -3 -15  189.58   22.40
  -7  -3  15  176.08   27.30
   7  -3 -15  180.98   28.00
   7   3 -15  208.28   25.50
   7   3 -15  214.38   17.30
  -7   3  15  250.37   40.60
   6  -3 -15   34.50   14.10
   6  -3 -15   51.59   19.80
  -6  -3  15   54.79   11.50
   6  -3 -15   75.09   31.60
  -6  -3  15   39.00   14.50
   6  -3 -15   20.50   23.10
   6   3 -15   54.39   11.90
  -6   3  15   27.40   22.10
  -6   3  15   78.19   32.70
   6   3 -15   30.60   20.80
   5  -3 -15   -1.10   34.50
   5  -3 -15    4.20   14.20
   5  -3 -15   23.10   19.60
  -5  -3  15   17.80   19.50
  -5  -3  15   13.40   10.80
  -5  -3  15  -15.80   17.80
  -5  -3  15   17.40   13.20
   5  -3 -15   18.60   24.20
  -5   3  15   -0.50   25.50
  -5   3  15   -3.30   19.30
   5   3 -15    2.80   14.60
   5   3 -15  -10.60   21.80
   5   3 -15   -3.80   10.90
  -4  -3  15   31.10   10.90
   4  -3 -15   15.40   19.30
  -4  -3  15   51.09   13.10
   4  -3 -15   17.30   14.20
   4  -3 -15  -56.19   40.50
  -4  -3  15   49.30   19.50
   4  -3 -15   46.70   13.00
  -4  -3  15   17.30   16.90
   4  -3 -15   21.60   23.90
  -4   3  15   37.00   25.40
  -4   3  15   19.80   21.40
   4   3 -15   19.60   13.70
   4   3 -15   63.09   22.30
   4   3 -15   58.19   13.60
  -3  -3  15    9.50   10.20
   3  -3 -15  -10.60   19.30
   3  -3 -15   81.49   60.29
   3  -3 -15    7.90   11.30
   3  -3 -15    3.40   22.00
   3  -3 -15   11.10   19.20
  -3  -3  15   -5.10   14.70
  -3  -3  15  -12.50   11.70
   3  -3 -15   20.00   15.20
  -3   3  15    2.70   21.10
   3   3 -15   33.30   14.60
  -3   3  15    1.30   19.80
   3   3 -15  -15.50   20.10
   3   3 -15   10.20   16.90
   3   3 -15   21.70   16.30
  -2  -3  15   29.00   17.10
   2  -3 -15   36.60   14.30
   2  -3 -15   43.60   18.90
  -2  -3  15   11.70   11.70
  -2  -3  15   36.30   11.20
   2  -3 -15   19.30   15.70
   2   3 -15   29.00   16.70
   2   3 -15   69.49   18.80
   2   3 -15   22.60   20.90
  -2   3  15   60.69   37.60
   1  -3 -15   87.69   35.80
  -1  -3  15  141.69   18.40
   1  -3 -15   95.89   19.80
   1  -3 -15  137.99   18.00
  -1  -3  15  138.49   20.00
  -1   3  15   64.19   31.00
   1   3 -15  152.68   23.10
   1   3 -15   89.99   24.80
   0  -3 -15   25.90   14.00
   0  -3 -15   30.50   24.20
   0  -3 -15   37.10   14.10
   0  -3  15   42.80   24.10
   0  -3  15   32.80   12.90
   0  -3  15   23.10   11.30
   0  -3 -15   28.10   20.20
   0  -3  15   59.49   16.80
   0   3  15   31.60   26.00
   0   3 -15   27.20   17.80
   0   3 -15   37.10   20.70
   0   3  15   41.10   29.20
   0   3  15    4.00   28.90
   0   3 -15    6.40   20.40
  -1  -3 -15  225.58   23.60
  -1  -3 -15  184.18   29.40
  -1  -3 -15  190.58   24.20
   1  -3  15  224.28   34.80
   1  -3  15  197.08   22.20
   1  -3  15  151.88   19.90
  -1  -3 -15  197.28   32.10
   1  -3  15  200.78   28.20
  -1   3 -15  214.58   29.00
   1   3  15  177.68   26.40
  -1   3 -15  240.68   35.30
  -1   3 -15  196.98   25.80
   1   3  15  185.28   31.10
   1   3  15  195.18   32.70
   2  -3  15   61.09   16.00
  -2  -3 -15   72.39   23.60
  -2  -3 -15   22.00   19.60
   2  -3  15   76.89   21.30
  -2  -3 -15   62.39   13.80
   2  -3  15   77.19   15.90
  -2  -3 -15   35.30   12.80
   2   3  15   68.79   20.00
   2   3  15   65.89   27.40
  -2   3 -15   60.69   19.70
   2   3  15   43.00   24.30
   2   3  15   49.20   17.70
  -2   3 -15   28.00   15.40
  -2   3 -15   21.60   15.90
  -3  -3 -15   36.00   12.20
   3  -3  15   62.59   17.20
   3  -3  15   32.40   12.70
   3  -3  15   30.40   18.20
   3  -3  15   51.09   11.90
  -3  -3 -15   28.10   17.20
  -3  -3 -15   34.40   22.70
  -3  -3 -15   24.50   12.00
  -3   3 -15   42.90   14.40
   3   3  15   11.30   21.00
  -3   3 -15   62.69   18.40
   3   3  15   89.99   19.30
   3   3  15   36.60   16.50
   3   3  15   42.20   25.60
  -3   3 -15   44.40   16.60
  -4  -3 -15  117.29   19.60
  -4  -3 -15   83.09   13.70
  -4  -3 -15   70.89   13.40
  -4  -3 -15  116.99   26.00
   4  -3  15   96.59   18.50
   4  -3  15  116.79   19.40
   4  -3  15  128.99   20.40
   4  -3  15  160.68   56.69
  -4   3 -15  105.39   19.70
   4   3  15   50.39   21.20
   4   3  15   87.59   32.20
  -4   3 -15   82.89   14.70
   4   3  15  170.48   25.10
  -4   3 -15  107.09   18.00
  -5  -3 -15   23.10   10.30
   5  -3  15  -41.60   22.70
  -5  -3 -15    4.20   11.30
   5  -3  15   13.60   30.00
  -5  -3 -15   31.50   14.90
  -5  -3 -15   46.40   24.90
   5  -3  15   21.00   10.70
   5  -3  15   24.20   15.70
  -5   3 -15   15.10   11.60
  -5   3 -15   52.19   18.50
  -5   3 -15   29.90   14.50
   5   3  15   22.20   17.80
   5   3  15   56.79   14.80
  -6  -3 -15   23.50   26.90
  -6  -3 -15   33.50   10.60
   6  -3  15   19.60   14.10
   6  -3  15   42.70   11.40
  -6  -3 -15   53.49   13.70
  -6  -3 -15   56.39   11.20
   6  -3  15   46.60   24.50
  -6   3 -15   44.30   18.50
   6   3  15   36.60   21.40
  -6   3 -15   74.39   18.80
   6   3  15   56.79   14.40
   7  -3  15   14.50   13.10
  -7  -3 -15   -6.50   16.10
   7  -4 -15   59.69    9.50
   7   4 -15   42.00    7.30
  -7   4  15   62.99   17.40
  -6  -4  15   -3.90   12.50
   6  -4 -15   -0.40    8.50
   6  -4 -15    0.00   17.00
  -6  -4  15  -20.00   16.20
   6   4 -15  -15.40    6.90
  -6   4  15   26.00   16.00
  -5  -4  15   67.19   13.60
   5  -4 -15   73.29   10.90
  -5  -4  15   66.39   12.00
   5  -4 -15   71.19   18.00
   5   4 -15   60.59    9.80
  -5   4  15   61.29   26.10
  -5   4  15   65.09   17.10
  -4  -4  15   71.69   19.40
  -4  -4  15  118.69   18.60
  -4  -4  15   83.99   12.70
   4  -4 -15   71.29   11.60
   4  -4 -15   48.20   17.80
   4   4 -15   65.29   14.80
  -4   4  15   85.69   22.80
   4   4 -15   50.19   11.90
  -4   4  15   69.09   16.40
   3  -4 -15   32.50    9.50
  -3  -4  15   45.00   11.30
   3  -4 -15   49.60   19.00
  -3  -4  15   46.20    9.80
  -3  -4  15   13.80   19.40
   3  -4 -15   32.90   10.60
  -3  -4  15   58.69   15.30
   3   4 -15   39.80   12.90
  -3   4  15   41.60   16.40
   3   4 -15   38.40   11.90
  -3   4  15   35.80   19.60
  -2  -4  15   38.60    9.70
   2  -4 -15   43.90   11.50
   2  -4 -15   72.09   18.60
  -2  -4  15   54.79   11.60
  -2  -4  15   40.90   15.10
   2  -4 -15   63.39   10.20
   2  -4 -15   46.00   20.40
   2   4 -15   46.20   14.20
  -2   4  15   35.10   16.30
  -2   4  15   36.60   19.70
   1  -4 -15   71.89   12.50
  -1  -4  15   71.99   12.10
   1  -4 -15   75.79   15.00
   1  -4 -15   49.40   10.40
   1  -4 -15   43.20   21.70
  -1  -4  15   94.59   15.40
   1   4 -15   79.59   15.50
  -1   4  15   43.40   18.80
  -1   4  15   37.30   17.30
   0  -4 -15   38.40    9.80
   0  -4 -15   37.50   13.10
   0  -4 -15   74.99   22.30
   0  -4  15   58.59   13.40
   0  -4  15   29.80   12.50
   0   4  15   14.60   17.90
   0   4 -15   25.30   13.00
   0   4  15   37.40   18.80
   0   4 -15   42.30   24.30
  -1  -4 -15  119.79   14.50
   1  -4  15  117.99   19.10
  -1  -4 -15   97.49   16.00
  -1  -4 -15  156.18   24.70
   1  -4  15  149.39   20.70
   1  -4  15   72.39   10.00
   1  -4  15   88.59   23.90
  -1   4 -15  150.48   20.50
  -1   4 -15  110.59   15.40
   1   4  15  100.19   21.60
  -2  -4 -15  144.89   20.40
  -2  -4 -15  164.08   17.20
   2  -4  15  159.98   30.60
   2  -4  15  209.28   21.50
  -2  -4 -15  225.38   39.60
   2  -4  15  190.18   19.80
  -2   4 -15  222.68   21.10
  -2   4 -15  155.28   20.80
   2   4  15  136.79   24.40
  -3  -4 -15   36.60   10.00
  -3  -4 -15   11.30   10.60
   3  -4  15   22.30   10.40
   3  -4  15   36.90   14.00
  -3  -4 -15   55.79   26.60
   3  -4  15   26.10   15.70
   3   4  15  -34.40   24.00
  -3   4 -15   35.00   13.80
  -3   4 -15   37.90   13.30
  -4  -4 -15   24.80    8.10
   4  -4  15   12.90   14.20
   4  -4  15    4.30    8.60
  -4   4 -15   12.20   10.30
  -4   4 -15   16.00   11.00
  11   0 -16  339.97   28.00
 -11   0  16  238.58   20.80
 -10   0  16   45.20   15.20
  10   0 -16    2.00   17.20
  10   0 -16   36.50   19.80
  10   0 -16   19.70   24.00
 -10   0  16   25.30   11.80
 -10   0  16   52.99   15.00
   9   0 -16  239.58   34.40
   9   0 -16  219.58   30.40
  -9   0  16  222.18   26.80
  -9   0  16  199.88   29.00
  -9   0  16  246.18   25.60
   9   0 -16  226.18   27.90
   9   0 -16  202.68   18.60
   9   0 -16  195.38   31.00
  -8   0  16   14.10   14.60
   8   0 -16    3.50   16.10
  -8   0  16   -1.50   14.40
  -8   0  16   24.80   16.30
   8   0 -16   12.60   20.80
   8   0 -16    0.70   11.30
   8   0 -16    6.20   19.50
   7   0 -16   55.89   30.40
  -7   0  16   18.70   14.90
   7   0 -16   15.40   11.90
   7   0 -16   26.70   23.10
  -7   0  16   50.09   28.00
   6   0 -16    4.20   19.80
  -6   0  16    5.60   14.90
  -6   0  16   11.80   14.60
   6   0 -16   22.30   21.20
  -6   0  16   11.70   13.70
   6   0 -16    8.80   13.30
   6   0 -16  -17.50   17.70
  -5   0  16  -56.89   39.60
  -5   0  16   14.50   16.50
  -5   0  16   15.20   15.60
   5   0 -16   19.10   16.60
  -5   0  16   28.00   29.20
   5   0 -16   25.40   20.40
   5   0 -16    8.20   19.50
   5   0 -16   19.70   15.80
   4   0 -16    2.30   19.00
  -4   0  16  -15.80   23.20
   4   0 -16  -17.80   18.30
  -4   0  16  -16.60   15.40
   4   0 -16    9.20   21.80
  -4   0  16   -3.00   35.00
   4   0 -16    7.20   19.20
  -4   0  16  -29.60   15.10
  -3   0  16   62.79   38.10
   3   0 -16   94.49   20.50
   3   0 -16   92.99   28.30
  -3   0  16  141.79   33.10
   3   0 -16  147.09   24.80
  -3   0  16  144.29   28.60
   3   0 -16  142.09   39.40
   3   0 -16   98.39   24.70
  -3   0  16  121.29   27.40
  -3   0  16  113.59   20.40
  -3   0  16  128.49   18.70
   2   0 -16  -22.80   19.40
  -2   0  16   -2.00   22.10
   2   0 -16   15.70   31.20
   2   0 -16    8.70   20.70
  -2   0  16   17.90   32.80
   2   0 -16   10.40   17.80
   2   0 -16    8.00   27.50
  -2   0  16   19.60   15.60
  -2   0  16   16.10   15.70
  -2   0  16  -60.19   28.30
  -1   0  16   16.40   21.10
  -1   0  16   16.70   14.90
   1   0 -16   -5.70   23.20
  -1   0  16   37.30   26.20
  -1   0  16  -10.60   30.80
  -1   0  16  -17.60   40.70
   1   0 -16    9.50   19.80
  -1   0  16   18.30   16.60
   1   0 -16   46.30   17.10
   1   0 -16   -0.10   16.40
   0   0  16  582.14   55.99
   0   0  16  606.94   40.40
   0   0  16  668.53   47.80
   0   0 -16  660.63   50.99
   0   0 -16  726.83   39.20
   0   0 -16  622.34   46.10
   0   0 -16  610.54   40.30
   0   0  16  728.33   55.49
   0   0  16  658.83   64.49
   1   0  16  146.39   26.30
  -1   0 -16  130.69   20.50
   1   0  16  202.48   28.20
   1   0  16  125.69   31.30
   1   0  16  171.18   32.20
  -1   0 -16  158.28   22.60
   1   0  16  189.28   31.80
  -1   0 -16  110.69   22.80
  -1   0 -16  181.48   31.50
   2   0  16   24.80   24.40
  -2   0 -16  -21.00   19.90
   2   0  16   12.20   16.30
  -2   0 -16  -23.00   15.50
  -2   0 -16   -5.30   15.90
   2   0  16   15.20   25.60
   2   0  16   18.50   22.30
  -2   0 -16    8.30   28.20
  -2   0 -16    4.50   18.90
   3   0  16   49.70   22.70
  -3   0 -16   10.50   16.10
   3   0  16    7.20   25.70
   3   0  16   62.79   19.60
  -3   0 -16   35.80   17.10
   3   0  16   46.70   25.00
  -3   0 -16   69.69   22.90
  -3   0 -16   78.49   31.90
  -4   0 -16  318.67   42.60
   4   0  16  321.47   44.70
  -4   0 -16  407.56   64.19
   4   0  16  306.67   42.40
   4   0  16  224.38   43.20
  -4   0 -16  276.17   37.40
   4   0  16  246.48   47.30
  -5   0 -16   38.00   15.10
   5   0  16    9.10   19.30
   5   0  16   72.29   31.80
  -5   0 -16   33.40   14.90
   5   0  16   28.80   18.30
   5   0  16   -2.90   29.50
  -6   0 -16   88.69   15.10
   6   0  16  101.89   23.70
  -6   0 -16   84.79   15.10
   6   0  16   73.89   25.80
   6   0  16  105.99   18.00
  -7   0 -16   -0.30   10.70
   7   0  16   -8.50   21.80
  -7   0 -16   17.00   12.00
   7   0  16   -8.80   16.90
   7   0  16    8.90   13.50
  -8   0 -16  176.08   16.80
  -8   0 -16  185.38   28.50
   8   0  16  152.38   28.40
   8   0  16  181.58   20.70
 -11  -1  16   -2.60    9.50
  11  -1 -16    3.60   12.60
  11  -1 -16   -6.10   12.00
 -11   1  16   36.10   12.00
  10  -1 -16   24.20   14.50
 -10  -1  16   17.60   12.80
  10  -1 -16   12.90   13.70
 -10  -1  16   53.79   19.80
 -10  -1  16   21.80   11.90
  10  -1 -16   58.79   16.50
 -10   1  16   24.20   16.10
 -10   1  16   12.50   13.30
  10   1 -16   19.90    8.50
  -9  -1  16   -4.40   18.20
  -9  -1  16   11.00   12.20
   9  -1 -16   11.90   17.10
   9  -1 -16   16.80   17.60
  -9  -1  16   -6.80   13.30
   9   1 -16   -9.10   12.90
   9   1 -16    0.50    8.10
  -9   1  16   25.10   15.10
  -9   1  16    2.50   12.60
   9   1 -16   23.70   28.00
   8  -1 -16  206.98   33.00
  -8  -1  16  217.78   23.20
   8  -1 -16  234.88   32.40
   8  -1 -16  222.98   33.90
  -8  -1  16  195.38   24.80
  -8  -1  16  202.68   32.10
   8   1 -16  207.48   20.40
   8   1 -16  206.68   30.50
  -8   1  16  186.28   23.00
   8   1 -16  212.58   24.70
  -8   1  16  192.98   26.60
   8   1 -16  182.88   31.30
  -8   1  16  201.18   47.80
   7  -1 -16   85.39   22.90
  -7  -1  16   45.20   14.00
   7  -1 -16   21.20   21.10
  -7  -1  16   47.40   18.10
   7  -1 -16   20.40   18.90
   7   1 -16   42.90   28.10
   7   1 -16   56.69   19.70
  -7   1  16   60.49   18.50
   7   1 -16   41.80   17.70
  -7   1  16   46.40   15.90
  -7   1  16   60.99   24.30
   7   1 -16   38.20   12.30
  -6  -1  16   57.79   15.10
  -6  -1  16   48.10   31.70
   6  -1 -16   56.29   23.60
  -6  -1  16   41.10   16.30
   6  -1 -16   50.39   18.90
  -6  -1  16   52.89   14.70
  -6   1  16   37.10   17.50
  -6   1  16   45.00   17.70
   6   1 -16   32.10   19.50
  -6   1  16   45.90   40.50
   6   1 -16   22.80   17.90
   6   1 -16   37.10   29.40
  -6   1  16   25.30   32.10
  -6   1  16   56.09   25.00
  -5  -1  16   48.20   23.20
   5  -1 -16   21.70   36.80
   5  -1 -16   26.80   19.10
   5  -1 -16   40.60   24.00
  -5  -1  16   47.80   60.79
   5  -1 -16   34.00   20.10
  -5  -1  16   35.10   14.60
  -5  -1  16   31.60   14.80
  -5  -1  16   38.10   17.40
   5   1 -16   22.70   14.90
  -5   1  16    9.60   15.80
   5   1 -16   38.90   17.70
   5   1 -16   29.30   27.10
   5   1 -16   19.40   17.10
  -5   1  16   58.49   38.10
  -5   1  16   -0.30   27.90
   5   1 -16   48.90   19.60
  -5   1  16   23.10   16.60
  -5   1  16   13.10   31.00
  -4  -1  16  215.68   50.19
   4  -1 -16  309.87   53.99
  -4  -1  16  286.77   27.00
   4  -1 -16  257.17   34.80
   4  -1 -16  306.67   43.70
   4  -1 -16  259.37   32.80
  -4  -1  16  395.46   41.70
  -4  -1  16  277.57   29.70
  -4  -1  16  317.97   31.40
  -4   1  16  225.58   37.90
   4   1 -16  273.37   36.70
  -4   1  16  250.97   33.50
  -4   1  16  232.88   35.30
   4   1 -16  302.07   30.80
  -4   1  16  306.87   33.20
   4   1 -16  293.87   36.30
   4   1 -16  284.77   34.80
  -4   1  16  212.58   34.80
   4   1 -16  300.77   33.60
   3  -1 -16   45.30   27.90
  -3  -1  16   31.20   20.10
  -3  -1  16   -0.30   37.80
   3  -1 -16   34.90   17.60
  -3  -1  16   41.20   15.60
   3  -1 -16   35.10   17.90
   3  -1 -16   76.39   27.50
  -3  -1  16   32.00   15.90
   3  -1 -16   38.10   20.20
  -3  -1  16   37.20   14.50
  -3   1  16   53.89   18.60
  -3   1  16   46.20   26.70
   3   1 -16   29.30   19.50
  -3   1  16   26.00   20.40
   3   1 -16   36.80   26.80
   3   1 -16   23.00   21.20
  -3   1  16   53.49   30.00
   3   1 -16   46.70   18.90
  -3   1  16   18.10   28.60
  -2  -1  16  210.38   26.50
   2  -1 -16  193.18   25.80
  -2  -1  16  220.08   40.80
  -2  -1  16  191.88   27.80
   2  -1 -16  208.58   32.90
   2  -1 -16  239.58   27.90
   2  -1 -16  215.98   35.00
   2  -1 -16  260.87   34.90
  -2  -1  16  211.88   27.80
  -2   1  16  218.28   33.20
  -2   1  16  227.08   29.90
   2   1 -16  224.68   27.40
   2   1 -16  185.58   30.40
   2   1 -16  223.08   30.90
  -2   1  16  203.38   32.10
   2   1 -16  180.28   25.20
  -2   1  16  164.58   32.10
  -1  -1  16   81.79   33.90
   1  -1 -16    9.40   14.40
  -1  -1  16    5.00   13.80
   1  -1 -16    8.20   19.40
  -1  -1  16   66.19   41.90
   1  -1 -16  -15.00   15.70
   1  -1 -16    8.00   24.50
   1  -1 -16   50.19   29.30
   1  -1 -16  -15.30   17.80
  -1  -1  16   21.30   14.60
  -1  -1  16  -91.39   44.20
  -1  -1  16    7.70   21.40
  -1   1  16   12.70   22.80
   1   1 -16    0.90   19.90
  -1   1  16   11.30   17.00
  -1   1  16   -0.40   37.40
   1   1 -16   54.49   27.50
   1   1 -16   10.10   17.40
  -1   1  16   47.40   31.00
   1   1 -16   27.40   19.80
  -1   1  16   27.50   24.60
   0  -1  16  138.09   20.80
   0  -1 -16  133.69   18.40
   0  -1  16  175.48   26.20
   0  -1 -16  133.69   18.50
   0  -1 -16  186.88   26.30
   0  -1  16  183.18   35.90
   0  -1  16  169.48   26.50
   0  -1  16  172.88   24.70
   0  -1  16  152.88   33.30
   0  -1  16  139.79   39.90
   0  -1 -16  129.49   22.40
   0  -1 -16  154.78   36.10
   0  -1 -16  167.88   25.60
   0   1 -16  111.29   29.10
   0   1  16  149.39   22.90
   0   1 -16  150.58   24.60
   0   1 -16  118.89   22.80
   0   1 -16  154.68   21.40
   0   1  16  131.99   28.50
   0   1  16   91.99   32.70
  -1  -1 -16  221.48   34.10
   1  -1  16  159.58   30.80
   1  -1  16  187.98   27.20
   1  -1  16  180.48   27.60
   1  -1  16  139.49   33.10
  -1  -1 -16  224.78   27.80
  -1  -1 -16  238.88   41.40
  -1  -1 -16  200.08   29.20
  -1  -1 -16  177.78   22.80
  -1  -1 -16  174.48   22.80
   1  -1  16  185.48   26.70
  -1   1 -16  149.09   24.60
   1   1  16  191.58   28.10
  -1   1 -16  222.08   24.60
  -1   1 -16  184.68   29.90
   1   1  16  161.88   28.90
  -1   1 -16  147.69   25.00
   1   1  16  173.78   24.70
   1   1  16  169.18   35.10
   2  -1  16   86.79   26.30
  -2  -1 -16  104.69   17.70
   2  -1  16   96.09   22.00
  -2  -1 -16   73.39   20.00
  -2  -1 -16  115.79   20.60
   2  -1  16   85.09   29.70
  -2  -1 -16  118.69   21.90
   2  -1  16   74.09   36.60
  -2  -1 -16  129.49   44.80
   2  -1  16  133.89   18.60
  -2  -1 -16  104.59   21.40
  -2   1 -16  105.19   18.70
  -2   1 -16   65.59   21.30
  -2   1 -16  149.29   28.20
   2   1  16  132.19   26.90
   2   1  16  119.69   28.00
   2   1  16   94.89   27.30
  -2   1 -16  128.39   25.80
   3  -1  16  427.66   47.30
   3  -1  16  413.56   44.50
   3  -1  16  404.26   31.70
   3  -1  16  486.15   41.80
  -3  -1 -16  402.66   35.80
  -3  -1 -16  455.95   35.20
  -3  -1 -16  470.35   33.20
   3   1  16  392.46   38.00
  -3   1 -16  392.46   33.50
   3   1  16  439.66   48.10
   3   1  16  300.97   46.20
  -3   1 -16  377.56   43.60
  -3   1 -16  493.15   52.89
   3   1  16  364.56   53.49
   4  -1  16   89.29   25.10
  -4  -1 -16  112.29   17.70
   4  -1  16  103.09   24.00
   4  -1  16   84.29   21.90
  -4  -1 -16  125.39   19.70
   4  -1  16  101.09   17.80
  -4  -1 -16  142.99   21.10
  -4   1 -16  173.68   28.70
   4   1  16  143.19   32.20
  -4   1 -16  100.19   24.20
   4   1  16   80.59   25.30
  -4   1 -16  115.09   28.20
  -4   1 -16  110.99   19.60
   4   1  16   84.99   28.00
   5  -1  16   58.39   19.80
  -5  -1 -16   98.09   18.60
  -5  -1 -16   84.59   15.60
  -5  -1 -16  121.79   19.20
   5  -1  16   69.69   22.40
   5  -1  16   54.59   29.40
   5  -1  16   79.49   22.30
   5   1  16  111.49   26.50
  -5   1 -16   93.69   24.00
  -5   1 -16  126.39   28.40
   5   1  16   84.79   36.20
   5   1  16   72.49   18.30
  -5   1 -16   99.39   17.40
   6  -1  16   -4.60   16.30
  -6  -1 -16    7.80   11.80
   6  -1  16   79.09   45.90
  -6  -1 -16   41.00   15.40
  -6  -1 -16   16.50   16.70
   6  -1  16    1.60   16.80
  -6   1 -16   23.30   28.60
  -6   1 -16    0.90   12.50
   6   1  16   37.20   21.00
   6   1  16   23.30   14.60
   7  -1  16   52.89   28.90
  -7  -1 -16   60.49   10.90
   7  -1  16   59.69   15.20
  -7  -1 -16   90.89   18.00
   7  -1  16   39.90   16.60
  -7  -1 -16   54.49   20.00
  -7   1 -16   64.99   12.10
   7   1  16   56.99   18.10
   7   1  16   63.79   14.40
   8  -1  16   19.30   12.10
  -8  -1 -16    3.70   11.80
   8  -1  16    6.90   16.10
  -8  -1 -16   -3.00    9.40
   8   1  16    4.40   18.40
  -8   1 -16   -3.70    8.10
  10  -2 -16   40.40   13.40
 -10  -2  16   55.59   12.20
  10  -2 -16   64.49   16.10
  10   2 -16   44.00    7.60
 -10   2  16   76.49   20.80
   9  -2 -16  339.97   33.50
   9  -2 -16  329.67   29.30
  -9  -2  16  264.07   24.80
  -9  -2  16  297.27   25.90
   9   2 -16  320.07   19.30
   9   2 -16  309.97   25.30
  -9   2  16  335.87   29.40
  -8  -2  16   37.30   17.40
  -8  -2  16   70.59   28.30
   8  -2 -16   38.40   17.40
   8  -2 -16   39.40   21.70
   8  -2 -16   42.80   19.60
  -8   2  16  122.09   58.19
   8   2 -16   33.40   10.10
  -8   2  16   39.80   19.60
   8   2 -16   50.29   15.70
   7  -2 -16    7.30   22.80
  -7  -2  16   48.50   13.40
  -7  -2  16   18.80   12.10
   7  -2 -16   41.80   19.40
   7  -2 -16   48.10   17.10
  -7  -2  16   29.30   19.80
  -7   2  16   31.60   17.20
   7   2 -16   34.60   16.70
  -7   2  16   78.19   23.20
   7   2 -16   21.80   11.20
  -7   2  16    4.90   30.10
   6  -2 -16   56.49   25.30
   6  -2 -16   22.00   19.70
  -6  -2  16   37.50   13.50
  -6  -2  16   30.30   12.40
   6  -2 -16   17.80   17.80
  -6  -2  16   54.69   18.20
   6  -2 -16   22.40   29.50
  -6  -2  16    0.70   29.60
   6   2 -16   41.70   19.90
   6   2 -16   27.60   17.50
  -6   2  16    9.30   28.10
  -6   2  16   31.50   31.80
  -6   2  16   60.49   20.90
   6   2 -16   38.10   12.70
   5  -2 -16   61.99   28.60
   5  -2 -16    2.70   27.50
   5  -2 -16   27.40   17.90
  -5  -2  16  -14.20   19.60
   5  -2 -16    9.70   17.30
  -5  -2  16   18.90   15.10
  -5  -2  16   10.00   14.30
  -5   2  16   52.29   25.50
  -5   2  16   -1.20   26.60
   5   2 -16   22.30   13.40
   5   2 -16   17.60   17.00
  -5   2  16   34.30   21.50
   5   2 -16   12.80   17.00
   5   2 -16   28.30   19.40
   4  -2 -16  466.35   59.39
   4  -2 -16  472.75   37.60
   4  -2 -16  389.56   54.99
  -4  -2  16  437.56   27.70
  -4  -2  16  444.66   32.20
   4   2 -16  441.66   39.20
   4   2 -16  449.95   36.10
  -4   2  16  377.56   57.89
   4   2 -16  404.46   35.50
  -4   2  16  455.15   63.59
   4   2 -16  393.06   29.90
  -3  -2  16  130.09   20.70
  -3  -2  16  126.69   21.90
   3  -2 -16  240.68   42.50
  -3  -2  16  174.78   25.40
   3  -2 -16  143.39   22.40
   3  -2 -16  190.68   30.20
  -3  -2  16  165.28   23.20
   3  -2 -16  125.29   20.80
  -3   2  16  135.19   25.90
   3   2 -16  184.58   24.40
   3   2 -16  183.38   33.40
   3   2 -16  152.58   21.50
  -3   2  16  114.89   28.10
   3   2 -16  100.99   19.70
  -3   2  16  171.08   28.40
   2  -2 -16   10.50   24.00
   2  -2 -16    8.90   13.80
  -2  -2  16    9.70   12.90
   2  -2 -16  -22.20   37.00
   2  -2 -16   28.90   19.40
  -2  -2  16    3.60   17.50
  -2  -2  16  -20.40   11.70
   2  -2 -16    0.70   17.80
  -2  -2  16    3.30   11.50
  -2   2  16   14.60   24.20
  -2   2  16  -35.60   26.20
   2   2 -16   24.80   17.00
   2   2 -16   32.00   17.90
   2   2 -16    7.00   16.10
  -2   2  16   15.30   21.40
   1  -2 -16   80.99   26.20
   1  -2 -16   49.90   19.90
  -1  -2  16   63.49   16.30
  -1  -2  16   89.69   14.60
  -1  -2  16   57.89   13.00
   1  -2 -16   66.79   19.20
  -1  -2  16  102.69   22.20
   1  -2 -16   53.09   20.10
   1  -2 -16   34.90   14.40
   1   2 -16   30.80   17.60
  -1   2  16   93.59   22.70
  -1   2  16   50.89   28.00
  -1   2  16   23.00   34.50
   1   2 -16  115.59   19.40
   1   2 -16  109.59   20.40
   0  -2 -16   54.89   14.10
   0  -2  16   98.49   21.00
   0  -2  16   57.99   16.00
   0  -2  16   44.40   13.00
   0  -2 -16   47.00   22.00
   0  -2 -16   68.19   17.80
   0  -2 -16   47.90   17.90
   0  -2  16   76.29   17.60
   0   2 -16   48.00   18.70
   0   2 -16   45.70   18.90
   0   2  16   57.09   27.40
   0   2  16   56.49   20.10
   0   2 -16   66.39   18.50
   0   2  16   18.60   29.00
   1  -2  16   32.20   13.80
  -1  -2 -16   12.80   17.70
   1  -2  16   25.50   32.00
  -1  -2 -16    7.30   23.60
   1  -2  16   19.10   19.10
   1  -2  16   -8.90   16.10
   1  -2  16   -1.40   12.20
  -1  -2 -16    6.40   16.00
  -1  -2 -16   -6.40   12.80
  -1   2 -16   -5.00   16.70
  -1   2 -16   -2.40   15.10
   1   2  16   19.00   18.30
   1   2  16   -2.90   29.00
   1   2  16   -9.50   23.20
  -1   2 -16  -13.10   18.00
   1   2  16  -19.80   17.90
   2  -2  16  -45.90   39.40
   2  -2  16   25.00   21.20
  -2  -2 -16   25.20   15.60
   2  -2  16   45.70   27.60
   2  -2  16   17.80   14.10
   2  -2  16   -1.80   20.50
   2   2  16   19.30   18.70
  -2   2 -16   47.80   31.20
   2   2  16   21.50   27.50
  -2   2 -16   30.20   15.60
   2   2  16   26.70   23.90
  -2   2 -16   14.00   17.20
  -3  -2 -16  150.58   25.20
  -3  -2 -16  154.38   25.10
   3  -2  16  115.59   34.10
   3  -2  16  223.98   30.80
   3  -2  16  121.59   17.70
  -3  -2 -16  143.79   23.30
   3  -2  16  144.19   26.00
   3   2  16  161.18   30.00
  -3   2 -16  177.08   28.90
  -3   2 -16  121.69   21.10
  -3   2 -16  204.68   26.00
   3   2  16  173.38   23.70
   3   2  16  136.69   29.60
   3   2  16  127.39   20.40
  -4  -2 -16  273.07   30.60
   4  -2  16  248.08   35.00
   4  -2  16  307.87   26.30
   4  -2  16  270.87   44.10
  -4  -2 -16  258.07   25.80
   4  -2  16  190.98   32.10
  -4  -2 -16  235.28   25.70
  -4   2 -16  285.67   34.90
   4   2  16  257.07   28.90
   4   2  16  310.97   48.30
   4   2  16  270.97   32.50
  -4   2 -16  287.97   29.80
   4   2  16  182.48   29.80
  -4   2 -16  285.37   25.70
   5  -2  16  -14.00   21.20
  -5  -2 -16   16.40   14.10
   5  -2  16   -9.40   24.70
   5  -2  16    9.20   17.00
  -5  -2 -16   -6.70   16.00
  -5  -2 -16    4.90   10.80
   5  -2  16  -24.40   12.40
  -5   2 -16   24.50   17.90
   5   2  16   26.50   15.30
  -5   2 -16   34.10   15.60
   5   2  16   -1.60   19.50
  -5   2 -16    3.80   12.10
   5   2  16  -10.00   17.70
   6  -2  16   52.69   16.50
   6  -2  16   53.89   19.30
  -6  -2 -16   36.20   10.50
  -6  -2 -16   35.30   13.60
  -6  -2 -16   29.50   13.30
  -6   2 -16   53.19   18.90
  -6   2 -16   53.79   12.10
   6   2  16   40.20   20.90
  -6   2 -16   60.49   24.60
   6   2  16   37.60   19.60
  -7  -2 -16   39.50    9.60
   7  -2  16   42.20   15.00
   7  -2  16   22.60   15.90
  -7  -2 -16   64.49   12.90
  -7  -2 -16   23.20   19.60
   7   2  16   20.70   17.60
  -7   2 -16   57.79   20.00
  -7   2 -16   11.30   28.30
  -7   2 -16   62.39   11.50
   8  -3 -16  248.08   32.20
  -8  -3  16  183.28   21.20
   8  -3 -16  213.98   20.40
  -8  -3  16  197.38   23.10
   8  -3 -16  230.68   26.40
  -8   3  16  313.67   35.80
   8   3 -16  204.48   15.00
  -7  -3  16  211.78   20.50
   7  -3 -16  242.48   41.30
   7  -3 -16  178.78   27.70
  -7  -3  16  186.28   24.30
   7  -3 -16  316.27   51.79
   7  -3 -16  169.58   22.30
  -7   3  16  255.67   37.20
   7   3 -16  184.88   15.50
   7   3 -16  187.38   23.50
   6  -3 -16  152.68   30.90
  -6  -3  16  128.29   21.60
   6  -3 -16  126.59   20.10
  -6  -3  16  134.79   28.30
   6  -3 -16  126.09   23.90
   6  -3 -16  147.19   20.60
  -6  -3  16  112.59   18.30
   6   3 -16  141.29   15.50
  -6   3  16   83.89   22.20
   6   3 -16  164.18   24.20
  -6   3  16  131.59   38.00
  -5  -3  16    1.70   11.80
  -5  -3  16   -5.40   19.40
  -5  -3  16    5.00   10.90
   5  -3 -16    5.10   17.30
  -5  -3  16   44.50   18.60
   5  -3 -16   26.30   34.20
   5  -3 -16   25.10   12.80
   5  -3 -16    9.60   20.60
  -5   3  16  -10.80   24.60
   5   3 -16   25.00   19.80
  -5   3  16  -38.20   17.70
   5   3 -16   21.00   12.90
   5   3 -16   -4.20   10.20
   4  -3 -16   43.70   41.40
   4  -3 -16   86.99   19.00
  -4  -3  16   88.49   17.40
   4  -3 -16  108.99   24.50
  -4  -3  16   72.29   13.10
  -4  -3  16   73.49   13.00
  -4  -3  16   99.19   18.30
   4  -3 -16  104.19   16.80
   4   3 -16   73.09   14.90
  -4   3  16   66.89   24.20
   4   3 -16   90.19   21.50
  -4   3  16   42.10   20.10
   4   3 -16   62.99   14.10
   3  -3 -16    7.90   67.79
  -3  -3  16   57.89   12.80
  -3  -3  16   29.10   14.80
   3  -3 -16   53.09   18.00
  -3  -3  16   40.60   17.20
  -3  -3  16   47.20   11.30
   3  -3 -16   48.80   12.40
   3  -3 -16   65.19   22.50
   3  -3 -16   55.89   15.60
   3   3 -16   40.80   15.60
   3   3 -16   42.90   17.20
   3   3 -16    4.60   16.10
  -3   3  16   52.89   20.60
  -3   3  16   27.40   20.80
   3   3 -16   46.90   19.90
  -2  -3  16  131.99   18.80
  -2  -3  16  131.79   17.80
   2  -3 -16  157.58   36.30
   2  -3 -16  116.19   18.70
   2  -3 -16  151.28   26.40
  -2  -3  16  142.19   18.60
   2  -3 -16  155.38   24.40
   2  -3 -16  126.69   14.10
  -2  -3  16  178.38   26.80
   2   3 -16  142.89   21.50
  -2   3  16  112.89   20.70
  -2   3  16   82.69   22.50
   2   3 -16  117.89   17.90
   2   3 -16   94.39   16.00
   1  -3 -16   71.29   22.30
  -1  -3  16   79.39   11.50
   1  -3 -16  113.69   17.70
   1  -3 -16   56.59   18.20
  -1  -3  16  122.49   20.00
   1  -3 -16   76.39   13.00
  -1  -3  16  126.29   20.60
   1   3 -16  103.19   16.90
   1   3 -16  106.89   20.30
  -1   3  16   83.19   24.50
  -1   3  16  124.79   21.40
   1   3 -16   77.89   17.00
   0  -3  16   62.69   14.00
   0  -3 -16   78.39   22.80
   0  -3 -16   83.49   13.60
   0  -3  16   39.60   29.20
   0  -3 -16   43.70   14.60
   0  -3 -16   53.89   17.30
   0  -3  16   71.59   11.50
   0  -3  16   81.59   17.50
   0  -3  16   64.39   14.70
   0   3 -16   86.29   15.50
   0   3 -16   37.10   13.70
   0   3 -16   64.59   18.20
   0   3  16   61.79   23.30
   0   3  16   49.80   28.10
   0   3  16   77.59   18.90
   1  -3  16  255.77   27.60
  -1  -3 -16  228.88   37.50
   1  -3  16  231.58   24.30
  -1  -3 -16  241.28   29.80
   1  -3  16  260.77   20.60
   1  -3  16  235.58   36.70
  -1  -3 -16  251.57   22.00
   1  -3  16  263.67   25.40
  -1  -3 -16  240.98   26.30
   1   3  16  302.67   32.00
  -1   3 -16  276.37   27.40
  -1   3 -16  212.08   31.20
  -1   3 -16  224.68   25.70
   1   3  16  233.48   38.10
   1   3  16  174.98   29.50
  -2  -3 -16   22.40   10.40
   2  -3  16    9.30   12.00
   2  -3  16   14.70   11.10
  -2  -3 -16   16.60   12.60
   2  -3  16   23.80   15.80
  -2  -3 -16   20.10   16.00
   2  -3  16   -5.70   19.70
  -2  -3 -16   34.90   20.00
   2   3  16    9.80   17.10
  -2   3 -16   47.20   19.10
   2   3  16   39.80   22.80
   2   3  16   29.10   14.20
   2   3  16   16.00   23.70
  -2   3 -16   19.10   14.10
  -2   3 -16   -8.00   12.20
   3  -3  16   72.89   19.60
  -3  -3 -16   96.89   22.90
  -3  -3 -16   93.39   14.10
   3  -3  16   87.89   13.30
   3  -3  16  136.19   24.20
  -3  -3 -16   86.39   12.20
  -3  -3 -16   79.59   16.70
   3   3  16  112.49   26.50
  -3   3 -16   97.89   16.00
   3   3  16  141.99   22.50
  -3   3 -16  154.88   20.50
   3   3  16  136.69   19.30
  -3   3 -16  107.99   15.50
   3   3  16   61.89   21.90
   4  -3  16   73.09   24.80
   4  -3  16  117.89   17.30
  -4  -3 -16  120.19   23.50
  -4  -3 -16   85.69   15.00
  -4  -3 -16   78.29   13.40
  -4  -3 -16   85.79   11.90
   4  -3  16  125.19   19.80
  -4   3 -16   77.09   12.90
  -4   3 -16  138.69   21.80
   4   3  16   82.69   20.10
   4   3  16  131.39   31.90
   5  -3  16  190.68   37.90
  -5  -3 -16  245.78   22.90
  -5  -3 -16  245.38   20.40
   5  -3  16  260.17   19.90
  -5  -3 -16  297.27   39.10
  -5  -3 -16  235.58   21.60
   5   3  16  221.78   35.20
  -5   3 -16  272.07   22.70
  -6  -3 -16  164.08   20.10
   6  -3  16  179.38   20.40
  -6  -3 -16  186.58   15.50
  -6   3 -16  248.48   22.00
  -5  -4  16   21.90   10.10
   5  -4 -16    6.80    8.10
   5  -4 -16   -2.70   15.80
  -5   4  16   19.70   14.20
   4  -4 -16    3.20   18.00
  -4  -4  16  -16.40   17.00
  -4  -4  16   13.80   11.50
  -4  -4  16  -18.80    9.00
  -4   4  16   -9.80   20.90
  -4   4  16   23.40   16.80
  -3  -4  16   11.30    8.90
  -3  -4  16   10.30   19.20
   3  -4 -16   -9.90   16.00
  -3  -4  16   -3.70   11.70
   3  -4 -16    5.10    8.50
  -3  -4  16   25.90   13.50
   3   4 -16   19.30   14.20
  -3   4  16   15.40   15.50
  -3   4  16   -3.80   21.30
   2  -4 -16    2.30    9.00
   2  -4 -16   -0.10    8.40
  -2  -4  16   19.90    8.10
  -2  -4  16  -22.30   14.20
  -2  -4  16   12.80   12.70
  -2  -4  16   25.50   11.20
   2  -4 -16    1.50   16.40
  -2   4  16   -2.00   18.00
   2   4 -16   -3.90   11.60
  -2   4  16   31.40   17.60
  -1  -4  16  121.99   13.90
   1  -4 -16   97.79   15.30
  -1  -4  16  131.89   19.30
   1  -4 -16  120.29   17.00
  -1  -4  16  111.49   18.80
   1  -4 -16  112.19   21.60
  -1  -4  16   86.99   14.40
  -1   4  16  120.49   26.30
  -1   4  16  114.29   21.60
   1   4 -16  103.89   15.30
   0  -4  16  401.56   21.00
   0  -4 -16  367.46   21.00
   0  -4 -16  362.96   23.00
   0  -4 -16  397.86   41.70
   0  -4  16  347.37   25.90
   0  -4  16  300.67   29.00
   0  -4  16  414.16   25.60
   0   4 -16  391.16   26.90
   0   4  16  355.06   33.70
   1  -4  16   55.29   17.20
   1  -4  16   46.20   11.30
  -1  -4 -16   35.00   20.40
  -1  -4 -16   77.69   14.60
  -1  -4 -16   41.20   10.90
   1   4  16   50.29   19.80
  -2  -4 -16   99.19   12.30
   2  -4  16  108.59   18.20
  -2  -4 -16  105.39   23.00
   2  -4  16  107.99   14.90
   2   4  16   69.49   21.40
  -2   4 -16  101.39   14.10
  -2   4 -16   61.69   11.90
   3  -4  16  -16.90   17.00
 -10   0  17   19.20   14.00
 -10   0  17   44.20   13.20
  10   0 -17   53.09   17.70
   9   0 -17   43.40   25.70
  -9   0  17   19.20   17.50
   9   0 -17   -2.50   13.30
   9   0 -17   12.20   17.60
  -9   0  17    2.70   13.10
  -9   0  17    6.90   11.20
   9   0 -17   20.00   15.90
   8   0 -17  251.27   31.30
   8   0 -17  317.37   36.50
  -8   0  17  344.27   30.70
  -8   0  17  235.48   37.10
   8   0 -17  231.18   27.30
  -8   0  17  270.47   27.20
   7   0 -17   12.30   18.50
  -7   0  17   14.30   15.80
   7   0 -17   11.70   17.50
  -7   0  17    8.40   15.60
   7   0 -17   13.50   12.00
  -7   0  17   22.50   13.20
   7   0 -17   -1.50   19.90
  -6   0  17    9.70   15.90
   6   0 -17   10.50   14.00
  -6   0  17   -0.70   30.50
  -6   0  17   -5.70   14.80
  -6   0  17   -2.00   13.00
   6   0 -17    6.40   21.20
   6   0 -17   -9.80   18.10
   6   0 -17    3.50   16.80
  -5   0  17   42.70   16.60
   5   0 -17   25.80   26.60
  -5   0  17   32.60   13.90
   5   0 -17   62.29   18.80
  -5   0  17   26.30   27.80
   5   0 -17   13.60   15.90
   5   0 -17   36.20   20.40
  -5   0  17   68.79   18.50
   4   0 -17   16.20   20.80
  -4   0  17   75.79   57.59
   4   0 -17    3.90   17.30
  -4   0  17   39.40   18.10
  -4   0  17   18.10   25.10
  -4   0  17   10.20   13.60
   4   0 -17   28.00   19.70
  -4   0  17   22.80   15.10
  -3   0  17  -55.39   36.80
  -3   0  17  -17.50   22.60
   3   0 -17  -34.80   17.10
   3   0 -17   20.40   40.30
   3   0 -17  -21.60   19.60
  -3   0  17   26.00   35.60
   3   0 -17    5.40   15.70
  -3   0  17   27.00   21.20
  -3   0  17  -11.10   14.00
  -3   0  17   -3.50   13.30
   2   0 -17   -6.20   20.70
   2   0 -17  -18.20   31.20
  -2   0  17   23.20   35.50
   2   0 -17   37.50   19.00
  -2   0  17  -20.90   31.90
   2   0 -17  -13.50   17.50
  -2   0  17  -30.90   21.60
  -2   0  17   -2.20   14.30
  -2   0  17   -4.20   14.10
  -1   0  17  215.88   33.40
  -1   0  17  252.07   30.30
  -1   0  17  299.37   31.10
   1   0 -17  217.18   33.60
   1   0 -17  325.87   37.20
   1   0 -17  264.67   29.90
  -1   0  17  287.27   42.30
   1   0 -17  272.07   40.50
  -1   0  17  269.47   44.90
  -1   0  17  428.96   58.59
   0   0  17  650.43   39.60
   0   0  17  624.64   55.09
   0   0  17  625.34   64.49
   0   0 -17  600.94   39.10
   0   0 -17  598.14   44.20
   0   0 -17  597.14   49.70
   0   0  17  441.86   63.39
   0   0  17  621.94   49.00
   1   0  17    0.10   23.10
  -1   0 -17    7.60   14.50
   1   0  17   -2.80   20.30
   1   0  17   39.40   29.90
  -1   0 -17   32.80   24.70
  -1   0 -17   47.50   21.30
   1   0  17   15.50   15.40
   2   0  17  177.08   42.30
  -2   0 -17  176.98   41.50
   2   0  17  109.99   25.20
  -2   0 -17  109.39   19.40
   2   0  17  195.48   31.30
  -3   0 -17  186.78   30.90
   3   0  17  176.88   31.40
  -3   0 -17  241.48   34.50
   3   0  17  191.78   29.10
  -3   0 -17  136.89   33.40
  -3   0 -17  175.08   25.30
   3   0  17  159.08   25.60
   3   0  17  252.57   35.20
   4   0  17   37.60   24.20
  -4   0 -17   22.90   33.80
   4   0  17   26.20   18.60
  -4   0 -17   61.79   20.50
   4   0  17   25.60   22.90
  -4   0 -17   36.60   15.80
  -4   0 -17   54.59   15.50
  -5   0 -17   34.50   18.30
   5   0  17    7.30   15.70
  -5   0 -17    8.50   14.40
   5   0  17   48.20   34.10
  -5   0 -17   27.80   13.50
   5   0  17   39.60   20.90
  -6   0 -17    0.20   10.90
   6   0  17    4.60   16.40
  -6   0 -17   12.30   17.00
   6   0  17    5.20   13.30
   7   0  17  342.27   31.50
  -7   0 -17  439.16   33.20
   7   0  17  330.27   40.90
  -7   0 -17  347.67   25.10
 -10  -1  17   32.30   10.10
  10  -1 -17   17.70   15.20
  10  -1 -17   30.80   12.90
 -10   1  17   74.59   14.10
   9  -1 -17   29.20   16.20
  -9  -1  17   16.80   10.80
  -9  -1  17   36.30   13.40
   9  -1 -17   27.10   14.10
  -9  -1  17   29.00   24.00
  -9   1  17    8.60   17.30
   9   1 -17   24.30   13.20
  -9   1  17   23.60   14.50
  -9   1  17   21.60   13.80
   9   1 -17   24.70    9.00
  -8  -1  17   59.99   16.50
  -8  -1  17   29.60   14.90
  -8  -1  17   46.10   12.20
   8  -1 -17    5.20   17.70
   8  -1 -17   12.40   17.20
   8  -1 -17   52.09   17.70
   8   1 -17   43.10   23.30
  -8   1  17   28.70   14.60
   8   1 -17   41.20   14.80
   8   1 -17   49.00   10.40
  -8   1  17   15.40   14.40
   8   1 -17   -5.80   36.40
  -7  -1  17   53.09   16.50
  -7  -1  17   50.49   14.10
   7  -1 -17   44.50   19.00
   7  -1 -17   90.69   21.90
   7  -1 -17   50.39   18.10
  -7  -1  17   80.49   15.20
  -7   1  17   27.70   15.90
   7   1 -17   84.59   19.10
   7   1 -17   31.20   16.30
  -7   1  17   49.99   15.10
   7   1 -17   71.79   28.50
   7   1 -17   50.69   12.60
  -6  -1  17   -2.60   12.80
  -6  -1  17   26.50   28.60
   6  -1 -17   -5.00   20.70
   6  -1 -17  -38.40   19.40
  -6  -1  17  -17.10   14.70
  -6  -1  17   -5.90   12.90
   6  -1 -17    7.10   18.50
   6   1 -17   -1.40   13.30
   6   1 -17    0.40   17.60
   6   1 -17    2.50   29.10
  -6   1  17    2.70   15.70
  -6   1  17   76.89   38.90
  -6   1  17   11.90   30.40
   6   1 -17  -11.40   16.10
  -6   1  17    8.80   15.00
   5  -1 -17   81.19   44.90
   5  -1 -17   49.99   23.50
  -5  -1  17   67.49   23.70
  -5  -1  17   97.29   16.00
   5  -1 -17  110.89   22.30
  -5  -1  17  106.49   17.90
  -5  -1  17   69.49   19.50
   5  -1 -17   60.49   27.40
   5   1 -17   68.59   30.70
  -5   1  17   92.59   26.80
   5   1 -17  114.59   17.60
  -5   1  17   65.09   17.60
  -5   1  17  120.59   25.60
  -5   1  17  141.59   33.90
   5   1 -17  102.59   31.50
  -4  -1  17  591.24   71.89
   4  -1 -17  574.94   77.99
  -4  -1  17  464.75   33.20
  -4  -1  17  489.55   35.50
  -4  -1  17  494.75   33.80
   4  -1 -17  504.35   39.10
   4  -1 -17  504.65   46.50
   4   1 -17  498.45   36.50
   4   1 -17  570.14   55.99
  -4   1  17  721.23   83.19
  -4   1  17  497.55   61.89
   4   1 -17  526.75   40.30
  -4   1  17  500.55   53.19
  -4   1  17  451.95   37.80
   3  -1 -17  875.71   63.79
  -3  -1  17  928.51   56.39
  -3  -1  17  913.71   48.00
   3  -1 -17  791.42   50.69
  -3  -1  17  862.81   45.50
   3  -1 -17  887.91   57.69
  -3  -1  17  814.62   45.20
   3  -1 -17  817.92   49.50
   3   1 -17  912.31   51.79
   3   1 -17  853.81   52.29
  -3   1  17  899.21   61.29
  -3   1  17  942.31   50.19
   3   1 -17  882.21   48.50
  -3   1  17  803.72   59.99
  -2  -1  17  106.29   22.40
  -2  -1  17   74.19   14.90
   2  -1 -17   54.69   18.20
  -2  -1  17   51.99   16.80
   2  -1 -17   36.40   17.80
  -2  -1  17   75.09   15.90
   2  -1 -17   74.59   26.50
  -2  -1  17  153.38   45.50
   2  -1 -17   98.09   28.90
  -2   1  17   59.09   18.30
   2   1 -17   57.69   18.50
   2   1 -17   52.49   20.50
  -2   1  17   75.99   26.00
  -2   1  17   49.20   24.50
   2   1 -17   74.19   19.90
  -1  -1  17  159.98   46.10
   1  -1 -17   51.59   18.20
  -1  -1  17   86.09   16.20
  -1  -1  17   61.19   18.30
   1  -1 -17  157.48   29.60
   1  -1 -17   91.49   22.20
  -1  -1  17   93.89   17.00
   1  -1 -17  157.88   31.30
   1  -1 -17   98.29   32.80
  -1  -1  17   87.99   21.10
   1   1 -17   90.69   18.10
   1   1 -17  113.39   22.40
  -1   1  17   88.59   24.80
  -1   1  17   98.59   19.80
   1   1 -17  109.29   25.80
  -1   1  17  125.59   44.30
  -1   1  17  105.39   26.80
   0  -1  17  246.28   27.10
   0  -1 -17  225.28   31.70
   0  -1  17  280.77   32.20
   0  -1  17  252.47   30.30
   0  -1 -17  322.57   45.70
   0  -1 -17  222.08   32.20
   0  -1 -17  212.58   40.20
   0  -1 -17  200.88   28.40
   0   1 -17  210.68   33.80
   0   1  17  204.68   34.90
   0   1  17  159.48   27.50
   0   1  17  218.88   37.40
   0   1  17  142.99   35.60
   0   1 -17  290.77   37.50
   0   1 -17  239.08   28.30
  -1  -1 -17   17.70   18.20
   1  -1  17   34.70   20.60
  -1  -1 -17   36.50   38.70
   1  -1  17   25.80   36.50
   1  -1  17   58.29   14.50
   1  -1  17   68.69   20.70
   1  -1  17   24.60   46.70
  -1   1 -17   35.20   20.90
   1   1  17   35.20   38.70
  -1   1 -17   34.20   29.30
  -1   1 -17    3.70   22.60
  -1   1 -17   35.00   15.40
   1   1  17   63.99   21.30
   1   1  17   16.90   23.60
   1   1  17   48.90   24.90
  -2  -1 -17   76.59   19.60
   2  -1  17   47.50   26.30
  -2  -1 -17   61.19   14.90
   2  -1  17   69.49   26.40
   2  -1  17   43.50   15.00
   2  -1  17   68.59   25.80
  -2  -1 -17  140.59   46.00
  -2  -1 -17   77.89   22.70
  -2   1 -17   71.39   21.40
  -2   1 -17   69.49   22.30
   2   1  17   74.19   26.20
   2   1  17   83.79   25.60
   2   1  17   69.49   31.60
  -3  -1 -17  152.58   22.70
  -3  -1 -17  125.99   18.70
  -3  -1 -17  138.99   23.50
   3  -1  17  144.29   26.90
   3  -1  17  119.69   17.60
   3  -1  17  127.49   25.90
   3  -1  17  129.39   22.40
  -3  -1 -17  207.28   31.40
  -3   1 -17  232.48   36.30
  -3   1 -17  111.49   17.20
  -3   1 -17  127.19   24.10
   3   1  17  158.58   28.30
   3   1  17  144.89   22.30
   3   1  17  135.49   27.20
  -4  -1 -17   18.60   12.70
   4  -1  17   34.30   22.10
   4  -1  17   27.30   21.30
  -4  -1 -17   61.49   18.10
  -4  -1 -17   95.69   18.20
   4  -1  17    9.90   18.80
   4  -1  17   23.30   16.50
  -4  -1 -17   44.60   36.10
  -4   1 -17   58.19   26.90
   4   1  17   37.80   27.70
  -4   1 -17   53.59   14.50
  -4   1 -17   83.19   23.80
   4   1  17   29.20   16.20
   4   1  17   62.39   23.00
   5  -1  17    9.20   39.20
  -5  -1 -17    2.10   21.20
   5  -1  17   24.50   19.50
  -5  -1 -17   12.60   11.30
  -5  -1 -17   50.19   17.10
   5  -1  17   12.00   17.30
   5   1  17   17.70   14.10
  -5   1 -17   10.10   11.00
   5   1  17   31.00   20.60
  -5   1 -17    0.60   23.00
   6  -1  17   21.30   14.90
  -6  -1 -17   17.60   10.70
   6  -1  17   32.20   17.20
  -6  -1 -17   52.19   17.10
  -6  -1 -17   37.70   14.40
   6   1  17   -1.50   16.20
  -6   1 -17   30.30   11.30
   6   1  17   31.90   12.90
  -6   1 -17   86.49   27.70
  -7  -1 -17   16.30   10.50
   7  -1  17   17.30   12.90
  -7  -1 -17   46.80   12.80
   7  -1  17   49.20   15.10
  -7  -1 -17   -5.00   22.80
  -7   1 -17   20.60    9.10
   7   1  17    8.10   16.40
   9  -2 -17   58.59   13.50
  -9  -2  17   52.59   12.80
   9  -2 -17   68.09   16.30
  -9  -2  17   63.29   11.50
   9   2 -17   72.99   10.30
  -8  -2  17  151.98   21.20
  -8  -2  17  157.78   19.80
   8  -2 -17  153.38   25.20
   8  -2 -17  167.78   23.30
   8   2 -17  159.98   14.90
   8   2 -17  146.89   17.70
  -8   2  17  249.97   45.90
   7  -2 -17   31.20   19.70
  -7  -2  17   58.19   19.20
  -7  -2  17   46.90   12.30
  -7  -2  17   41.40   16.00
   7  -2 -17   52.29   15.60
   7   2 -17   38.80   10.40
   7   2 -17   33.90   16.00
  -7   2  17   31.50   16.90
  -7   2  17   28.90   30.60
  -6  -2  17   95.99   14.80
   6  -2 -17   17.80   29.80
  -6  -2  17  120.59   19.00
   6  -2 -17   87.59   19.20
   6  -2 -17   77.89   25.40
  -6  -2  17   89.69   13.60
   6  -2 -17   77.89   17.30
  -6   2  17  183.98   31.90
   6   2 -17   91.09   18.30
  -6   2  17  114.79   33.40
  -6   2  17  105.49   20.50
   6   2 -17   66.69   13.00
   5  -2 -17   70.39   25.60
  -5  -2  17   63.69   13.30
   5  -2 -17   28.50   18.30
  -5  -2  17   22.80   22.10
  -5  -2  17   59.49   13.50
   5  -2 -17   67.99   19.90
   5  -2 -17   46.40   26.20
  -5  -2  17   71.19   16.30
  -5   2  17   80.69   20.90
  -5   2  17  115.39   26.80
   5   2 -17   63.59   17.40
   5   2 -17   64.19   14.80
   5   2 -17   66.49   16.90
   5   2 -17   81.29   18.00
  -5   2  17   92.29   27.80
   4  -2 -17   -3.80   18.00
  -4  -2  17   -8.20   17.90
   4  -2 -17   19.00   16.50
  -4  -2  17   32.00   12.40
   4  -2 -17   46.90   25.60
   4  -2 -17   15.30   27.60
  -4  -2  17   10.60   13.90
   4   2 -17   24.10   13.90
   4   2 -17   13.00   14.20
   4   2 -17   27.60   16.70
  -4   2  17  -15.10   21.20
  -4   2  17   25.90   23.00
  -4   2  17   12.60   22.50
   4   2 -17   43.40   17.90
   3  -2 -17   22.60   31.00
  -3  -2  17   34.00   13.40
  -3  -2  17   38.50   12.80
   3  -2 -17   50.79   19.00
   3  -2 -17   41.50   15.60
  -3  -2  17   43.30   18.20
   3  -2 -17   61.09   23.40
  -3   2  17   54.99   23.70
  -3   2  17   51.69   24.80
   3   2 -17   56.79   17.00
  -3   2  17   19.90   24.50
   3   2 -17   48.20   16.50
   3   2 -17   51.19   17.50
  -2  -2  17  200.38   30.40
   2  -2 -17  119.79   15.80
   2  -2 -17  209.38   31.20
   2  -2 -17  112.69   38.70
  -2  -2  17  181.18   24.10
   2  -2 -17  145.19   26.10
  -2  -2  17  138.49   17.10
   2  -2 -17  157.18   22.90
  -2   2  17  130.09   32.50
   2   2 -17  200.18   29.70
   2   2 -17  156.18   20.50
   2   2 -17  204.28   28.90
  -2   2  17  125.79   26.30
   1  -2 -17  149.59   24.00
  -1  -2  17  182.18   23.90
  -1  -2  17  225.18   30.30
   1  -2 -17  230.88   40.10
   1  -2 -17  124.99   20.50
   1  -2 -17  223.38   46.50
  -1  -2  17  162.68   23.40
  -1   2  17   84.19   36.30
  -1   2  17  112.49   23.30
  -1   2  17  151.38   24.40
   1   2 -17  132.49   20.20
   1   2 -17  220.08   29.10
   1   2 -17  186.68   29.00
   0  -2  17   22.30   14.00
   0  -2 -17  -11.50   19.00
   0  -2  17   39.80   17.70
   0  -2 -17   26.60   12.90
   0  -2 -17   40.90   21.20
   0  -2  17   40.30   30.70
   0  -2 -17   11.80   15.60
   0  -2  17   15.80   12.10
   0   2  17   38.60   29.50
   0   2  17   10.20   18.10
   0   2 -17   27.10   15.10
   0   2 -17   24.00   16.20
   0   2 -17   16.10   16.80
   0   2  17  -15.00   21.00
   1  -2  17   99.09   26.60
   1  -2  17   87.19   15.50
  -1  -2 -17   86.79   14.00
   1  -2  17  121.99   19.60
  -1  -2 -17   57.19   21.60
   1  -2  17   95.29   15.30
  -1  -2 -17   76.19   18.50
  -1  -2 -17   94.09   19.40
  -1   2 -17  108.89   19.50
   1   2  17   94.29   25.50
  -1   2 -17   83.49   17.60
   1   2  17   98.09   27.90
  -1   2 -17  115.99   17.70
   1   2  17   96.09   19.80
  -2  -2 -17   70.19   17.60
   2  -2  17   72.99   18.70
   2  -2  17   67.79   14.10
   2  -2  17   48.50   35.90
   2  -2  17   92.29   23.50
  -2  -2 -17   50.99   18.50
  -2  -2 -17   50.29   21.40
  -2  -2 -17   66.89   13.30
   2  -2  17   44.30   22.40
  -2   2 -17   53.99   14.40
   2   2  17   64.39   26.00
   2   2  17   63.99   16.80
  -2   2 -17   60.09   15.80
   2   2  17   57.39   22.10
  -2   2 -17   81.39   18.80
  -3  -2 -17  306.57   24.30
  -3  -2 -17  284.37   38.50
   3  -2  17  251.47   32.20
   3  -2  17  274.57   35.10
  -3  -2 -17  333.57   30.80
   3  -2  17  273.27   24.50
  -3  -2 -17  321.27   40.80
   3  -2  17  234.08   34.50
   3   2  17  235.28   38.20
  -3   2 -17  276.77   28.30
   3   2  17  309.37   28.60
  -3   2 -17  308.27   31.10
  -3   2 -17  283.37   26.10
   3   2  17  259.67   41.30
  -4  -2 -17  487.55   32.70
   4  -2  17  431.56   42.60
   4  -2  17  447.66   28.60
  -4  -2 -17  458.75   40.50
  -4  -2 -17  468.95   27.90
   4  -2  17  436.96   36.20
  -4  -2 -17  500.75   31.90
   4  -2  17  406.06   37.10
  -4   2 -17  498.25   36.30
  -4   2 -17  470.35   28.60
   4   2  17  425.56   47.00
  -4   2 -17  441.66   32.80
   4   2  17  376.46   38.90
   4   2  17  491.55   33.10
  -5  -2 -17   12.20   17.50
   5  -2  17   12.60   14.70
  -5  -2 -17   26.50   12.50
  -5  -2 -17   29.90   15.00
   5  -2  17   23.60   24.20
   5  -2  17   10.40   15.80
  -5  -2 -17   15.80    9.40
   5   2  17   33.20   20.40
  -5   2 -17   22.20   11.80
   5   2  17   34.00   19.30
  -5   2 -17    4.80   16.10
  -5   2 -17   19.20   14.40
   6  -2  17   15.00   13.90
  -6  -2 -17    7.70   10.60
  -6  -2 -17    2.40   16.80
  -6  -2 -17    2.90    8.70
   6  -2  17   16.00   16.30
  -6   2 -17   -5.80   10.40
   6   2  17    4.20   16.40
  -6   2 -17    3.30   17.40
   7  -3 -17  339.57   37.30
   7  -3 -17  292.47   21.20
  -7  -3  17  206.68   20.70
   7  -3 -17  245.38   27.80
   7   3 -17  247.58   16.80
  -7   3  17  333.27   37.20
   6  -3 -17  -32.70   23.30
  -6  -3  17   -8.80   33.80
   6  -3 -17  -16.40   16.80
   6  -3 -17   16.40   26.50
   6  -3 -17   -7.40   10.50
  -6  -3  17   -6.80   10.00
  -6   3  17  -11.90   24.00
   6   3 -17   -1.70   21.30
   6   3 -17    2.80    9.60
   5  -3 -17   14.70   15.10
   5  -3 -17    8.90   33.30
   5  -3 -17  -11.40   11.40
  -5  -3  17    4.20   17.60
  -5  -3  17   -4.90    9.50
  -5  -3  17   14.10    9.70
  -5   3  17   35.60   27.70
   5   3 -17  -30.50   19.50
  -5   3  17   -8.00   17.30
   5   3 -17   16.60   11.80
   4  -3 -17   44.40   44.60
   4  -3 -17   30.40   16.00
   4  -3 -17   42.20   20.60
  -4  -3  17   24.20   16.40
   4  -3 -17   13.90   11.80
  -4  -3  17   22.20   14.50
  -4  -3  17   19.70   10.70
  -4   3  17   24.80   17.70
   4   3 -17   23.90   12.40
  -4   3  17   23.30   21.10
   4   3 -17   -0.20   19.60
  -3  -3  17   14.30   10.50
  -3  -3  17  -13.50   12.50
   3  -3 -17  -18.10   14.70
   3  -3 -17   10.70   13.10
  -3  -3  17   20.40   15.50
   3  -3 -17    3.60   20.40
  -3  -3  17   31.30   15.90
   3   3 -17   16.40   18.80
   3   3 -17   16.70   13.30
  -3   3  17    8.50   20.90
  -3   3  17  -14.80   16.90
   2  -3 -17   30.20   13.00
   2  -3 -17   23.60   10.90
  -2  -3  17   -4.90   13.30
   2  -3 -17   18.90   19.40
  -2  -3  17   15.10   12.00
   2  -3 -17   22.40   15.20
  -2  -3  17   20.60   13.80
   2   3 -17   21.50   14.60
   2   3 -17    7.80   17.80
   2   3 -17   20.00   12.50
  -2   3  17    3.10   19.20
  -2   3  17   30.70   17.00
   1  -3 -17  101.29   21.70
   1  -3 -17   67.89   14.60
   1  -3 -17   81.09   11.60
  -1  -3  17  112.79   17.60
  -1  -3  17   87.09   19.10
  -1  -3  17   64.19   15.20
  -1  -3  17   81.09   13.30
   1  -3 -17   62.39   15.60
   1   3 -17   58.79   14.30
  -1   3  17   94.19   18.20
  -1   3  17   59.79   20.30
   1   3 -17   53.29   13.20
   1   3 -17  108.39   18.90
   0  -3  17  166.78   23.90
   0  -3  17  208.68   18.90
   0  -3 -17  171.78   21.80
   0  -3  17  149.39   24.80
   0  -3 -17  164.88   19.00
   0  -3  17  169.28   20.30
   0  -3 -17  131.19   18.40
   0  -3 -17  128.19   22.10
   0   3  17  148.69   23.80
   0   3 -17  141.39   19.40
   0   3  17  175.78   28.10
   0   3 -17  153.88   18.30
   0   3 -17  156.18   22.00
   1  -3  17  165.08   22.70
  -1  -3 -17  174.08   23.40
   1  -3  17  117.89   13.10
  -1  -3 -17  112.39   18.10
  -1  -3 -17  113.99   17.10
   1  -3  17  117.09   18.20
   1  -3  17  112.79   36.40
  -1  -3 -17  136.99   17.10
  -1   3 -17  131.49   21.70
   1   3  17  157.78   25.50
  -1   3 -17  130.29   19.90
  -1   3 -17  144.39   21.90
   1   3  17   90.99   21.00
  -2  -3 -17   -1.50   13.90
   2  -3  17   24.70   24.40
   2  -3  17   19.90   32.40
  -2  -3 -17   22.70   17.40
   2  -3  17    5.60    9.30
  -2  -3 -17    4.80    9.00
  -2  -3 -17    6.80   13.60
   2  -3  17   30.30   13.60
  -2   3 -17  -14.60   10.00
   2   3  17   22.30   15.50
  -2   3 -17   14.30   16.60
   2   3  17    4.00   20.30
  -2   3 -17    4.40   11.70
   2   3  17   22.60   20.30
  -3  -3 -17   68.09   16.00
  -3  -3 -17   82.99   15.00
  -3  -3 -17   93.29   15.10
  -3  -3 -17  131.39   20.80
   3  -3  17   49.30   18.70
   3  -3  17   80.69   11.60
   3  -3  17   95.39   20.80
  -3   3 -17  118.59   18.70
  -3   3 -17   73.09   18.80
   3   3  17   64.89   24.00
  -3   3 -17   85.19   13.40
   3   3  17   55.89   20.70
  -4  -3 -17   93.79   13.80
   4  -3  17   42.20   20.70
  -4  -3 -17  110.69   13.70
   4  -3  17   70.79   10.30
   4  -3  17   83.79   17.00
  -4  -3 -17  104.19   20.80
  -4   3 -17  122.59   18.80
  -4   3 -17   49.50   12.30
   3  -4 -17   31.10   15.80
  -3  -4  17   43.60    8.80
   3  -4 -17   34.40    8.50
  -3   4  17   53.39   15.70
  -3   4  17   38.80   19.20
  -2  -4  17    2.90   12.00
   2  -4 -17   24.70    8.50
   2  -4 -17   13.90   15.30
  -2  -4  17   20.00    8.10
  -2  -4  17   -0.30   21.60
   2   4 -17   42.40   12.40
  -2   4  17   48.80   18.40
  -2   4  17   38.10   16.90
   1  -4 -17   39.80    9.50
  -1  -4  17   39.50    8.60
  -1  -4  17   50.59   11.60
   1  -4 -17   54.69   16.70
   1   4 -17   35.20   11.30
  -1   4  17   43.40   16.70
   0  -4  17  328.97   20.60
   0  -4 -17  326.77   31.20
   0  -4 -17  277.87   17.80
   0  -4  17  293.47   18.50
   0  -4  17  231.98   20.00
   0   4 -17  281.37   21.50
   0   4  17  292.57   29.10
   9   0 -18  332.57   23.70
   9   0 -18  326.77   32.80
  -9   0  18  252.17   21.50
  -9   0  18  373.46   28.70
   9   0 -18  238.28   29.60
   8   0 -18  113.19   18.20
  -8   0  18  175.98   24.30
   8   0 -18  128.19   20.10
  -8   0  18  117.39   16.70
  -8   0  18  155.58   21.20
   8   0 -18  145.59   22.10
   7   0 -18  392.56   30.90
   7   0 -18  463.25   34.30
  -7   0  18  454.85   31.30
   7   0 -18  419.46   39.20
  -7   0  18  358.16   38.40
  -7   0  18  403.56   29.90
  -6   0  18   72.59   15.40
   6   0 -18   51.69   18.40
  -6   0  18   87.79   31.60
   6   0 -18   70.19   17.70
  -6   0  18   91.09   25.90
   6   0 -18   98.39   21.80
  -6   0  18   60.89   14.80
  -5   0  18   52.59   21.30
   5   0 -18   68.39   21.50
  -5   0  18   81.89   14.90
  -5   0  18   79.19   17.10
   5   0 -18   75.19   20.20
   5   0 -18   83.29   16.00
  -5   0  18   61.19   24.40
  -4   0  18  -15.60   31.30
  -4   0  18   14.80   13.60
   4   0 -18    6.10   18.10
   4   0 -18   19.00   14.50
  -4   0  18   -2.80   22.40
  -4   0  18    9.20   15.00
   4   0 -18   23.10   17.90
  -3   0  18  112.19   19.70
  -3   0  18   67.49   23.60
  -3   0  18  100.89   16.40
   3   0 -18  103.09   27.10
   3   0 -18  113.99   20.10
  -3   0  18  182.28   40.00
   3   0 -18   95.69   22.60
   2   0 -18  164.48   23.90
  -2   0  18  271.37   37.30
  -2   0  18  182.98   29.70
   2   0 -18  222.38   34.30
  -1   0  18  325.47   45.90
   1   0 -18  262.47   36.60
   1   0 -18  346.57   48.20
   1   0 -18  377.96   43.00
   1   0 -18  239.38   35.00
  -1   0  18  330.87   44.50
   0   0 -18  -26.40   24.80
   0   0  18   17.20   15.10
   0   0  18    0.90   27.60
   0   0  18   16.20   31.90
   0   0 -18   10.30   13.80
   0   0  18  -26.50   23.70
   0   0 -18   -1.90   18.40
   0   0 -18    4.50   22.40
   1   0  18   23.70   23.70
  -1   0 -18  -29.90   22.20
  -1   0 -18    2.60   15.10
   1   0  18   -4.80   19.50
   1   0  18   16.20   26.30
   1   0  18    3.00   15.80
  -1   0 -18   24.50   19.30
  -2   0 -18  106.09   28.30
  -2   0 -18  125.59   21.40
  -2   0 -18  137.29   18.70
   2   0  18  130.69   25.10
   2   0  18  108.09   23.90
   2   0  18  175.98   29.60
   2   0  18  111.19   20.10
  -3   0 -18    4.20   13.20
  -3   0 -18  -21.70   27.60
  -3   0 -18  -17.80   17.00
   3   0  18   31.30   22.20
   3   0  18   36.60   19.50
   3   0  18   13.30   21.00
  -4   0 -18   82.19   34.10
  -4   0 -18   74.49   13.90
  -4   0 -18   46.00   18.70
   4   0  18   68.69   24.20
   4   0  18   89.19   22.50
   4   0  18   79.39   18.10
  -5   0 -18  -29.50   21.00
   5   0  18  -10.10   16.40
   5   0  18    1.20   14.00
  -5   0 -18   16.60   10.80
   6   0  18   14.60   17.80
  -6   0 -18   12.80   10.00
   6   0  18   13.50   19.80
  -6   0 -18  -11.80   17.00
  -9  -1  18   15.10    9.60
   9  -1 -18   31.20   13.40
  -9  -1  18   67.39   16.40
   9  -1 -18   35.10   16.60
   9  -1 -18   35.00   14.20
  -9   1  18  106.19   27.20
   9   1 -18   43.10   11.00
  -8  -1  18    7.00   10.20
   8  -1 -18   32.60   14.90
  -8  -1  18   32.10   14.40
  -8  -1  18    1.00   13.60
   8  -1 -18    4.20   16.00
  -8   1  18   30.10   13.30
   8   1 -18   11.60   12.00
   8   1 -18   15.50   12.10
  -8   1  18    3.10   19.50
   7  -1 -18    4.30   17.40
   7  -1 -18   12.80   14.80
  -7  -1  18   21.30   14.00
  -7  -1  18   14.30   10.30
   7  -1 -18   -9.60   16.90
  -7  -1  18   -5.00   13.30
  -7   1  18    2.20   13.90
   7   1 -18   11.00   12.40
   7   1 -18   13.60   17.00
   7   1 -18    7.30   11.10
  -7   1  18  -22.50   24.70
  -6  -1  18   15.40   11.90
  -6  -1  18   39.20   14.80
   6  -1 -18   28.00   17.70
  -6  -1  18   39.50   30.50
  -6  -1  18   24.60   13.90
   6  -1 -18   51.49   17.40
   6  -1 -18   34.10   19.60
  -6   1  18   -1.60   31.90
   6   1 -18   17.80   13.70
   6   1 -18   18.70   16.20
  -6   1  18   27.40   15.60
  -6   1  18   -7.10   40.50
   6   1 -18   25.90   13.50
  -5  -1  18  -20.80   13.90
   5  -1 -18    3.40   16.40
   5  -1 -18    8.10   20.40
  -5  -1  18   -0.80   13.20
  -5  -1  18   -6.80   22.00
   5  -1 -18    8.30   17.70
   5   1 -18    1.10   14.20
  -5   1  18   -1.50   33.70
  -5   1  18   23.80   16.00
   5   1 -18   21.40   16.50
  -5   1  18   -6.90   24.80
   5   1 -18   33.40   49.00
  -4  -1  18   40.50   14.60
   4  -1 -18   32.40   22.60
  -4  -1  18   12.30   15.10
  -4  -1  18   17.70   19.50
   4  -1 -18   18.00   15.20
   4  -1 -18   32.90   18.60
   4  -1 -18   20.50   32.70
  -4  -1  18    7.00   12.30
  -4   1  18   24.70   20.30
   4   1 -18   19.00   14.80
  -4   1  18   48.20   28.30
   4   1 -18   52.69   42.70
  -4   1  18   30.20   16.90
   4   1 -18   18.00   17.10
   3  -1 -18  140.19   27.30
  -3  -1  18  136.39   19.60
   3  -1 -18  168.98   22.50
   3  -1 -18  151.88   30.20
  -3  -1  18  114.49   15.80
  -3  -1  18   98.59   21.30
   3  -1 -18  146.29   21.50
  -3  -1  18  188.58   25.40
  -3   1  18  118.89   26.90
  -3   1  18  115.29   23.30
  -3   1  18  203.48   29.40
   3   1 -18  113.09   19.80
   3   1 -18  168.98   21.90
   3   1 -18  166.08   23.00
   3   1 -18  223.58   57.79
   2  -1 -18  -13.20   16.70
   2  -1 -18    7.00   16.40
  -2  -1  18   15.50   13.80
   2  -1 -18   -9.20   23.70
  -2  -1  18   -5.60   12.60
  -2  -1  18  -10.30   18.90
   2  -1 -18    3.60   23.90
  -2  -1  18   -8.10   18.10
   2   1 -18   25.40   16.90
  -2   1  18   16.10   18.60
   2   1 -18    8.50   15.70
  -2   1  18  -17.90   19.80
   2   1 -18    5.10   19.20
  -2   1  18    4.80   24.80
   1  -1 -18   26.90   16.00
  -1  -1  18   35.20   15.40
   1  -1 -18   11.80   17.10
  -1  -1  18   21.70   13.40
   1  -1 -18   -1.70   26.80
   1  -1 -18   33.30   22.00
  -1  -1  18  -41.50   39.10
  -1  -1  18   11.80   19.60
   1   1 -18   30.00   19.40
   1   1 -18   20.50   17.70
   1   1 -18   42.90   16.70
  -1   1  18   15.80   18.30
  -1   1  18   70.19   39.90
  -1   1  18   36.80   23.10
  -1   1  18   27.40   22.90
   0  -1 -18  142.19   33.80
   0  -1 -18  116.39   19.20
   0  -1 -18  174.18   22.40
   0  -1  18   94.69   35.80
   0  -1  18  151.58   34.60
   0  -1  18  122.69   23.30
   0  -1  18  132.59   22.90
   0  -1 -18   72.99   23.80
   0   1  18   71.99   31.10
   0   1  18  134.59   24.10
   0   1  18  153.18   25.30
   0   1 -18  136.39   19.50
   0   1  18  163.58   26.90
   0   1 -18  125.19   21.30
   0   1 -18  105.69   22.50
  -1  -1 -18   70.69   23.20
  -1  -1 -18   58.69   17.40
   1  -1  18   46.30   17.90
  -1  -1 -18  110.19   34.40
  -1  -1 -18   85.59   16.70
   1  -1  18   54.09   28.80
   1  -1  18  107.49   30.90
  -1  -1 -18  102.39   19.80
   1  -1  18   73.39   15.30
   1   1  18  103.79   22.10
  -1   1 -18  101.29   22.10
  -1   1 -18   65.09   15.00
  -1   1 -18    3.30   32.30
   1   1  18   26.30   26.30
   1   1  18   72.39   21.80
  -1   1 -18  105.99   22.40
   2  -1  18   36.80   25.40
  -2  -1 -18    5.30   16.60
   2  -1  18   24.60   23.80
   2  -1  18   34.40   14.40
   2  -1  18   39.00   19.60
  -2  -1 -18   47.40   16.60
  -2  -1 -18   44.40   37.70
  -2  -1 -18   50.99   13.50
  -2   1 -18   38.20   14.70
   2   1  18   33.90   16.10
   2   1  18   71.19   25.70
  -2   1 -18   16.80   23.60
  -2   1 -18   74.09   20.70
   2   1  18   62.89   23.20
   3  -1  18   88.09   23.70
   3  -1  18   62.19   21.60
  -3  -1 -18   42.30   16.70
   3  -1  18   65.59   15.80
  -3  -1 -18   65.69   16.50
   3  -1  18   69.49   23.20
  -3  -1 -18   68.89   13.30
   3   1  18   45.20   22.10
  -3   1 -18   84.09   21.00
   3   1  18   99.89   25.80
  -3   1 -18   72.29   14.50
   3   1  18   46.60   15.50
   4  -1  18   61.49   22.40
   4  -1  18   66.49   19.60
   4  -1  18  110.09   20.40
  -4  -1 -18   85.19   16.60
  -4  -1 -18   93.19   16.60
  -4  -1 -18   80.39   13.00
  -4   1 -18  127.49   23.60
   4   1  18  127.39   29.40
   4   1  18   83.89   15.30
  -4   1 -18   96.19   14.20
   4   1  18   59.19   21.50
  -5  -1 -18  106.29   15.60
  -5  -1 -18  153.08   22.50
   5  -1  18  133.09   18.90
   5  -1  18   96.39   19.70
  -5  -1 -18  120.59   20.40
  -5   1 -18  135.99   16.40
   5   1  18   95.29   20.10
  -5   1 -18  135.69   23.40
   6  -1  18   57.89   15.50
   6  -1  18   46.70   13.90
  -6  -1 -18   46.40   13.50
   6   1  18   61.19   14.10
   6   1  18   30.50   15.60
  -6   1 -18   56.89    9.90
   8  -2 -18   69.89   17.80
  -8  -2  18   23.20   15.40
  -8  -2  18   37.70    9.50
   8  -2 -18   37.10   12.80
   8   2 -18   33.50   11.30
   8   2 -18   30.20    9.60
  -7  -2  18   39.70   10.40
   7  -2 -18   29.00   13.80
  -7  -2  18   56.19   13.30
   7  -2 -18   35.10   19.10
  -7  -2  18   66.99   19.10
  -7   2  18   11.40   31.40
   7   2 -18   35.60   13.50
   7   2 -18   59.59   10.70
  -6  -2  18    8.90   11.50
   6  -2 -18   23.10   14.70
  -6  -2  18   13.40    9.90
   6  -2 -18   12.40   21.10
  -6  -2  18   27.90   15.60
  -6   2  18   53.09   35.60
  -6   2  18   21.00   26.70
   6   2 -18   25.30   12.50
   6   2 -18   45.20   14.50
  -6   2  18    4.60   17.00
  -5  -2  18   56.39   11.30
  -5  -2  18   32.10   15.70
   5  -2 -18   65.39   16.90
   5  -2 -18   43.30   25.90
  -5  -2  18   62.09   15.00
  -5  -2  18   82.99   20.60
  -5   2  18   35.10   25.50
  -5   2  18   47.50   25.40
   5   2 -18   39.40   15.40
   5   2 -18   45.70   17.00
  -5   2  18   45.40   20.10
   4  -2 -18   16.80   14.30
   4  -2 -18   11.70   23.30
  -4  -2  18   29.30   13.60
  -4  -2  18  -12.30   16.90
   4  -2 -18   43.10   26.70
  -4  -2  18    5.10   11.60
   4  -2 -18   17.50   19.40
  -4  -2  18   28.00   11.40
  -4   2  18   16.90   20.20
  -4   2  18   54.79   22.10
   4   2 -18   27.20   14.80
  -4   2  18   40.50   22.30
   4   2 -18   22.60   14.50
   4   2 -18   19.10   12.90
  -3  -2  18   88.49   15.10
  -3  -2  18   72.39   12.50
   3  -2 -18  129.89   25.40
   3  -2 -18   81.49   30.00
   3  -2 -18   75.19   19.70
   3  -2 -18   54.99   15.70
  -3  -2  18   63.79   19.40
  -3  -2  18   91.19   15.30
  -3   2  18  119.09   24.10
  -3   2  18  137.99   27.70
   3   2 -18   70.59   15.30
   3   2 -18   84.59   17.00
  -3   2  18   62.29   22.10
   3   2 -18   76.29   15.90
  -2  -2  18   66.39   13.60
  -2  -2  18  101.29   19.20
   2  -2 -18   78.59   23.60
   2  -2 -18   90.99   20.10
   2  -2 -18   98.39   18.60
   2  -2 -18   90.19   34.90
  -2  -2  18   99.89   15.50
  -2  -2  18   76.09   12.80
   2   2 -18   79.99   16.20
   2   2 -18   89.49   17.60
  -2   2  18  106.09   22.30
  -2   2  18   54.09   20.40
   2   2 -18   78.19   15.80
  -1  -2  18    7.30   11.10
  -1  -2  18   31.20   11.50
  -1  -2  18   23.80   27.40
   1  -2 -18   41.10   18.30
   1  -2 -18   12.40   14.00
   1  -2 -18   21.00   19.00
   1  -2 -18  -12.40   40.50
  -1  -2  18   11.80   15.10
   1   2 -18   24.90   15.00
   1   2 -18   39.30   15.10
   1   2 -18   10.20   14.70
  -1   2  18    8.60   36.70
  -1   2  18   41.90   18.80
  -1   2  18   16.80   17.80
   0  -2  18   39.30   14.50
   0  -2 -18   70.99   19.80
   0  -2 -18   52.89   15.80
   0  -2  18   83.89   13.80
   0  -2 -18   75.09   13.40
   0  -2  18   90.29   14.20
   0   2  18   60.09   31.00
   0   2 -18  111.59   17.70
   0   2  18   80.59   18.30
   0   2 -18   95.79   17.40
   0   2 -18   70.99   16.50
   0   2  18  106.29   23.50
   1  -2  18   41.30   16.50
  -1  -2 -18   40.10   17.80
   1  -2  18   54.29   12.30
  -1  -2 -18   42.10   14.20
   1  -2  18   39.10   18.30
  -1  -2 -18   56.39   11.70
   1  -2  18  -15.60   26.40
  -1   2 -18    5.30   14.60
  -1   2 -18   61.29   15.60
   1   2  18   52.89   25.80
  -1   2 -18   81.89   15.50
   1   2  18   42.20   19.40
   1   2  18   58.39   16.50
  -2  -2 -18   32.30   14.60
  -2  -2 -18   37.50   10.80
  -2  -2 -18   23.80   18.10
   2  -2  18    7.70   10.30
   2  -2  18   61.99   42.00
   2  -2  18   -1.80   21.90
   2  -2  18    5.70   15.30
  -2   2 -18   32.10   14.50
  -2   2 -18   25.40   14.70
   2   2  18   17.60   13.80
  -2   2 -18   28.20   12.50
   2   2  18   27.10   22.30
   2   2  18   -3.20   20.00
   3  -2  18  174.78   25.60
  -3  -2 -18  187.48   17.70
   3  -2  18  140.59   19.10
  -3  -2 -18  157.68   28.30
   3  -2  18  121.39   29.10
   3  -2  18  132.79   22.70
  -3  -2 -18  161.98   22.10
   3   2  18  166.98   24.00
   3   2  18  118.99   23.40
  -3   2 -18  144.29   18.50
  -3   2 -18  166.38   24.60
   3   2  18  135.29   25.70
  -3   2 -18  166.68   19.10
  -4  -2 -18   79.59   16.60
   4  -2  18  100.69   23.10
   4  -2  18   79.79   13.70
  -4  -2 -18   78.39   12.70
  -4  -2 -18   78.39   13.30
   4  -2  18   89.59   20.80
   4  -2  18   71.89   21.60
   4   2  18   55.29   18.10
   4   2  18  151.78   41.30
  -4   2 -18   68.79   12.70
  -4   2 -18   52.69   15.90
   4   2  18   80.19   21.90
  -4   2 -18   81.09   17.10
  -5  -2 -18   53.19   16.50
  -5  -2 -18   34.90   10.60
   5  -2  18   31.30   15.30
   5  -2  18   55.79   18.40
  -5   2 -18   59.79   15.60
   5   2  18   24.10   16.90
  -5   2 -18   37.60   10.40
   6  -3 -18   28.40   15.80
   6  -3 -18   35.70   29.30
  -6   3  18   47.30   18.90
  -5  -3  18   63.79    9.90
   5  -3 -18   88.39   21.40
   5  -3 -18   51.69   12.70
  -5  -3  18   49.99   11.20
   5  -3 -18  154.78   33.30
   5  -3 -18   70.79   15.80
  -5  -3  18   58.89   19.10
  -5   3  18   48.40   18.10
  -5   3  18  105.39   28.10
  -4  -3  18  137.69   17.60
  -4  -3  18  137.39   19.80
   4  -3 -18  171.38   28.50
   4  -3 -18  140.79   14.80
   4  -3 -18  243.68   43.30
  -4  -3  18  154.48   16.90
   4  -3 -18  183.38   27.60
  -4   3  18  172.88   24.30
   4   3 -18  127.09   22.50
  -4   3  18  135.29   24.80
  -3  -3  18   35.50   11.50
   3  -3 -18   21.10   19.10
   3  -3 -18   50.39   15.10
   3  -3 -18   49.80   14.70
  -3  -3  18   35.70   13.30
  -3  -3  18   44.60    9.30
   3   3 -18   48.30   13.40
  -3   3  18   50.79   15.60
  -3   3  18   49.30   19.50
   3   3 -18   35.00   19.30
   2  -3 -18   44.80   14.30
  -2  -3  18   23.70   14.00
  -2  -3  18   23.90    9.10
   2  -3 -18   17.30   13.70
  -2  -3  18   27.80   12.10
   2  -3 -18   49.40   18.50
  -2  -3  18   33.50   11.50
   2   3 -18   14.20   11.30
  -2   3  18   34.90   17.10
  -2   3  18   34.20   15.90
   2   3 -18    3.70   14.70
   2   3 -18   68.29   18.80
   1  -3 -18   18.10   13.30
   1  -3 -18   31.50   17.30
  -1  -3  18    9.60   13.40
  -1  -3  18   16.20    9.40
  -1  -3  18   17.00   15.20
  -1  -3  18    6.00   10.10
   1  -3 -18   20.10   13.10
  -1   3  18   35.90   18.50
   1   3 -18   10.10   11.50
   1   3 -18   28.00   16.90
   1   3 -18  -12.50   17.50
  -1   3  18   12.40   14.80
   0  -3  18   80.89   12.40
   0  -3 -18  121.69   16.60
   0  -3 -18  172.18   29.60
   0  -3  18  116.49   16.20
   0  -3 -18  151.08   24.00
   0  -3  18   83.09   14.20
   0  -3 -18  139.99   20.70
   0   3  18  121.19   17.10
   0   3 -18  113.79   19.30
   0   3 -18  129.09   20.30
   0   3 -18  111.89   18.50
   0   3  18  147.09   25.60
  -1  -3 -18   90.79   13.20
  -1  -3 -18  107.99   16.40
   1  -3  18   92.29   14.60
  -1  -3 -18  126.19   14.90
  -1  -3 -18  137.99   20.10
   1  -3  18  101.49   15.60
   1   3  18  100.59   20.60
   1   3  18   97.49   24.10
  -1   3 -18  128.69   18.50
  -1   3 -18  128.69   19.30
  -1   3 -18  120.79   18.40
  -2  -3 -18   15.50   16.10
   2  -3  18  -13.80   13.20
   2  -3  18   -3.20    9.00
  -2  -3 -18   -9.00   11.90
  -2   3 -18   15.00   11.20
   2   3  18   38.40   19.50
  -2   3 -18   21.10   11.00
  -3  -3 -18   78.29   18.50
  -3  -3 -18   17.10   12.10
   3  -3  18   34.70   13.20
   3  -3  18   34.50    9.40
  -3  -3 -18   46.60    8.70
  -3   3 -18   52.89   11.50
  -3   3 -18   33.50   10.40
   8   0 -19   -2.00   11.20
  -8   0  19  -24.50   13.00
   8   0 -19    1.10   18.20
  -8   0  19    8.30   12.90
   8   0 -19   26.50   15.00
   7   0 -19  695.43   39.00
  -7   0  19  560.74   46.50
  -7   0  19  699.23   35.80
   7   0 -19  617.54   35.80
   7   0 -19  709.13   51.59
   6   0 -19   35.10   16.20
  -6   0  19    6.80   12.80
  -6   0  19   36.20   13.10
   6   0 -19   -2.10   14.00
   6   0 -19   15.40   19.10
  -5   0  19  146.69   25.50
   5   0 -19  146.19   23.10
   5   0 -19  192.18   24.90
  -5   0  19  139.69   24.30
  -5   0  19  179.38   24.70
   5   0 -19  140.29   20.60
   4   0 -19   45.00   19.50
   4   0 -19   24.90   14.60
  -4   0  19   35.50   15.60
  -4   0  19   25.30   13.50
   4   0 -19   15.40   16.70
  -4   0  19   15.90   20.20
  -3   0  19  -38.10   33.40
   3   0 -19  -10.20   16.90
   3   0 -19  -12.20   16.80
  -3   0  19   -0.20   20.50
   3   0 -19    2.40   13.10
  -3   0  19    9.20   13.90
  -2   0  19  148.29   25.50
   2   0 -19  115.29   20.50
  -2   0  19  139.19   25.00
  -2   0  19  158.18   30.70
   2   0 -19  109.39   22.20
   2   0 -19  116.79   17.80
  -1   0  19  246.48   28.00
   1   0 -19  301.37   36.50
  -1   0  19  292.47   35.90
   1   0 -19  268.97   35.70
   1   0 -19  319.17   34.10
   1   0 -19  275.07   27.40
  -1   0  19  283.27   46.60
   0   0 -19   31.20   25.90
   0   0  19    2.70   14.60
   0   0 -19    3.00   18.50
   0   0  19   33.00   23.20
   0   0  19   20.00   19.60
   0   0 -19   38.00   21.40
   0   0  19   34.30   35.60
   0   0 -19   28.60   14.30
   1   0  19  -17.50   15.80
  -1   0 -19    8.00   18.10
  -1   0 -19    1.60   22.70
   1   0  19    9.30   27.30
   1   0  19  -27.20   18.80
  -1   0 -19   37.40   22.00
  -1   0 -19    6.70   12.70
   1   0  19  -21.00   17.90
  -2   0 -19   53.99   23.30
   2   0  19   27.00   23.40
   2   0  19   34.50   19.10
  -2   0 -19   15.60   18.30
  -2   0 -19   -5.70   21.20
   2   0  19   -6.80   18.30
  -2   0 -19   28.30   12.50
  -3   0 -19   65.89   13.00
   3   0  19   88.79   22.20
  -3   0 -19   49.40   18.90
   3   0  19   48.30   17.00
   3   0  19   46.90   19.90
   4   0  19    6.60   17.80
  -4   0 -19   31.70   19.80
   4   0  19    8.10   13.50
  -4   0 -19    3.20   30.60
   4   0  19  -23.40   25.30
  -4   0 -19    0.60    9.80
   5   0  19    7.40   15.70
   5   0  19    8.70   11.40
  -5   0 -19   -1.70    9.80
   8  -1 -19   52.99   15.90
  -8  -1  19   34.90   14.20
   8  -1 -19   28.20   13.10
  -8  -1  19   54.09   10.80
  -8   1  19   31.30   12.80
   8   1 -19   45.20   11.80
  -7  -1  19   70.49   14.00
   7  -1 -19   23.30   16.10
   7  -1 -19   41.40   14.80
   7  -1 -19   23.00   18.50
  -7  -1  19   34.40   11.10
  -7  -1  19   35.80   16.80
   7   1 -19   25.90   12.10
  -7   1  19   54.99   14.00
   6  -1 -19   -1.60   20.00
  -6  -1  19    7.40   12.50
   6  -1 -19   15.80   15.40
   6  -1 -19   56.59   17.20
  -6  -1  19  -22.00   15.90
  -6  -1  19   15.70   10.30
   6   1 -19   -3.80   13.10
  -6   1  19   -5.40   13.20
   6   1 -19   19.70   15.40
  -6   1  19   84.69   65.39
  -5  -1  19   25.20   10.30
  -5  -1  19   16.20   21.30
   5  -1 -19   -4.30   17.90
  -5  -1  19   22.90   17.00
   5  -1 -19    2.80   18.10
   5  -1 -19   19.20   16.10
  -5  -1  19   13.30   12.70
   5   1 -19    6.10   14.00
  -5   1  19   25.80   14.80
  -5   1  19   64.99   33.40
  -5   1  19   21.90   24.20
   5   1 -19   23.70   13.40
  -4  -1  19   50.29   21.40
   4  -1 -19   20.20   19.10
   4  -1 -19   36.60   15.10
  -4  -1  19   32.90   12.80
   4  -1 -19   23.30   17.80
  -4  -1  19   66.29   19.50
  -4  -1  19   42.20   12.10
  -4   1  19  -11.20   19.20
   4   1 -19   49.60   14.50
  -4   1  19   66.09   26.90
  -4   1  19   62.79   16.50
   4   1 -19   39.20   15.10
  -3  -1  19   24.60   12.50
   3  -1 -19  102.49   29.90
   3  -1 -19   24.60   21.60
   3  -1 -19  -30.60   16.80
  -3  -1  19   19.20   17.40
   3  -1 -19    5.10   15.60
   3   1 -19   -7.00   15.20
  -3   1  19   20.10   19.00
  -3   1  19   21.00   15.90
  -3   1  19   18.30   23.40
   3   1 -19    6.40   12.60
   2  -1 -19   24.20   26.00
   2  -1 -19   57.29   17.50
  -2  -1  19   29.40   13.30
   2  -1 -19   38.00   23.40
   2  -1 -19   45.60   16.00
  -2  -1  19   52.19   14.10
  -2  -1  19   23.40   17.10
  -2   1  19   80.99   18.10
   2   1 -19   54.49   16.00
   2   1 -19   31.00   14.50
  -2   1  19   33.60   22.80
   2   1 -19   68.69   19.70
  -2   1  19   40.50   19.60
  -1  -1  19   28.30   12.90
   1  -1 -19  -11.90   15.60
   1  -1 -19   20.70   21.50
   1  -1 -19   18.20   23.80
  -1  -1  19   15.90   18.20
   1  -1 -19    4.00   15.90
  -1  -1  19   44.50   39.40
   1   1 -19    3.60   12.70
  -1   1  19   59.19   19.90
   1   1 -19   32.50   20.00
   1   1 -19   28.70   15.50
  -1   1  19   28.70   19.70
  -1   1  19   33.70   20.90
   0  -1 -19  307.67   48.90
   0  -1 -19  399.86   33.40
   0  -1 -19  407.16   40.30
   0  -1  19  433.96   28.40
   0  -1  19  298.87   37.90
   0  -1  19  374.06   34.10
   0  -1 -19  360.26   31.80
   0   1  19  336.37   55.89
   0   1 -19  421.36   29.40
   0   1  19  411.76   35.90
   0   1 -19  453.35   35.30
   0   1 -19  393.96   42.10
   0   1  19  404.36   38.60
   1  -1  19   33.20   26.60
   1  -1  19   73.19   14.10
  -1  -1 -19   39.10   19.20
  -1  -1 -19   57.19   16.90
  -1  -1 -19   41.50   30.40
   1  -1  19  100.99   28.90
  -1  -1 -19   35.20   15.70
   1  -1  19   54.79   18.40
   1   1  19   59.89   18.00
   1   1  19   59.29   19.50
   1   1  19   29.60   26.90
  -1   1 -19   45.10   17.90
  -1   1 -19   27.20   12.10
   2  -1  19  127.09   22.50
   2  -1  19  125.29   24.90
  -2  -1 -19   85.49   19.70
  -2  -1 -19  129.59   18.10
   2  -1  19   72.89   18.60
   2  -1  19   84.19   25.60
  -2  -1 -19   87.89   17.10
   2   1  19   93.79   21.10
  -2   1 -19  113.19   19.90
  -2   1 -19  123.59   15.50
   2   1  19   68.99   24.60
   2   1  19  114.39   18.20
   3  -1  19    4.00   17.40
  -3  -1 -19   23.90   15.90
   3  -1  19   44.90   20.50
  -3  -1 -19    7.70   13.40
   3  -1  19   12.30   18.40
   3  -1  19   30.70   19.90
  -3  -1 -19   16.50   16.40
   3   1  19    9.00   22.30
   3   1  19    7.60   14.00
   3   1  19   11.20   20.30
  -3   1 -19    8.50   10.40
  -3   1 -19   40.30   17.80
  -3   1 -19    9.40   28.50
  -4  -1 -19    4.30   15.00
  -4  -1 -19   45.70   16.60
   4  -1  19    7.90   20.00
   4  -1  19   29.00   16.80
   4  -1  19   35.10   23.60
  -4  -1 -19   -0.30   16.10
  -4   1 -19   11.60   10.00
   4   1  19   48.20   41.40
   4   1  19   12.30   23.00
  -4   1 -19  -33.10   27.00
   4   1  19   -1.40   12.20
  -4   1 -19    5.20   18.30
  -5  -1 -19   29.40   14.90
   5  -1  19   41.20   13.70
   5  -1  19   54.09   16.40
  -5  -1 -19   47.80   13.00
   5   1  19   22.50   16.20
  -5   1 -19   37.20    8.90
   5   1  19   10.70   12.60
   7  -2 -19  -12.80   10.80
  -7  -2  19    3.90    8.70
   7  -2 -19   -3.60   17.60
  -7  -2  19   67.19   24.70
   7   2 -19  -12.20   11.50
   6  -2 -19   41.20   16.00
   6  -2 -19   72.39   19.50
  -6  -2  19   37.40   13.20
  -6  -2  19   56.59   14.80
  -6  -2  19   18.40   12.30
   6   2 -19   16.20   12.60
  -6   2  19   -8.40   26.20
  -5  -2  19    5.60   13.90
  -5  -2  19    2.30   23.00
   5  -2 -19    4.10   26.50
  -5  -2  19   -2.10   12.70
   5  -2 -19    9.30   12.90
  -5   2  19   25.30   33.20
  -5   2  19   51.19   25.70
   5   2 -19    3.90   12.30
   4  -2 -19   38.90   28.60
  -4  -2  19   43.40   12.40
  -4  -2  19   22.40   14.50
   4  -2 -19   44.10   15.00
  -4  -2  19   71.09   17.60
  -4  -2  19   33.20   10.60
  -4   2  19   30.40   20.90
  -4   2  19   65.59   21.90
   4   2 -19   41.90   13.10
   4   2 -19   40.40   15.80
  -3  -2  19  320.67   24.90
   3  -2 -19  313.17   39.10
  -3  -2  19  308.07   29.90
   3  -2 -19  365.76   47.80
  -3  -2  19  270.87   30.20
   3  -2 -19  298.57   27.00
  -3  -2  19  279.27   22.80
   3   2 -19  358.06   27.50
  -3   2  19  355.46   35.30
   3   2 -19  291.17   26.50
   3   2 -19  307.77   25.90
  -3   2  19  359.56   37.30
   2  -2 -19   36.70   21.10
  -2  -2  19   31.40   10.90
  -2  -2  19   29.80   11.10
  -2  -2  19  -10.10   21.80
  -2  -2  19    5.40   15.10
   2  -2 -19   62.59   42.20
   2  -2 -19   16.30   13.60
  -2   2  19   59.29   18.20
   2   2 -19   28.90   12.00
  -2   2  19   12.50   18.70
   2   2 -19   27.50   13.70
   2   2 -19   37.10   13.50
   1  -2 -19   55.39   19.90
  -1  -2  19   53.79   17.60
   1  -2 -19   64.99   14.80
  -1  -2  19   53.59   11.60
  -1  -2  19   40.00   13.10
   1  -2 -19   30.50   39.30
  -1   2  19   29.10   17.00
   1   2 -19   54.59   13.50
   1   2 -19   58.39   15.40
   1   2 -19   76.79   14.00
  -1   2  19   75.69   18.00
   0  -2  19   92.49   12.90
   0  -2 -19   47.80   12.80
   0  -2  19   44.10   14.80
   0  -2 -19   65.19   17.60
   0  -2 -19  111.99   23.10
   0   2  19   80.39   20.40
   0   2 -19   98.49   14.20
   0   2 -19   90.39   15.10
   0   2  19   76.49   33.50
   0   2 -19   83.49   16.00
   0   2  19   82.09   16.60
   1  -2  19   27.80   14.60
  -1  -2 -19   78.99   20.80
   1  -2  19   30.50   10.40
  -1  -2 -19   27.80   15.50
  -1  -2 -19   22.70   12.00
   1   2  19   57.59   18.90
   1   2  19   41.70   14.80
  -1   2 -19   33.40   13.60
  -1   2 -19   23.20   11.90
   1   2  19   24.80   35.00
   2  -2  19   31.60   15.30
  -2  -2 -19   37.20   12.30
  -2  -2 -19   25.50   16.00
   2  -2  19   31.70   27.10
   2  -2  19  -43.30   43.20
   2  -2  19   25.10   11.20
  -2   2 -19   41.70   13.70
   2   2  19   -6.70   23.80
  -2   2 -19   46.40   12.70
  -2   2 -19   58.69   16.20
   2   2  19    7.80   22.80
   2   2  19   34.50   13.80
   3  -2  19  106.39   30.20
   3  -2  19   85.89   22.90
  -3  -2 -19  132.79   20.80
   3  -2  19   80.99   13.40
  -3  -2 -19   96.39   17.50
   3  -2  19   68.69   17.90
   3   2  19  133.99   20.90
   3   2  19   60.59   20.80
  -3   2 -19  136.99   17.10
   3   2  19  126.49   24.30
  -3   2 -19  107.49   15.50
  -4  -2 -19   65.99   15.60
  -4  -2 -19   65.79   11.40
  -4   2 -19   57.59   15.60
  -4   2 -19   78.09   11.60
   4   2  19   52.19   17.40
  -4  -3  19   68.39    9.50
   4  -3 -19   78.59   15.00
  -4  -3  19   44.20   21.60
  -4   3  19   80.39   26.90
  -3  -3  19   51.49   15.20
  -3  -3  19   92.19   13.10
   3  -3 -19   84.29   15.50
  -3  -3  19   85.49   10.50
   3  -3 -19   62.49   18.70
  -3   3  19  105.99   19.90
  -2  -3  19  105.49   15.80
   2  -3 -19  130.29   20.80
  -2  -3  19  163.08   17.90
  -2  -3  19  110.49   18.80
   2  -3 -19  121.09   19.00
  -2   3  19  119.19   18.80
   2   3 -19  167.38   19.00
  -2   3  19  124.59   16.50
   1  -3 -19   10.20   16.00
  -1  -3  19    2.90   12.10
  -1  -3  19   11.10    9.10
   1  -3 -19   32.00   13.20
   1  -3 -19   13.70   15.30
  -1   3  19    3.10   15.40
  -1   3  19    0.80   12.60
   1   3 -19   25.60   11.00
   0  -3 -19   35.70   13.20
   0  -3  19   44.90   12.40
   0  -3 -19   79.39   16.70
   0  -3  19   56.89    9.70
   0   3 -19   52.39   12.10
   0   3  19   44.80   14.40
   0   3 -19   38.70   17.80
   0   3  19   55.09   17.00
   1  -3  19   26.60   12.70
   1   3  19   69.79   18.40
   7   0 -20  275.87   37.60
  -7   0  20  211.78   21.50
   7   0 -20  225.28   20.90
   7   0 -20  256.27   23.80
   6   0 -20  251.17   24.50
   6   0 -20  203.18   24.00
  -6   0  20  225.48   20.50
   5   0 -20   17.50   23.90
   5   0 -20    0.80   12.20
  -5   0  20  -15.60   23.20
  -5   0  20   22.00   11.90
   5   0 -20   20.60   14.50
   4   0 -20  125.29   22.20
   4   0 -20  171.88   22.40
  -4   0  20  173.78   22.50
  -4   0  20  121.49   21.80
   4   0 -20  162.28   20.20
   3   0 -20    9.50   15.40
  -3   0  20   56.99   36.70
  -3   0  20    1.50   12.50
   3   0 -20    5.10   12.40
   3   0 -20   31.80   18.90
  -3   0  20   -2.80   18.40
  -2   0  20   11.30   17.50
   2   0 -20  -11.80   17.50
   2   0 -20   -8.80   15.00
  -2   0  20   -3.80   28.70
  -2   0  20   22.90   13.60
   2   0 -20    0.60   12.90
  -1   0  20   13.40   16.00
   1   0 -20   -7.80   17.20
  -1   0  20   36.10   24.60
   1   0 -20    8.90   17.90
  -1   0  20   11.20   13.90
   1   0 -20   -0.90   12.30
   0   0 -20   26.50   18.10
   0   0 -20    6.60   12.50
   0   0  20  -18.50   21.00
   0   0  20    4.70   15.70
   0   0 -20   14.70   31.70
   0   0 -20   22.60   19.40
   0   0  20   27.80   17.50
   1   0  20   -2.60   32.90
  -1   0 -20   19.30   27.60
   1   0  20    9.70   17.90
  -1   0 -20   16.60   25.40
  -1   0 -20   19.00   18.60
  -1   0 -20   15.10   12.50
   1   0  20    3.90   15.80
  -2   0 -20   41.30   19.30
   2   0  20   -6.80   24.30
   2   0  20   23.00   17.00
   2   0  20    8.00   15.50
  -2   0 -20   23.40   12.10
  -2   0 -20   27.90   20.90
  -2   0 -20   13.20   21.00
   3   0  20   26.50   15.00
  -3   0 -20   37.10   23.40
  -3   0 -20    2.10   26.20
   3   0  20    2.40   21.30
   3   0  20   15.40   20.00
  -3   0 -20   27.50   20.70
  -3   0 -20   35.00   11.30
  -4   0 -20   46.80   27.20
  -4   0 -20   22.00   10.70
   4   0  20    3.70   12.70
   4   0  20  -17.90   19.40
   7  -1 -20  138.99   19.00
  -7  -1  20  100.79   17.00
   7  -1 -20  142.19   18.20
   7   1 -20  102.79   15.30
  -7   1  20  112.79   15.10
   6  -1 -20   74.59   15.80
  -6  -1  20  128.89   18.30
   6  -1 -20  112.59   21.60
  -6  -1  20  117.59   19.00
   6   1 -20   93.49   14.70
   6   1 -20   73.79   16.20
  -6   1  20  132.69   20.40
  -5  -1  20   30.50   12.30
  -5  -1  20   70.19   22.90
   5  -1 -20    3.80   19.30
   5  -1 -20   60.19   17.30
   5  -1 -20   25.20   15.50
  -5  -1  20   16.70   11.80
  -5   1  20   80.29   25.50
  -5   1  20   16.30   35.80
  -5   1  20  -13.40   18.90
   5   1 -20   32.70   15.60
   5   1 -20   44.50   12.10
   4  -1 -20  211.38   30.10
  -4  -1  20  181.18   21.50
   4  -1 -20  240.68   27.20
  -4  -1  20  200.08   31.80
   4  -1 -20  184.68   22.20
  -4  -1  20  198.08   29.50
  -4   1  20  171.98   21.30
   4   1 -20  212.38   23.50
  -4   1  20  206.88   32.90
  -4   1  20  248.48   41.10
   4   1 -20  201.68   20.80
  -3  -1  20   23.90   11.70
   3  -1 -20   39.10   19.00
   3  -1 -20   43.80   14.40
  -3  -1  20    9.50   16.70
   3  -1 -20   26.70   18.70
  -3   1  20   62.29   23.70
  -3   1  20   15.70   19.70
   3   1 -20   19.70   12.00
  -3   1  20    0.60   18.70
   3   1 -20   28.20   13.40
   2  -1 -20   27.10   21.10
  -2  -1  20   41.00   11.60
   2  -1 -20   75.09   31.80
  -2  -1  20   40.10   16.90
   2  -1 -20   31.80   13.90
   2  -1 -20   39.80   23.20
   2   1 -20   18.80   14.50
   2   1 -20   37.50   12.60
  -2   1  20   50.89   22.10
  -2   1  20   37.00   17.70
  -2   1  20   36.10   22.30
   1  -1 -20   22.20   20.70
  -1  -1  20   46.50   12.50
   1  -1 -20   18.80   22.90
   1  -1 -20   33.40   22.20
  -1  -1  20   22.40   15.30
   1  -1 -20   20.60   12.80
  -1   1  20   53.59   19.20
   1   1 -20   44.20   15.30
  -1   1  20   39.20   17.00
   1   1 -20   23.40   12.20
   0  -1  20  338.47   48.20
   0  -1 -20  284.67   27.00
   0  -1 -20  308.47   34.10
   0  -1  20  316.57   23.20
   0  -1  20  260.67   29.10
   0  -1 -20  302.87   27.20
   0  -1 -20  322.17   47.00
   0   1 -20  277.27   23.10
   0   1  20  256.57   30.80
   0   1 -20  271.87   28.50
   0   1  20  215.18   30.10
   1  -1  20  -10.90   16.70
   1  -1  20   27.30   25.30
  -1  -1 -20  -12.90   12.40
  -1  -1 -20   40.40   29.30
  -1  -1 -20    8.10   15.70
   1  -1  20    9.40   15.30
  -1  -1 -20    3.50   18.20
   1   1  20    3.90   14.10
   1   1  20    3.60   17.00
   1   1  20   27.00   29.60
  -1   1 -20   -0.30   10.90
  -1   1 -20   11.70   15.00
  -2  -1 -20   21.40   16.70
   2  -1  20   74.69   20.30
  -2  -1 -20   65.09   25.10
  -2  -1 -20   59.69   17.60
   2  -1  20   52.59   18.70
   2  -1  20   53.79   28.30
   2  -1  20   47.10   17.60
  -2   1 -20   55.99   10.90
   2   1  20   37.40   18.40
   2   1  20   74.09   15.30
  -2   1 -20   76.59   17.70
   2   1  20   59.99   25.40
   3  -1  20   30.50   15.80
  -3  -1 -20   52.89   13.10
   3  -1  20   51.29   23.40
   3  -1  20   56.39   17.10
  -3  -1 -20   48.70   16.50
   3   1  20   38.40   13.30
  -3   1 -20   57.39   17.70
   3   1  20   46.50   22.00
  -3   1 -20   47.70    9.90
   3   1  20   90.69   21.90
  -5  -2  20    8.10   11.10
  -5  -2  20   -1.50    9.10
   5  -2 -20   33.00   19.80
   5  -2 -20   -2.90   11.60
  -5   2  20  -15.30   21.60
   5   2 -20  -22.90   10.80
  -4  -2  20   28.70   18.20
   4  -2 -20   23.10   22.80
   4  -2 -20   62.39   13.10
  -4  -2  20   29.20   11.30
  -4  -2  20   61.39   10.60
   4   2 -20   48.10   12.50
  -4   2  20   63.19   21.80
  -4   2  20   73.59   18.90
   3  -2 -20  497.45   40.70
  -3  -2  20  501.95   26.90
   3  -2 -20  521.85   46.80
  -3  -2  20  440.76   30.70
  -3  -2  20  479.65   33.10
   3   2 -20  493.95   28.20
  -3   2  20  528.45   37.20
  -3   2  20  537.15   36.10
   3   2 -20  496.75   28.70
  -2  -2  20   36.20   10.50
   2  -2 -20   23.70   20.80
  -2  -2  20   16.20   16.20
   2  -2 -20   25.60   12.20
   2   2 -20   -0.20   14.90
  -2   2  20   25.30   18.90
   2   2 -20   11.30   11.90
  -1  -2  20   99.09   17.40
  -1  -2  20   78.69   18.20
   1  -2 -20   40.30   14.30
   1  -2 -20   86.39   19.60
   1   2 -20   77.99   16.20
  -1   2  20   76.99   21.50
   1   2 -20   45.70   16.30
   1   2 -20   86.89   14.40
  -1   2  20   50.99   20.50
   0  -2 -20   31.00   13.10
   0  -2 -20   20.50   16.60
   0  -2  20   25.00   10.20
   0  -2  20   28.00   13.70
   0   2 -20    8.70   12.80
   0   2 -20    9.50   10.60
   0   2  20    6.40   19.20
   0   2 -20   54.69   16.50
   0   2  20   25.20   17.50
  -1  -2 -20  581.14   36.30
  -1  -2 -20  585.34   29.50
   1  -2  20  513.05   31.40
   1  -2  20  563.94   28.30
   1   2  20  540.55   30.90
  -1   2 -20  532.85   28.00
   1   2  20  517.15   35.50
  -1   2 -20  571.34   31.10
   2  -2  20   16.40   15.10
  -2  -2 -20   24.10   15.60
  -2  -2 -20   24.30   10.40
  -2   2 -20   27.00   10.40
   2   2  20   34.20   11.90
  -2   2 -20   51.09   12.60
  -5   0  21   56.69   11.80
   5   0 -21   28.20   12.90
   5   0 -21   84.79   14.90
   4   0 -21  124.69   19.20
   4   0 -21  158.48   30.30
   4   0 -21  158.38   21.40
  -4   0  21  181.48   20.70
  -3   0  21   12.20   15.90
  -3   0  21   43.80   12.60
   3   0 -21   -6.30   15.60
   3   0 -21   10.10   12.30
   3   0 -21   36.10   22.90
   2   0 -21   -7.30   14.40
  -2   0  21   28.50   17.80
  -2   0  21   20.30   14.40
   2   0 -21   21.30   15.20
   2   0 -21   17.40   22.80
  -2   0  21   -3.30   29.80
  -1   0  21   29.70   14.90
   1   0 -21   72.69   23.10
  -1   0  21  -14.30   24.10
   1   0 -21   -0.20   12.20
  -1   0  21   30.60   16.20
   1   0 -21  -11.90   17.50
   0   0 -21   56.29   31.70
   0   0  21   14.60   20.80
   0   0 -21   32.90   16.10
   0   0  21   32.50   19.60
   0   0 -21   26.70   11.40
  -1   0 -21    0.30   17.10
  -1   0 -21    5.50   10.20
   1   0  21   20.10   18.00
   1   0  21   12.40   15.40
   2   0  21   26.70   14.30
   2   0  21   10.60   17.00
  -2   0 -21   -5.70   10.40
  -5  -1  21  106.79   15.20
   5  -1 -21   80.69   16.60
   5  -1 -21   65.19   14.70
   5   1 -21   84.49   11.40
   4  -1 -21  304.87   25.90
  -4  -1  21  255.77   29.00
   4  -1 -21  187.48   24.70
  -4  -1  21  243.18   19.20
  -4   1  21  244.18   31.60
  -4   1  21  158.78   41.00
   4   1 -21  212.98   18.70
   4   1 -21  200.28   22.10
   3  -1 -21    5.20   14.10
   3  -1 -21   57.39   18.90
  -3  -1  21   12.80   15.50
  -3   1  21   17.90   18.10
   3   1 -21   40.80   10.10
  -3   1  21   43.30   21.50
   3   1 -21   37.50   13.20
  -2  -1  21   23.00   10.90
   2  -1 -21   17.60   19.00
   2  -1 -21   22.30   14.30
  -2  -1  21   26.30   14.40
   2   1 -21   -1.10   14.80
   2   1 -21   17.80   10.00
  -2   1  21   32.60   20.00
  -2   1  21   10.20   15.90
  -1  -1  21   38.80   12.00
   1  -1 -21    7.40   12.80
  -1  -1  21   16.20   13.40
   1  -1 -21   28.60   21.30
  -1   1  21   32.90   18.00
   1   1 -21    1.10   12.20
   1   1 -21   23.80    9.30
  -1   1  21   19.10   14.90
   0  -1 -21  -12.70   25.80
   0  -1  21   -0.30   12.70
   0  -1 -21    1.20   12.60
   0  -1  21   12.50   13.40
   0   1 -21   -0.40   12.40
   0   1  21   18.20   14.70
   0   1  21    7.30   15.00
   0   1 -21   -2.70    8.80
   1  -1  21   21.40   15.30
  -1  -1 -21   18.40   13.30
   1   1  21    1.70   16.20
   1   1  21   37.00   14.10
  -1   1 -21    0.70   13.60
  -1   1 -21   21.00    9.10

_computing_structure_solution     'SHELXT 2014/4 (Sheldrick, 2014)'
;
_shelx_hkl_checksum              13810
loop_
_space_group_symop_operation_xyz
'x, y, z'
'-x, y+1/2, -z'
loop_
_atom_site_label
_atom_site_type_symbol
_atom_site_fract_x
_atom_site_fract_y
_atom_site_fract_z
_atom_site_U_iso_or_equiv
_atom_site_adp_type
_atom_site_occupancy
_atom_site_site_symmetry_order
_atom_site_calc_flag
_atom_site_refinement_flags_posn
_atom_site_refinement_flags_occupancy
_atom_site_disorder_assembly
_atom_site_disorder_group
Na1 Na 0.58991(12) -0.1012(3) 0.03331(8) 0.0116(3) Uani 1 1 d . . . .
Na2 Na 0.32142(13) 0.9320(3) 1.09161(8) 0.0135(3) Uani 1 1 d . . . .
Na3 Na 0.10692(13) 0.3648(3) 0.95889(8) 0.0148(3) Uani 1 1 d . . . .
Na4 Na 0.14741(14) 0.9724(3) 0.24034(9) 0.0185(4) Uani 1 1 d . . . .
O2 O 0.4692(2) 0.6209(5) 0.09643(16) 0.0137(6) Uani 1 1 d . . . .
O11 O 0.2513(2) 0.6775(5) 0.96075(15) 0.0130(6) Uani 1 1 d . . . .
O12 O 0.2639(2) 1.0995(5) 0.96916(15) 0.0130(6) Uani 1 1 d . . . .
O4 O 0.2075(2) 0.6626(6) 0.16074(16) 0.0156(6) Uani 1 1 d . . . .
O1 O 0.4898(2) 0.2001(5) 0.09105(15) 0.0142(6) Uani 1 1 d . . . .
O6 O 0.3306(3) 0.9384(6) 0.33557(15) 0.0182(6) Uani 1 1 d . . . .
O10 O 0.0219(2) 0.5001(6) 1.06690(15) 0.0168(6) Uani 1 1 d . . . .
H10A H 0.0154 0.3638 1.0925 0.020 Uiso 1 1 d R . . .
H10B H 0.0853 0.5450 1.0912 0.020 Uiso 1 1 d R . . .
O3 O 0.2519(3) 0.2473(5) 0.17204(16) 0.0159(6) Uani 1 1 d . . . .
O9 O 0.0333(3) 0.5521(6) 0.84599(16) 0.0199(7) Uani 1 1 d . . . .
O7 O 0.2731(3) 0.3001(6) 0.70152(17) 0.0257(8) Uani 1 1 d . . . .
O8 O 0.0116(3) 0.7107(7) 0.72686(17) 0.0243(7) Uani 1 1 d . . . .
N2 N 0.3689(3) 0.5180(7) 0.31861(17) 0.0132(7) Uani 1 1 d . . . .
H2 H 0.3775 0.3656 0.3399 0.016 Uiso 1 1 calc R . . .
N1 N 0.2405(3) 0.7221(7) 0.71953(18) 0.0154(7) Uani 1 1 d . . . .
H1 H 0.2456 0.8776 0.7011 0.018 Uiso 1 1 calc R . . .
O5 O 0.0831(3) 0.6623(7) 0.3240(2) 0.0323(8) Uani 1 1 d . . . .
H5 H 0.0577 0.5166 0.3087 0.039 Uiso 1 1 d R . . .
C13 C 0.4811(3) 0.4039(8) 0.12739(19) 0.0110(7) Uani 1 1 d . . . .
C16 C 0.2708(3) 0.4775(8) 0.1857(2) 0.0117(8) Uani 1 1 d . . . .
C12 C 0.2483(3) 0.8946(8) 0.9311(2) 0.0109(7) Uani 1 1 d . . . .
C8 C 0.2691(4) 0.5235(8) 0.6777(2) 0.0168(8) Uani 1 1 d . . . .
C14 C 0.4802(3) 0.3884(8) 0.2152(2) 0.0134(7) Uani 1 1 d . . . .
H14A H 0.4710 0.2084 0.2309 0.016 Uiso 1 1 calc R . . .
H14B H 0.5528 0.4533 0.2422 0.016 Uiso 1 1 calc R . . .
C1 C 0.3437(4) 0.7178(8) 0.3615(2) 0.0162(8) Uani 1 1 d . . . .
C15 C 0.3821(3) 0.5492(8) 0.2370(2) 0.0126(8) Uani 1 1 d . . . .
H15 H 0.3991 0.7330 0.2277 0.015 Uiso 1 1 calc R . . .
C10 C 0.2012(4) 0.6892(8) 0.7950(2) 0.0160(8) Uani 1 1 d . . . .
H10 H 0.2408 0.5393 0.8219 0.019 Uiso 1 1 calc R . . .
C11 C 0.2284(3) 0.9293(8) 0.8437(2) 0.0130(7) Uani 1 1 d . . . .
H11A H 0.2970 1.0091 0.8273 0.016 Uiso 1 1 calc R . . .
H11B H 0.1651 1.0515 0.8315 0.016 Uiso 1 1 calc R . . .
C2A C 0.3327(3) 0.6651(8) 0.4448(2) 0.0141(8) Uani 0.894(8) 1 d . P A 1
C3A C 0.3826(4) 0.4586(9) 0.4861(2) 0.0160(10) Uani 0.894(8) 1 d . P A 1
H3A H 0.4296 0.3440 0.4624 0.019 Uiso 0.894(8) 1 calc R P A 1
C4A C 0.3636(4) 0.4196(10) 0.5621(2) 0.0174(10) Uani 0.894(8) 1 d . P A 1
H4A H 0.3982 0.2782 0.5900 0.021 Uiso 0.894(8) 1 calc R P A 1
C5A C 0.2950(4) 0.5834(8) 0.5979(2) 0.0168(8) Uani 0.894(8) 1 d . P A 1
C6A C 0.2478(4) 0.7974(10) 0.5575(3) 0.0189(11) Uani 0.894(8) 1 d . P A 1
H6A H 0.2028 0.9147 0.5819 0.023 Uiso 0.894(8) 1 calc R P A 1
C7A C 0.2671(4) 0.8378(9) 0.4815(2) 0.0175(11) Uani 0.894(8) 1 d . P A 1
H7A H 0.2354 0.9835 0.4542 0.021 Uiso 0.894(8) 1 calc R P A 1
C2B C 0.3327(3) 0.6651(8) 0.4448(2) 0.0141(8) Uani 0.106(8) 1 d D P A 2
C3B C 0.2695(19) 0.453(4) 0.4635(9) 0.027(10) Uiso 0.106(8) 1 d D P A 2
H3B H 0.2394 0.3370 0.4243 0.033 Uiso 0.106(8) 1 calc R P A 2
C4B C 0.251(2) 0.413(4) 0.5400(7) 0.038(12) Uiso 0.106(8) 1 d D P A 2
H4B H 0.2079 0.2688 0.5528 0.045 Uiso 0.106(8) 1 calc R P A 2
C5B C 0.2950(4) 0.5834(8) 0.5979(2) 0.0168(8) Uani 0.106(8) 1 d D P A 2
C6B C 0.358(2) 0.794(4) 0.5793(10) 0.048(15) Uiso 0.106(8) 1 d D P A 2
H6B H 0.3878 0.9104 0.6185 0.057 Uiso 0.106(8) 1 calc R P A 2
C7B C 0.377(2) 0.834(4) 0.5028(7) 0.046(15) Uiso 0.106(8) 1 d D P A 2
H7B H 0.4196 0.9778 0.4902 0.055 Uiso 0.106(8) 1 calc R P A 2
C9 C 0.0719(4) 0.6451(8) 0.7872(2) 0.0179(9) Uani 1 1 d . . . .
C17 C 0.0135(5) 0.7232(13) 0.3835(3) 0.0423(14) Uani 1 1 d . . . .
H17A H 0.0335 0.8936 0.4043 0.064 Uiso 1 1 calc GR . . .
H17B H 0.0264 0.5964 0.4250 0.064 Uiso 1 1 calc GR . . .
H17C H -0.0666 0.7210 0.3617 0.064 Uiso 1 1 calc GR . . .
loop_
_atom_site_aniso_label
_atom_site_aniso_U_11
_atom_site_aniso_U_22
_atom_site_aniso_U_33
_atom_site_aniso_U_23
_atom_site_aniso_U_13
_atom_site_aniso_U_12
Na1 0.0148(7) 0.0079(7) 0.0127(7) -0.0002(6) 0.0045(5) 0.0013(6)
Na2 0.0183(7) 0.0102(7) 0.0128(7) 0.0012(6) 0.0049(5) 0.0004(6)
Na3 0.0156(8) 0.0111(7) 0.0188(7) 0.0003(6) 0.0068(6) 0.0009(6)
Na4 0.0169(8) 0.0158(8) 0.0236(8) 0.0002(6) 0.0062(6) 0.0025(7)
O2 0.0168(14) 0.0109(13) 0.0144(13) 0.0009(10) 0.0061(11) 0.0002(12)
O11 0.0169(14) 0.0094(13) 0.0133(13) 0.0028(10) 0.0038(11) 0.0003(11)
O12 0.0136(14) 0.0108(13) 0.0153(14) -0.0016(11) 0.0045(11) 0.0006(11)
O4 0.0165(14) 0.0132(14) 0.0175(14) 0.0017(11) 0.0031(11) 0.0012(12)
O1 0.0191(15) 0.0092(13) 0.0158(13) -0.0022(11) 0.0083(11) 0.0031(12)
O6 0.0297(16) 0.0115(13) 0.0151(13) 0.0005(11) 0.0092(11) 0.0030(13)
O10 0.0137(14) 0.0170(15) 0.0203(14) 0.0003(12) 0.0037(11) -0.0011(12)
O3 0.0193(15) 0.0108(13) 0.0185(14) -0.0008(11) 0.0063(11) -0.0003(12)
O9 0.0219(16) 0.0207(16) 0.0184(14) 0.0040(12) 0.0072(12) -0.0043(13)
O7 0.047(2) 0.0155(15) 0.0172(15) 0.0001(12) 0.0137(14) 0.0006(15)
O8 0.0244(16) 0.0278(18) 0.0206(15) 0.0059(13) 0.0023(12) -0.0015(14)
N2 0.0187(17) 0.0124(16) 0.0087(14) 0.0024(12) 0.0021(12) 0.0011(14)
N1 0.0216(18) 0.0143(16) 0.0113(15) 0.0013(13) 0.0064(13) -0.0010(15)
O5 0.037(2) 0.0295(19) 0.0322(18) 0.0011(15) 0.0119(15) -0.0097(17)
C13 0.0095(16) 0.0119(18) 0.0124(16) 0.0005(16) 0.0042(13) 0.0001(16)
C16 0.0144(18) 0.0127(19) 0.0092(16) 0.0005(14) 0.0064(14) 0.0003(16)
C12 0.0082(16) 0.0117(18) 0.0135(16) -0.0015(15) 0.0045(13) 0.0013(16)
C8 0.020(2) 0.017(2) 0.0147(19) -0.0022(15) 0.0045(16) -0.0018(17)
C14 0.0150(18) 0.0133(18) 0.0127(17) 0.0018(15) 0.0055(13) 0.0023(17)
C1 0.017(2) 0.018(2) 0.0143(18) 0.0026(16) 0.0049(15) 0.0009(17)
C15 0.017(2) 0.0112(18) 0.0099(17) 0.0008(14) 0.0050(14) 0.0007(16)
C10 0.023(2) 0.0141(19) 0.0124(18) 0.0013(15) 0.0072(15) 0.0013(17)
C11 0.0151(18) 0.0092(18) 0.0158(17) 0.0013(15) 0.0060(14) 0.0001(16)
C2A 0.0165(19) 0.0141(19) 0.0120(17) -0.0016(14) 0.0032(14) -0.0006(17)
C3A 0.021(2) 0.013(2) 0.016(2) -0.0042(17) 0.0066(17) 0.0048(19)
C4A 0.021(2) 0.015(2) 0.016(2) -0.0002(18) 0.0042(16) 0.005(2)
C5A 0.023(2) 0.018(2) 0.0114(19) -0.0023(15) 0.0079(16) -0.0018(18)
C6A 0.024(3) 0.017(2) 0.018(2) -0.0025(17) 0.0091(19) 0.005(2)
C7A 0.028(3) 0.011(2) 0.015(2) 0.0019(16) 0.0065(18) 0.0059(19)
C2B 0.0165(19) 0.0141(19) 0.0120(17) -0.0016(14) 0.0032(14) -0.0006(17)
C5B 0.023(2) 0.018(2) 0.0114(19) -0.0023(15) 0.0079(16) -0.0018(18)
C9 0.022(2) 0.016(2) 0.0165(19) -0.0025(16) 0.0043(16) -0.0011(18)
C17 0.035(3) 0.050(4) 0.044(3) 0.001(3) 0.011(2) -0.003(3)
loop_
_atom_type_symbol
_atom_type_description
_atom_type_scat_dispersion_real
_atom_type_scat_dispersion_imag
_atom_type_scat_source
C C 0.0181 0.0091 'International Tables Vol C Tables 4.2.6.8 and 6.1.1.4'
H H 0.0000 0.0000 'International Tables Vol C Tables 4.2.6.8 and 6.1.1.4'
N N 0.0311 0.0180 'International Tables Vol C Tables 4.2.6.8 and 6.1.1.4'
O O 0.0492 0.0322 'International Tables Vol C Tables 4.2.6.8 and 6.1.1.4'
Na Na 0.1353 0.1239 'International Tables Vol C Tables 4.2.6.8 and 6.1.1.4'
loop_
_geom_angle_atom_site_label_1
_geom_angle_atom_site_label_2
_geom_angle_atom_site_label_3
_geom_angle
_geom_angle_site_symmetry_1
_geom_angle_site_symmetry_3
Na1 Na1 Na1 97.31(7) 2_645 2_655
Na1 Na1 Na2 59.48(4) 2_645 2_636
Na1 Na1 Na2 122.17(6) 2_655 2_636
Na1 Na1 Na3 128.31(5) 2_655 2_646
Na1 Na1 Na3 123.07(5) 2_645 2_646
Na2 Na1 Na1 65.65(5) 1_544 2_645
Na2 Na1 Na1 60.84(5) 1_544 2_655
Na2 Na1 Na2 125.03(6) 1_544 2_636
Na2 Na1 Na3 67.17(4) 2_636 2_646
Na2 Na1 Na3 160.95(5) 1_544 2_646
O2 Na1 Na1 43.67(7) 2_645 2_655
O2 Na1 Na1 87.53(9) 2_645 2_645
O2 Na1 Na1 103.30(10) 1_545 2_655
O2 Na1 Na1 47.40(7) 1_545 2_645
O2 Na1 Na2 43.33(8) 1_545 1_544
O2 Na1 Na2 80.61(7) 2_645 2_636
O2 Na1 Na2 96.19(8) 1_545 2_636
O2 Na1 Na2 94.42(8) 2_645 1_544
O2 Na1 Na3 102.55(8) 2_645 2_646
O2 Na1 Na3 127.32(9) 1_545 2_646
O2 Na1 O2 124.47(8) 1_545 2_645
O2 Na1 O1 87.96(10) 1_545 2_645
O2 Na1 C13 109.90(11) 1_545 2_645
O2 Na1 C13 26.41(10) 2_645 2_645
O11 Na1 Na1 157.75(10) 2_646 2_645
O11 Na1 Na1 90.26(7) 2_646 2_655
O11 Na1 Na2 135.26(9) 2_646 1_544
O11 Na1 Na2 98.84(8) 2_646 2_636
O11 Na1 Na3 40.67(7) 2_646 2_646
O11 Na1 O2 83.57(10) 2_646 2_645
O11 Na1 O2 150.11(11) 2_646 1_545
O11 Na1 O1 120.50(10) 2_646 2_645
O11 Na1 C13 99.98(11) 2_646 2_645
O12 Na1 Na1 157.01(10) 2_636 2_655
O12 Na1 Na1 85.28(7) 2_636 2_645
O12 Na1 Na2 40.98(7) 2_636 2_636
O12 Na1 Na2 138.56(9) 2_636 1_544
O12 Na1 Na3 39.20(7) 2_636 2_646
O12 Na1 O2 114.04(10) 2_636 2_645
O12 Na1 O2 95.27(11) 2_636 1_545
O12 Na1 O11 79.84(10) 2_636 2_646
O12 Na1 O1 84.63(10) 2_636 2_645
O12 Na1 C13 96.72(11) 2_636 2_645
O1 Na1 Na1 40.89(7) 2_645 2_645
O1 Na1 Na1 82.64(9) 2_645 2_655
O1 Na1 Na1 45.39(7) . 2_655
O1 Na1 Na1 109.47(10) . 2_645
O1 Na1 Na2 44.54(8) . 1_544
O1 Na1 Na2 43.94(7) 2_645 2_636
O1 Na1 Na2 90.81(8) 2_645 1_544
O1 Na1 Na2 164.71(9) . 2_636
O1 Na1 Na3 106.39(8) 2_645 2_646
O1 Na1 Na3 126.39(9) . 2_646
O1 Na1 O2 52.08(9) 2_645 2_645
O1 Na1 O2 80.80(10) . 1_545
O1 Na1 O2 88.72(10) . 2_645
O1 Na1 O11 90.73(11) . 2_646
O1 Na1 O12 153.86(12) . 2_636
O1 Na1 O1 120.79(8) . 2_645
O1 Na1 C13 108.97(12) . 2_645
O1 Na1 C13 26.25(10) 2_645 2_645
C13 Na1 Na1 65.29(9) 2_645 2_645
C13 Na1 Na1 64.39(9) 2_645 2_655
C13 Na1 Na2 96.93(8) 2_645 1_544
C13 Na1 Na2 57.78(8) 2_645 2_636
C13 Na1 Na3 102.13(8) 2_645 2_646
Na1 Na2 Na1 59.68(4) 1_566 2_666
Na1 Na2 Na4 149.90(6) 1_566 1_556
Na1 Na2 Na4 131.61(6) 2_666 1_556
O2 Na2 Na1 102.54(8) 1_556 2_666
O2 Na2 Na1 43.72(7) 1_556 1_566
O2 Na2 Na4 120.84(8) 1_556 1_556
O2 Na2 O11 80.79(10) 1_556 .
O2 Na2 O1 77.97(10) 1_556 1_566
O2 Na2 C13 96.03(11) 1_556 1_566
O2 Na2 C16 68.79(10) 1_556 1_556
O2 Na2 C12 96.88(11) 1_556 .
O11 Na2 Na1 85.60(7) . 1_566
O11 Na2 Na1 84.33(7) . 2_666
O11 Na2 Na4 120.61(8) . 1_556
O11 Na2 C13 132.55(10) . 1_566
O11 Na2 C16 90.66(10) . 1_556
O11 Na2 C12 25.92(10) . .
O12 Na2 Na1 41.22(8) . 2_666
O12 Na2 Na1 85.62(8) . 1_566
O12 Na2 Na4 121.45(9) . 1_556
O12 Na2 O2 114.66(11) . 1_556
O12 Na2 O11 51.84(9) . .
O12 Na2 O4 124.51(12) . 1_556
O12 Na2 O1 85.76(11) . 1_566
O12 Na2 O3 101.39(11) . 1_566
O12 Na2 C13 89.25(10) . 1_566
O12 Na2 C16 138.22(12) . 1_556
O12 Na2 C12 26.03(11) . .
O4 Na2 Na1 162.97(9) 1_556 2_666
O4 Na2 Na1 136.07(9) 1_556 1_566
O4 Na2 Na4 40.44(8) 1_556 1_556
O4 Na2 O2 92.43(11) 1_556 1_556
O4 Na2 O11 90.19(10) 1_556 .
O4 Na2 O1 149.13(11) 1_556 1_566
O4 Na2 C13 137.22(11) 1_556 1_566
O4 Na2 C16 24.05(10) 1_556 1_556
O4 Na2 C12 109.71(12) 1_556 .
O1 Na2 Na1 44.83(7) 1_566 2_666
O1 Na2 Na1 40.95(7) 1_566 1_566
O1 Na2 Na4 121.71(8) 1_566 1_556
O1 Na2 O11 116.54(10) 1_566 .
O1 Na2 C13 21.86(9) 1_566 1_566
O1 Na2 C16 132.78(11) 1_566 1_556
O1 Na2 C12 100.60(11) 1_566 .
O3 Na2 Na1 127.43(9) 1_566 1_566
O3 Na2 Na1 92.23(9) 1_566 2_666
O3 Na2 Na4 40.88(8) 1_566 1_556
O3 Na2 O2 139.44(12) 1_566 1_556
O3 Na2 O11 138.77(11) 1_566 .
O3 Na2 O4 81.29(11) 1_566 1_556
O3 Na2 O1 87.18(11) 1_566 1_566
O3 Na2 C13 65.36(10) 1_566 1_566
O3 Na2 C16 96.71(10) 1_566 1_556
O3 Na2 C12 123.06(12) 1_566 .
C13 Na2 Na1 62.69(8) 1_566 1_566
C13 Na2 Na1 49.86(7) 1_566 2_666
C13 Na2 Na4 101.74(8) 1_566 1_556
C16 Na2 Na1 170.66(9) 1_556 2_666
C16 Na2 Na1 112.16(9) 1_556 1_566
C16 Na2 Na4 57.70(8) 1_556 1_556
C16 Na2 C13 132.52(11) 1_556 1_566
C12 Na2 Na1 60.90(9) . 2_666
C12 Na2 Na1 83.36(8) . 1_566
C12 Na2 Na4 126.72(9) . 1_556
C12 Na2 C13 110.74(11) . 1_566
C12 Na2 C16 115.50(12) . 1_556
Na1 Na3 Na2 55.56(4) 2_656 1_545
Na1 Na3 Na3 133.82(5) 2_656 2_547
Na1 Na3 Na3 128.93(5) 2_656 2_557
Na1 Na3 H10B 99.4 2_656 .
Na2 Na3 Na3 123.58(6) 1_545 2_557
Na2 Na3 Na3 78.94(4) 1_545 2_547
Na2 Na3 H10B 79.1 1_545 .
Na3 Na3 Na3 80.77(5) 2_547 2_557
Na3 Na3 H10B 77.0 2_547 .
Na3 Na3 H10B 45.1 2_557 .
O11 Na3 Na1 40.84(8) . 2_656
O11 Na3 Na2 88.54(8) . 1_545
O11 Na3 Na3 158.55(10) . 2_547
O11 Na3 Na3 92.07(7) . 2_557
O11 Na3 O10 167.04(11) . 2_547
O11 Na3 H10B 83.6 . .
O11 Na3 C12 98.36(11) . 1_545
O12 Na3 Na1 39.80(8) 1_545 2_656
O12 Na3 Na2 32.21(7) 1_545 1_545
O12 Na3 Na3 154.03(10) 1_545 2_557
O12 Na3 Na3 97.01(8) 1_545 2_547
O12 Na3 O11 80.60(10) 1_545 .
O12 Na3 O10 91.53(11) 1_545 2_547
O12 Na3 O10 122.75(12) 1_545 .
O12 Na3 H10B 109.0 1_545 .
O12 Na3 C12 22.22(10) 1_545 1_545
O10 Na3 Na1 130.21(9) 2_547 2_656
O10 Na3 Na1 118.95(9) . 2_656
O10 Na3 Na2 90.22(8) 2_547 1_545
O10 Na3 Na2 90.73(8) . 1_545
O10 Na3 Na3 32.26(6) 2_547 2_547
O10 Na3 Na3 99.35(9) 2_547 2_557
O10 Na3 Na3 63.69(9) . 2_547
O10 Na3 Na3 33.70(8) . 2_557
O10 Na3 O11 99.51(11) . .
O10 Na3 O10 93.40(9) . 2_547
O10 Na3 H10B 19.5 . .
O10 Na3 H10B 108.8 2_547 .
O10 Na3 C12 71.81(10) 2_547 1_545
O10 Na3 C12 132.03(11) . 1_545
O9 Na3 Na1 106.59(9) . 2_656
O9 Na3 Na2 155.11(10) . 1_545
O9 Na3 Na3 80.73(9) . 2_557
O9 Na3 Na3 113.38(10) . 2_547
O9 Na3 O11 85.03(11) . .
O9 Na3 O12 122.91(12) . 1_545
O9 Na3 O10 114.03(12) . .
O9 Na3 O10 90.74(12) . 2_547
O9 Na3 H10B 123.8 . .
O9 Na3 C12 111.59(11) . 1_545
C12 Na3 Na1 58.39(8) 1_545 2_656
C12 Na3 Na2 45.72(7) 1_545 1_545
C12 Na3 Na3 85.37(7) 1_545 2_547
C12 Na3 Na3 164.40(9) 1_545 2_557
C12 Na3 H10B 124.4 1_545 .
O4 Na4 Na2 42.14(8) . 1_554
O4 Na4 O6 92.27(11) . .
O4 Na4 O3 84.19(11) . 1_565
O4 Na4 O9 93.54(11) . 2_556
O4 Na4 O8 145.52(13) . 2_556
O4 Na4 O5 92.27(12) . .
O4 Na4 C9 119.06(13) . 2_556
O6 Na4 Na2 86.82(8) . 1_554
O6 Na4 C9 147.52(12) . 2_556
O3 Na4 Na2 42.08(8) 1_565 1_554
O3 Na4 O6 84.90(11) 1_565 .
O3 Na4 O9 93.54(12) 1_565 2_556
O3 Na4 O8 106.88(12) 1_565 2_556
O3 Na4 O5 166.64(14) 1_565 .
O3 Na4 C9 105.32(13) 1_565 2_556
O9 Na4 Na2 96.05(8) 2_556 1_554
O9 Na4 O6 173.80(12) 2_556 .
O9 Na4 C9 27.61(11) 2_556 2_556
O8 Na4 Na2 139.68(10) 2_556 1_554
O8 Na4 O6 120.71(11) 2_556 .
O8 Na4 O9 54.04(10) 2_556 2_556
O8 Na4 C9 26.97(12) 2_556 2_556
O5 Na4 Na2 132.64(11) . 1_554
O5 Na4 O6 82.37(12) . .
O5 Na4 O9 99.55(13) . 2_556
O5 Na4 O8 83.25(13) . 2_556
O5 Na4 C9 87.68(14) . 2_556
C9 Na4 Na2 121.59(10) 2_556 1_554
Na1 O2 Na1 88.93(9) 1_565 2_655
Na2 O2 Na1 99.17(11) 1_554 2_655
Na2 O2 Na1 92.95(11) 1_554 1_565
C13 O2 Na1 134.5(2) . 1_565
C13 O2 Na1 88.5(2) . 2_655
C13 O2 Na2 132.2(2) . 1_554
Na1 O11 Na2 96.19(10) 2_656 .
Na3 O11 Na1 98.48(11) . 2_656
Na3 O11 Na2 120.02(11) . .
C12 O11 Na1 123.9(2) . 2_656
C12 O11 Na2 83.8(2) . .
C12 O11 Na3 129.8(2) . .
Na2 O12 Na1 97.80(11) . 2_666
Na3 O12 Na1 101.00(11) 1_565 2_666
Na3 O12 Na2 115.87(12) 1_565 .
C12 O12 Na1 128.1(2) . 2_666
C12 O12 Na2 99.8(2) . .
C12 O12 Na3 113.9(2) . 1_565
Na4 O4 Na2 97.42(12) . 1_554
C16 O4 Na2 105.9(2) . 1_554
C16 O4 Na4 123.0(2) . .
Na1 O1 Na1 93.72(10) . 2_655
Na1 O1 Na2 94.51(11) . 1_544
Na2 O1 Na1 91.23(11) 1_544 2_655
C13 O1 Na1 92.3(2) . 2_655
C13 O1 Na1 153.2(3) . .
C13 O1 Na2 111.5(2) . 1_544
C1 O6 Na4 110.9(3) . .
Na3 O10 Na3 114.04(12) . 2_557
Na3 O10 H10A 130.8 2_557 .
Na3 O10 H10A 104.2 . .
Na3 O10 H10B 111.8 2_557 .
Na3 O10 H10B 92.3 . .
H10A O10 H10B 95.9 . .
Na4 O3 Na2 97.03(12) 1_545 1_544
C16 O3 Na2 135.8(3) . 1_544
C16 O3 Na4 126.6(3) . 1_545
Na3 O9 Na4 131.16(14) . 2_546
C9 O9 Na3 136.5(3) . .
C9 O9 Na4 87.0(2) . 2_546
C9 O8 Na4 92.4(3) . 2_546
C1 N2 H2 119.5 . .
C1 N2 C15 121.1(3) . .
C15 N2 H2 119.5 . .
C8 N1 H1 118.9 . .
C8 N1 C10 122.2(3) . .
C10 N1 H1 118.9 . .
Na4 O5 H5 123.2 . .
C17 O5 Na4 123.5(4) . .
C17 O5 H5 102.2 . .
Na1 C13 Na2 72.36(9) 2_655 1_544
O2 C13 Na1 65.07(19) . 2_655
O2 C13 Na2 126.4(2) . 1_544
O2 C13 C14 117.5(3) . .
O1 C13 Na1 61.43(19) . 2_655
O1 C13 Na2 46.68(19) . 1_544
O1 C13 O2 124.2(3) . .
O1 C13 C14 118.2(3) . .
C14 C13 Na1 162.0(3) . 2_655
C14 C13 Na2 94.4(2) . 1_544
O4 C16 Na2 50.02(19) . 1_554
O4 C16 C15 116.2(3) . .
O3 C16 Na2 135.1(3) . 1_554
O3 C16 O4 126.0(4) . .
O3 C16 C15 117.8(3) . .
C15 C16 Na2 84.8(2) . 1_554
Na2 C12 Na3 83.85(10) . 1_565
O11 C12 Na2 70.3(2) . .
O11 C12 Na3 130.9(2) . 1_565
O11 C12 O12 124.0(3) . .
O11 C12 C11 121.1(3) . .
O12 C12 Na2 54.14(18) . .
O12 C12 Na3 43.87(18) . 1_565
O12 C12 C11 114.9(3) . .
C11 C12 Na2 166.1(3) . .
C11 C12 Na3 92.6(2) . 1_565
O7 C8 N1 123.4(4) . .
O7 C8 C5A 120.4(4) . .
O7 C8 C5B 120.4(4) . .
N1 C8 C5A 116.2(4) . .
N1 C8 C5B 116.2(4) . .
C13 C14 H14A 109.9 . .
C13 C14 H14B 109.9 . .
H14A C14 H14B 108.3 . .
C15 C14 C13 108.8(3) . .
C15 C14 H14A 109.9 . .
C15 C14 H14B 109.9 . .
O6 C1 N2 123.2(4) . .
O6 C1 C2A 120.0(4) . .
O6 C1 C2B 120.0(4) . .
N2 C1 C2A 116.8(4) . .
N2 C1 C2B 116.8(4) . .
N2 C15 C16 110.3(3) . .
N2 C15 C14 111.2(3) . .
N2 C15 H15 108.3 . .
C16 C15 H15 108.3 . .
C14 C15 C16 110.4(3) . .
C14 C15 H15 108.3 . .
N1 C10 H10 109.2 . .
N1 C10 C11 109.6(3) . .
N1 C10 C9 111.5(3) . .
C11 C10 H10 109.2 . .
C11 C10 C9 108.1(3) . .
C9 C10 H10 109.2 . .
C12 C11 C10 117.0(3) . .
C12 C11 H11A 108.0 . .
C12 C11 H11B 108.0 . .
C10 C11 H11A 108.0 . .
C10 C11 H11B 108.0 . .
H11A C11 H11B 107.3 . .
C3A C2A C1 124.1(4) . .
C3A C2A C7A 119.3(4) . .
C7A C2A C1 116.5(4) . .
C2A C3A H3A 120.0 . .
C4A C3A C2A 120.0(4) . .
C4A C3A H3A 120.0 . .
C3A C4A H4A 119.5 . .
C5A C4A C3A 121.1(4) . .
C5A C4A H4A 119.5 . .
C4A C5A C8 119.5(4) . .
C4A C5A C6A 119.2(4) . .
C6A C5A C8 121.3(4) . .
C5A C6A H6A 120.1 . .
C7A C6A C5A 119.9(4) . .
C7A C6A H6A 120.1 . .
C2A C7A H7A 119.8 . .
C6A C7A C2A 120.4(4) . .
C6A C7A H7A 119.8 . .
C3B C2B C1 119.1(8) . .
C7B C2B C1 121.1(8) . .
C7B C2B C3B 119.6(11) . .
C2B C3B H3B 120.1 . .
C4B C3B C2B 119.8(12) . .
C4B C3B H3B 120.1 . .
C3B C4B H4B 119.9 . .
C3B C4B C5B 120.2(12) . .
C5B C4B H4B 119.9 . .
C4B C5B C8 115.8(8) . .
C6B C5B C8 124.2(8) . .
C6B C5B C4B 120.0(11) . .
C5B C6B H6B 120.1 . .
C5B C6B C7B 119.7(12) . .
C7B C6B H6B 120.1 . .
C2B C7B C6B 120.6(12) . .
C2B C7B H7B 119.7 . .
C6B C7B H7B 119.7 . .
O9 C9 Na4 65.4(2) . 2_546
O9 C9 C10 116.3(4) . .
O8 C9 Na4 60.7(2) . 2_546
O8 C9 O9 124.1(4) . .
O8 C9 C10 119.6(4) . .
C10 C9 Na4 168.1(3) . 2_546
O5 C17 H17A 109.5 . .
O5 C17 H17B 109.5 . .
O5 C17 H17C 109.5 . .
H17A C17 H17B 109.5 . .
H17A C17 H17C 109.5 . .
H17B C17 H17C 109.5 . .
loop_
_geom_bond_atom_site_label_1
_geom_bond_atom_site_label_2
_geom_bond_distance
_geom_bond_site_symmetry_2
Na1 Na1 3.4831(19) 2_645
Na1 Na1 3.4831(19) 2_655
Na1 Na2 3.476(2) 1_544
Na1 Na2 3.524(2) 2_636
Na1 Na3 3.594(2) 2_646
Na1 O2 2.564(3) 2_645
Na1 O2 2.406(3) 1_545
Na1 O11 2.376(3) 2_646
Na1 O12 2.344(3) 2_636
Na1 O1 2.485(3) 2_645
Na1 O1 2.285(3) .
Na1 C13 2.827(4) 2_645
Na2 Na1 3.524(2) 2_666
Na2 Na1 3.476(2) 1_566
Na2 Na4 3.526(2) 1_556
Na2 O2 2.388(3) 1_556
Na2 O11 2.685(3) .
Na2 O12 2.332(3) .
Na2 O4 2.386(3) 1_556
Na2 O1 2.446(3) 1_566
Na2 O3 2.381(3) 1_566
Na2 C13 3.128(4) 1_566
Na2 C16 2.994(4) 1_556
Na2 C12 2.836(4) .
Na3 Na1 3.594(2) 2_656
Na3 Na2 3.938(2) 1_545
Na3 Na3 4.036(2) 2_557
Na3 Na3 4.036(2) 2_547
Na3 O11 2.369(3) .
Na3 O12 2.314(3) 1_545
Na3 O10 2.452(3) 2_547
Na3 O10 2.359(3) .
Na3 H10B 2.5390 .
Na3 O9 2.275(3) .
Na3 C12 3.053(4) 1_545
Na4 Na2 3.526(2) 1_554
Na4 O4 2.307(3) .
Na4 O6 2.574(3) .
Na4 O3 2.325(3) 1_565
Na4 O9 2.498(3) 2_556
Na4 O8 2.394(4) 2_556
Na4 O5 2.374(4) .
Na4 C9 2.744(5) 2_556
O2 Na1 2.564(3) 2_655
O2 Na1 2.406(3) 1_565
O2 Na2 2.388(3) 1_554
O2 C13 1.258(5) .
O11 Na1 2.376(3) 2_656
O11 C12 1.247(5) .
O12 Na1 2.344(3) 2_666
O12 Na3 2.314(3) 1_565
O12 C12 1.263(5) .
O4 Na2 2.386(3) 1_554
O4 C16 1.269(5) .
O1 Na1 2.485(3) 2_655
O1 Na2 2.446(3) 1_544
O1 C13 1.251(5) .
O6 C1 1.242(5) .
O10 Na3 2.452(3) 2_557
O10 H10A 0.8500 .
O10 H10B 0.8500 .
O3 Na2 2.381(3) 1_544
O3 Na4 2.326(3) 1_545
O3 C16 1.243(5) .
O9 Na4 2.498(3) 2_546
O9 C9 1.273(5) .
O7 C8 1.239(5) .
O8 Na4 2.394(4) 2_546
O8 C9 1.245(5) .
N2 H2 0.8800 .
N2 C1 1.341(5) .
N2 C15 1.464(5) .
N1 H1 0.8800 .
N1 C8 1.338(5) .
N1 C10 1.464(5) .
O5 H5 0.8501 .
O5 C17 1.444(6) .
C13 Na1 2.827(4) 2_655
C13 Na2 3.128(4) 1_544
C13 C14 1.538(5) .
C16 Na2 2.994(4) 1_554
C16 C15 1.547(5) .
C12 Na3 3.053(4) 1_565
C12 C11 1.525(5) .
C8 C5A 1.499(5) .
C8 C5B 1.499(5) .
C14 H14A 0.9900 .
C14 H14B 0.9900 .
C14 C15 1.524(5) .
C1 C2A 1.503(5) .
C1 C2B 1.503(5) .
C15 H15 1.0000 .
C10 H10 1.0000 .
C10 C11 1.528(5) .
C10 C9 1.543(6) .
C11 H11A 0.9900 .
C11 H11B 0.9900 .
C2A C3A 1.390(6) .
C2A C7A 1.400(6) .
C3A H3A 0.9500 .
C3A C4A 1.389(6) .
C4A H4A 0.9500 .
C4A C5A 1.385(6) .
C5A C6A 1.402(6) .
C6A H6A 0.9500 .
C6A C7A 1.391(6) .
C7A H7A 0.9500 .
C2B C3B 1.402(12) .
C2B C7B 1.395(12) .
C3B H3B 0.9500 .
C3B C4B 1.397(14) .
C4B H4B 0.9500 .
C4B C5B 1.401(12) .
C5B C6B 1.393(12) .
C6B H6B 0.9500 .
C6B C7B 1.397(14) .
C7B H7B 0.9500 .
C9 Na4 2.744(5) 2_546
C17 H17A 0.9800 .
C17 H17B 0.9800 .
C17 H17C 0.9800 .
loop_
_geom_torsion_atom_site_label_1
_geom_torsion_atom_site_label_2
_geom_torsion_atom_site_label_3
_geom_torsion_atom_site_label_4
_geom_torsion
_geom_torsion_site_symmetry_1
_geom_torsion_site_symmetry_4
Na1 O2 C13 Na1 -87.1(3) 1_565 2_655
Na1 O2 C13 Na2 -40.6(2) 2_655 1_544
Na1 O2 C13 Na2 -127.7(3) 1_565 1_544
Na1 O2 C13 O1 -69.6(5) 1_565 .
Na1 O2 C13 O1 17.4(4) 2_655 .
Na1 O2 C13 C14 -160.1(3) 2_655 .
Na1 O2 C13 C14 112.8(3) 1_565 .
Na1 O11 C12 Na2 -93.3(2) 2_656 .
Na1 O11 C12 Na3 -155.85(17) 2_656 1_565
Na1 O11 C12 O12 -100.3(4) 2_656 .
Na1 O11 C12 C11 77.8(4) 2_656 .
Na1 O12 C12 Na2 108.1(3) 2_666 .
Na1 O12 C12 Na3 -127.8(3) 2_666 1_565
Na1 O12 C12 O11 116.3(3) 2_666 .
Na1 O12 C12 C11 -62.0(4) 2_666 .
Na1 O1 C13 Na1 102.9(5) . 2_655
Na1 O1 C13 Na2 -164.8(6) . 1_544
Na1 O1 C13 Na2 92.24(17) 2_655 1_544
Na1 O1 C13 O2 84.9(6) . .
Na1 O1 C13 O2 -18.0(4) 2_655 .
Na1 O1 C13 C14 -97.5(6) . .
Na1 O1 C13 C14 159.5(3) 2_655 .
Na1 C13 C14 C15 -48.1(10) 2_655 .
Na2 O2 C13 Na1 101.1(3) 1_554 2_655
Na2 O2 C13 Na2 60.4(4) 1_554 1_544
Na2 O2 C13 O1 118.5(4) 1_554 .
Na2 O2 C13 C14 -59.1(5) 1_554 .
Na2 O11 C12 Na3 -62.5(3) . 1_565
Na2 O11 C12 O12 -7.0(3) . .
Na2 O11 C12 C11 171.2(3) . .
Na2 O12 C12 Na3 124.1(2) . 1_565
Na2 O12 C12 O11 8.2(4) . .
Na2 O12 C12 C11 -170.1(3) . .
Na2 O4 C16 O3 -122.2(4) 1_554 .
Na2 O4 C16 C15 57.0(3) 1_554 .
Na2 O1 C13 Na1 -92.24(17) 1_544 2_655
Na2 O1 C13 O2 -110.2(4) 1_544 .
Na2 O1 C13 C14 67.3(4) 1_544 .
Na2 O3 C16 Na2 37.6(6) 1_544 1_554
Na2 O3 C16 O4 104.3(5) 1_544 .
Na2 O3 C16 C15 -74.9(4) 1_544 .
Na2 C13 C14 C15 -89.8(3) 1_544 .
Na2 C16 C15 N2 139.4(3) 1_554 .
Na2 C16 C15 C14 -97.4(3) 1_554 .
Na2 C12 C11 C10 148.7(9) . .
Na3 O11 C12 Na2 124.4(3) . .
Na3 O11 C12 Na3 61.9(4) . 1_565
Na3 O11 C12 O12 117.4(4) . .
Na3 O11 C12 C11 -64.4(4) . .
Na3 O12 C12 Na2 -124.1(2) 1_565 .
Na3 O12 C12 O11 -116.0(3) 1_565 .
Na3 O12 C12 C11 65.7(3) 1_565 .
Na3 O9 C9 Na4 154.3(4) . 2_546
Na3 O9 C9 O8 170.7(3) . .
Na3 O9 C9 C10 -12.6(6) . .
Na3 C12 C11 C10 -136.8(3) 1_565 .
Na4 O4 C16 Na2 -110.2(3) . 1_554
Na4 O4 C16 O3 127.6(4) . .
Na4 O4 C16 C15 -53.2(4) . .
Na4 O6 C1 N2 69.6(5) . .
Na4 O6 C1 C2A -110.9(4) . .
Na4 O6 C1 C2B -110.9(4) . .
Na4 O3 C16 Na2 -153.6(2) 1_545 1_554
Na4 O3 C16 O4 -86.9(4) 1_545 .
Na4 O3 C16 C15 93.9(4) 1_545 .
Na4 O9 C9 O8 16.3(4) 2_546 .
Na4 O9 C9 C10 -166.9(3) 2_546 .
Na4 O8 C9 O9 -17.0(5) 2_546 .
Na4 O8 C9 C10 166.3(3) 2_546 .
O2 C13 C14 C15 45.6(5) . .
O11 C12 C11 C10 5.6(5) . .
O12 C12 C11 C10 -176.0(3) . .
O4 C16 C15 N2 99.2(4) . .
O4 C16 C15 C14 -137.6(3) . .
O1 C13 C14 C15 -132.1(4) . .
O6 C1 C2A C3A -156.3(4) . .
O6 C1 C2A C7A 24.0(6) . .
O6 C1 C2B C3B 134.5(12) . .
O6 C1 C2B C7B -40.4(13) . .
O3 C16 C15 N2 -81.6(4) . .
O3 C16 C15 C14 41.7(5) . .
O7 C8 C5A C4A -24.9(7) . .
O7 C8 C5A C6A 152.7(5) . .
O7 C8 C5B C4B 41.2(13) . .
O7 C8 C5B C6B -139.4(14) . .
N2 C1 C2A C3A 23.1(6) . .
N2 C1 C2A C7A -156.6(4) . .
N2 C1 C2B C3B -46.0(13) . .
N2 C1 C2B C7B 139.0(13) . .
N1 C8 C5A C4A 156.0(4) . .
N1 C8 C5A C6A -26.3(6) . .
N1 C8 C5B C4B -137.9(12) . .
N1 C8 C5B C6B 41.6(14) . .
N1 C10 C11 C12 -151.3(3) . .
N1 C10 C9 Na4 67.9(15) . 2_546
N1 C10 C9 O9 163.1(4) . .
N1 C10 C9 O8 -20.0(6) . .
C13 C14 C15 N2 173.4(3) . .
C13 C14 C15 C16 50.7(4) . .
C8 N1 C10 C11 153.4(4) . .
C8 N1 C10 C9 -87.1(5) . .
C8 C5A C6A C7A -175.4(4) . .
C8 C5B C6B C7B -179.5(7) . .
C1 N2 C15 C16 -97.0(4) . .
C1 N2 C15 C14 140.2(4) . .
C1 C2A C3A C4A -177.3(4) . .
C1 C2A C7A C6A 177.0(4) . .
C1 C2B C3B C4B -174.9(4) . .
C1 C2B C7B C6B 174.8(7) . .
C15 N2 C1 O6 -0.2(6) . .
C15 N2 C1 C2A -179.6(3) . .
C15 N2 C1 C2B -179.6(3) . .
C10 N1 C8 O7 -5.8(7) . .
C10 N1 C8 C5A 173.2(4) . .
C10 N1 C8 C5B 173.2(4) . .
C11 C10 C9 Na4 -171.7(12) . 2_546
C11 C10 C9 O9 -76.5(5) . .
C11 C10 C9 O8 100.4(4) . .
C2A C3A C4A C5A 0.2(7) . .
C3A C2A C7A C6A -2.7(7) . .
C3A C4A C5A C8 175.1(4) . .
C3A C4A C5A C6A -2.6(7) . .
C4A C5A C6A C7A 2.2(7) . .
C5A C6A C7A C2A 0.4(7) . .
C7A C2A C3A C4A 2.4(7) . .
C2B C3B C4B C5B 0.0(4) . .
C3B C2B C7B C6B -0.2(9) . .
C3B C4B C5B C8 179.5(4) . .
C3B C4B C5B C6B 0.0(9) . .
C4B C5B C6B C7B -0.1(12) . .
C5B C6B C7B C2B 0.2(12) . .
C7B C2B C3B C4B 0.1(4) . .
C9 C10 C11 C12 87.1(4) . .
