#------------------------------------------------------------------------------
#$Date: 2016-02-13 21:28:24 +0200 (Sat, 13 Feb 2016) $
#$Revision: 176429 $
#$URL: svn://www.crystallography.net/cod/cif/7/11/81/7118156.cif $
#------------------------------------------------------------------------------
#
# This file is available in the Crystallography Open Database (COD),
# http://www.crystallography.net/
#
# All data on this site have been placed in the public domain by the
# contributors.
#
data_7118156
loop_
_publ_author_name
'Alexandr V. Vinogradov'
'Haldor Zaake-Hertling'
'Andrey S. Drozdov'
'Peter Lonnecke'
'Gulaim A. Seisenbaeva'
'Vadim G. Kessler'
'Vladimir V. Vinogradov'
'Evamarie Hey-Hawkins'
_publ_section_title
;
 Anomalous adsorption of biomolecules on a Zn-based metal-organic
 framework obtained via a facile room-temperature route
;
_journal_name_full               Chem.Commun.
_journal_page_first              17764
_journal_paper_doi               10.1039/C5cc07808C
_journal_volume                  51
_journal_year                    2015
_chemical_formula_sum            'C61.5 H64.5 N3.5 O13.5 Zn2'
_chemical_formula_weight         1199.40
_chemical_name_systematic
;
 ?
;
_space_group_crystal_system      tetragonal
_space_group_IT_number           82
_space_group_name_Hall           'I -4'
_space_group_name_H-M_alt        'I -4'
_symmetry_space_group_name_Hall  'I -4'
_symmetry_space_group_name_H-M   'I -4'
_atom_sites_solution_hydrogens   geom
_audit_creation_method           SHELXL-2013
_audit_update_record
;
2015-06-29 deposited with the CCDC.
2015-10-16 downloaded from the CCDC.
;
_cell_angle_alpha                90
_cell_angle_beta                 90
_cell_angle_gamma                90
_cell_formula_units_Z            2
_cell_length_a                   15.6925(3)
_cell_length_b                   15.6925(3)
_cell_length_c                   19.1379(9)
_cell_measurement_reflns_used    3552
_cell_measurement_temperature    130(2)
_cell_measurement_theta_max      21.6360
_cell_measurement_theta_min      3.0830
_cell_volume                     4712.8(3)
_computing_cell_refinement
;
CrysAlisPro, Agilent Technologies,
Version 1.171.37.33a (release 28-03-2014 CrysAlis171 .NET)
(compiled Mar 28 2014,12:25:20)
;
_computing_data_collection
;
CrysAlisPro, Agilent Technologies,
Version 1.171.37.33a (release 28-03-2014 CrysAlis171 .NET)
(compiled Mar 28 2014,12:25:20)
;
_computing_data_reduction
;
CrysAlisPro, Agilent Technologies,
Version 1.171.37.33a (release 28-03-2014 CrysAlis171 .NET)
(compiled Mar 28 2014,12:25:20)
;
_computing_molecular_graphics
;
 ORTEP3 for Windows
 L. J. Farrugia, J. Appl. Crystallogr. 1997, 30, 565.
;
_computing_publication_material
;
 WINGX
 L.J. Farrugia,
 J. Appl. Cryst., 2012, 45, 849-854.
;
_computing_structure_refinement  'SHELXL-2013 (Sheldrick, 2013)'
_computing_structure_solution
;
 SHELXS-2013
 Program for Crystal Structure Analysis (Release 2013-1)
 G. M. Sheldrick, Instit\"ut f\"ur Anorganische Chemie der Universit\"at,
 Tammanstrasse 4, D-3400 G\"ottingen, Germany.
 G. M. Sheldrick, Acta. Cryst., 2008, A64, 112 - 122 
;
_diffrn_ambient_environment      N~2~
_diffrn_ambient_temperature      130(2)
_diffrn_detector                 'CCD plate'
_diffrn_detector_area_resol_mean 16.3560
_diffrn_detector_type            Sapphire3
_diffrn_measured_fraction_theta_full 0.980
_diffrn_measured_fraction_theta_max 0.998
_diffrn_measurement_device       'four-circle diffractometer'
_diffrn_measurement_device_type  'Xcalibur, Sapphire3, Gemini'
_diffrn_measurement_method       \w-scans
_diffrn_radiation_monochromator  graphite
_diffrn_radiation_type           MoK\a
_diffrn_radiation_wavelength     0.71073
_diffrn_reflns_av_R_equivalents  0.0627
_diffrn_reflns_av_unetI/netI     0.0649
_diffrn_reflns_Laue_measured_fraction_full 0.980
_diffrn_reflns_Laue_measured_fraction_max 0.998
_diffrn_reflns_limit_h_max       18
_diffrn_reflns_limit_h_min       -18
_diffrn_reflns_limit_k_max       18
_diffrn_reflns_limit_k_min       -18
_diffrn_reflns_limit_l_max       22
_diffrn_reflns_limit_l_min       -22
_diffrn_reflns_number            16639
_diffrn_reflns_point_group_measured_fraction_full 0.980
_diffrn_reflns_point_group_measured_fraction_max 0.998
_diffrn_reflns_theta_full        25.242
_diffrn_reflns_theta_max         25.025
_diffrn_reflns_theta_min         3.092
_diffrn_source                   'Enhance (Mo) X-ray Source'
_exptl_absorpt_coefficient_mu    0.551
_exptl_absorpt_correction_T_max  1.00000
_exptl_absorpt_correction_T_min  0.86956
_exptl_absorpt_correction_type   multi-scan
_exptl_absorpt_process_details
;
CrysAlisPro, Agilent Technologies,
Version 1.171.37.33a (release 28-03-2014 CrysAlis171 .NET)
(compiled Mar 28 2014,12:25:20)
Empirical absorption correction using spherical harmonics,
 implemented in SCALE3 ABSPACK scaling algorithm.
Empirical absorption correction using spherical harmonics,
 implemented in SCALE3 ABSPACK scaling algorithm.
;
_exptl_crystal_colour            'fluorescent pale yellow'
_exptl_crystal_density_diffrn    0.845
_exptl_crystal_description       prism
_exptl_crystal_F_000             1252
_exptl_crystal_size_max          0.20
_exptl_crystal_size_mid          0.15
_exptl_crystal_size_min          0.10
_refine_diff_density_max         0.568
_refine_diff_density_min         -0.227
_refine_diff_density_rms         0.075
_refine_ls_abs_structure_details
;
 Refined as an inversion twin.
;
_refine_ls_abs_structure_Flack   0.51(5)
_refine_ls_extinction_coef       .
_refine_ls_extinction_method     none
_refine_ls_goodness_of_fit_ref   1.016
_refine_ls_hydrogen_treatment    constr
_refine_ls_matrix_type           full
_refine_ls_number_parameters     122
_refine_ls_number_reflns         4162
_refine_ls_number_restraints     128
_refine_ls_restrained_S_all      1.020
_refine_ls_R_factor_all          0.0859
_refine_ls_R_factor_gt           0.0592
_refine_ls_shift/su_max          0.000
_refine_ls_shift/su_mean         0.000
_refine_ls_structure_factor_coef Fsqd
_refine_ls_weighting_details
'w=1/[\s^2^(Fo^2^)+(0.0998P)^2^] where P=(Fo^2^+2Fc^2^)/3'
_refine_ls_weighting_scheme      calc
_refine_ls_wR_factor_gt          0.1447
_refine_ls_wR_factor_ref         0.1603
_reflns_Friedel_coverage         0.932
_reflns_Friedel_fraction_full    0.980
_reflns_Friedel_fraction_max     0.999
_reflns_number_gt                3053
_reflns_number_total             4162
_reflns_threshold_expression     'I > 2\s(I)'
_cod_data_source_file            c5cc07808c2.cif
_cod_data_source_block           x1855sqfin
_cod_original_formula_sum        'C61.50 H64.50 N3.50 O13.50 Zn2'
_cod_database_code               7118156
#BEGIN Tags that were not found in dictionaries:
_shelx_space_group_comment
;
The symmetry employed for this shelxl refinement is uniquely defined
by the following loop, which should always be used as a source of
symmetry information in preference to the above space-group names.
They are only intended as comments.
;
_shelxl_version_number           2013-4
_shelx_res_file
;
TITL x1855fin in I-4
CELL  0.71073  15.6925  15.6925  19.1379   90.000   90.000   90.000
ZERR     2.00   0.0003   0.0003   0.0009    0.000    0.000    0.000
LATT  -2
SYMM  - X, - Y,   Z
SYMM    Y, - X, - Z
SYMM  - Y,   X, - Z
SFAC  ZN   O    N    C    H
UNIT  4    27   7    123  129
MERG   2
ABIN
TWIN
SHEL  0.84  100
EADP O1,O3
EADP O2,O4
SADI C1,O1 C1,O2 C22,O3 C22,O4
FLAT C2,C4,C6,C3,C5,C7,C1,C8
FLAT C17,C19,C21,C16,C18,C20,C22,C10
FLAT C8,C10,C12,C9,C11,C13,C14,C15,C16
SADI C2,C3 C3,C4 C4,C5 C5,C6 C6,C7 C7,C2
SADI C2,C4 C3,C5 C4,C6 C5,C7 C6,C2 C7,C3
SADI C2,C5 C3,C6 C4,C7
SADI C16,C17 C17,C18 C18,C19 C19,C20 C20,C21 C21,C16
SADI C16,C18 C17,C19 C18,C20 C19,C21 C20,C16 C21,C17
SADI C16,C19 C17,C20 C18,C21
SADI C8,C9 C9,C10 C10,C11 C11,C12 C12,C13 C13,C8
SADI C8,C10 C9,C11 C10,C12 C11,C13 C12,C8 C13,C9
SADI C8,C11 C9,C12 C10,C13
EADP C1,C22
EADP C11,C13
SADI C1,C2 C19,C22
SADI 0.01 C1,C3 C1,C7 C22,C18 C22,C20
EQIV $1 Y, -X,-Z
EQIV $2 -Y,X,-Z
FREE C3,C18_$1
FREE C3,C19_$1
FREE C4,C17_$1
FREE C6,C16_$1
FREE C6,C21_$1
FREE C7,C20_$1
FREE C7,C19_$1
FREE C9,C14_$2
FREE C9,C15_$2
FREE C14,C9_$1
FREE C14,C10_$1
FREE C14,C11_$1
FREE C15,C8_$1
FREE C15,C9_$1
FREE C15,C13_$1
FREE C17,C4_$2
FREE C17,C5_$2
FREE C18,C2_$2
FREE C18,C3_$2
FREE C20,C7_$2
FREE C21,C6_$2
FMAP   2
PLAN    5
ACTA
L.S.  10    0   57
TEMP  -143.00
WGHT    0.099800
BASF   0.51019
FVAR       0.16982
ZN1   1    0.500000    0.500000    0.075496    10.50000    0.02559    0.02658 =
         0.06012    0.00000    0.00000   -0.00120
O1    2    0.397260    0.420715    0.053888    10.50000    0.03724    0.04268 =
         0.08746    0.01358    0.00320    0.00897
O2    2    0.424008    0.399225   -0.059015    10.50000    0.03635    0.02335 =
         0.07183   -0.00640   -0.01059    0.00686
O3    2   -0.396052    0.422701   -0.056368    10.50000    0.03724    0.04268 =
         0.08746    0.01358    0.00320    0.00897
O4    2   -0.424096    0.397902    0.057516    10.50000    0.03635    0.02335 =
         0.07183   -0.00640   -0.01059    0.00686
O5    2    0.500000    0.500000    0.176687    10.50000    0.08684    0.11783 =
         0.06536    0.00000    0.00000    0.03084
AFIX  33
H1O5  5    0.460374    0.543549    0.193756    10.33333   -1.50000
H2O5  5    0.557527    0.512542    0.193756    10.33333   -1.50000
H3O5  5    0.482098    0.443909    0.193756    10.33333   -1.50000
AFIX   0
C1    4    0.378968    0.391964   -0.006952    10.50000    0.04900
C2    4    0.301417    0.335401   -0.007615    10.50000    0.04208
C3    4    0.248081    0.332724   -0.063298    10.50000    0.06919
AFIX  43
H3    5    0.260368    0.366459   -0.103266    10.50000   -1.20000
AFIX   0
C4    4    0.176796    0.282303   -0.063046    10.50000    0.07360
AFIX  43
H4    5    0.139764    0.282681   -0.102314    10.50000   -1.20000
AFIX   0
C5    4    0.158246    0.231540   -0.007165    10.50000    0.04447
C6    4    0.212752    0.233403    0.050294    10.50000    0.05799
AFIX  43
H6    5    0.201402    0.198288    0.089645    10.50000   -1.20000
AFIX   0
C7    4    0.282567    0.285639    0.050227    10.50000    0.06721
AFIX  43
H7    5    0.318446    0.287833    0.090168    10.50000   -1.20000
AFIX   0
C8    4    0.078291    0.179834   -0.011347    10.50000    0.03480
C9    4    0.000186    0.223462   -0.013282    10.50000    0.03331
AFIX  43
H9    5    0.000168    0.283868   -0.016565    10.50000   -1.20000
AFIX   0
C10   4   -0.077197    0.180245   -0.010501    10.50000    0.03507
C11   4   -0.078907    0.090107   -0.008247    10.50000    0.02651
C12   4   -0.000051    0.045131   -0.008995    10.50000    0.03276
C13   4    0.078558    0.089800   -0.011104    10.50000    0.02651
C14   4    0.157174    0.043799   -0.009595    10.50000    0.04121
AFIX  43
H14   5    0.209537    0.074172   -0.009015    10.50000   -1.20000
AFIX   0
C15   4    0.158011   -0.043477   -0.008973    10.50000    0.03892
AFIX  43
H15   5    0.210717   -0.073258   -0.009019    10.50000   -1.20000
AFIX   0
C16   4   -0.158453    0.231355   -0.007119    10.50000    0.04404
C17   4   -0.211498    0.230799    0.051286    10.50000    0.05214
AFIX  43
H17   5   -0.199362    0.193625    0.089180    10.50000   -1.20000
AFIX   0
C18   4   -0.281478    0.283820    0.054471    10.50000    0.04056
AFIX  43
H18   5   -0.315781    0.285518    0.095349    10.50000   -1.20000
AFIX   0
C19   4   -0.301487    0.335067   -0.003020    10.50000    0.04577
C20   4   -0.249607    0.334351   -0.061324    10.50000    0.07153
AFIX  43
H20   5   -0.263837    0.367951   -0.100934    10.50000   -1.20000
AFIX   0
C21   4   -0.176952    0.284618   -0.061859    10.50000    0.07034
AFIX  43
H21   5   -0.139309    0.287360   -0.100671    10.50000   -1.20000
AFIX   0
C22   4   -0.378863    0.391194    0.001408    10.50000    0.04900
HKLF    4

REM  x1855fin in I-4
REM R1 =  0.0592 for    3053 Fo > 4sig(Fo)  and  0.0859 for all    4162 data
REM    122 parameters refined using    128 restraints

END

WGHT      0.0998      0.0000

REM Highest difference peak  0.568,  deepest hole -0.227,  1-sigma level  0.075
Q1    1   0.5000  0.5000  0.0320  10.50000  0.05    0.55
Q2    1   0.0000  0.0000 -0.0324  10.50000  0.05    0.36
Q3    1  -0.3082  0.3202 -0.0279  11.00000  0.05    0.36
Q4    1  -0.3070  0.3193  0.0272  11.00000  0.05    0.35
Q5    1   0.5069  0.4057  0.2009  11.00000  0.05    0.35
;
_shelx_res_checksum              67277
_shelx_hkl_file
;
   0   0  -4 4056.38   18.68
   0   0  -4 4103.98   18.22
   0   0  -6    3.14    1.80
   0   0   6    4.59    1.84
   0   0   6    1.95    1.81
   0   0  -6    1.95    1.80
   0   0  -8  190.66    6.06
   0   0   8  191.72    5.86
   0   0   8  193.77    6.11
   0   0  -8  194.79    5.95
   0   0 -10   15.00    2.74
   0   0  10   18.49    2.83
   0   0 -10   17.74    2.79
   0   0 -12  298.26    8.99
   0   0 -12  310.87    9.57
   0   0  12  292.59    9.74
   0   0 -14  202.98    8.55
   0   0 -14  192.93    8.10
   0   0 -14  196.24    9.42
   0   0  14  193.29    9.03
   0   0 -16  133.77    7.97
   0   0 -16  133.42    8.64
   0   0  16  124.12    8.42
   0   0 -16  131.06    7.48
   0   0  18   22.57    4.99
   0   0 -18   34.06    4.97
   0   0 -18   20.79    4.21
   0   0 -18   22.25    5.47
   0   0  20   -3.75    3.52
   0   0 -20    1.19    3.74
   0   0 -22    1.05    4.12
   0   0  22   -0.34    3.87
   0   0 -22    4.85    3.89
   0   0 -24    9.15    4.99
   0   1  -3   13.73    1.39
   0   1  -3   15.00    1.48
   1   0  -3   14.73    1.08
   0  -1   3   14.07    1.42
  -1   0  -3   15.70    1.23
  -1   0  -3   14.60    1.48
   0  -1  -3   15.15    1.58
   1   0  -3   16.59    1.58
   0  -1   3   13.14    1.49
   0   1   5 1078.02   10.20
   0   1  -5 1102.56   11.28
   1   0   5 1137.34   10.34
  -1   0  -5 1107.50   10.30
   0   1  -5 1116.16   11.01
   0  -1  -5 1127.29   11.59
   0  -1  -5 1102.84   10.27
   1   0  -5 1096.89   11.88
  -1   0  -5 1101.40   11.57
  -1   0   5 1118.38    9.81
   1   0  -5 1113.67    9.79
   0   1  -7 1100.42   13.14
   0   1  -7 1084.39   12.96
  -1   0   7 1090.19   11.82
   0  -1  -7 1108.21   13.58
  -1   0  -7 1092.39   13.44
   1   0   7 1088.51   12.34
   0   1   7 1075.57   12.18
   1   0  -7 1105.90   11.98
   0  -1  -7 1088.51   12.19
  -1   0  -7 1085.35   12.44
   0   1   7 1120.52   13.43
   0  -1   7 1069.87   13.01
   1   0   7 1091.88   13.39
   1   0  -7 1097.27   13.77
   0   1  -7 1106.62   13.23
   0   1  -9  452.59   10.60
   0   1  -9  452.93    9.75
   1   0   9  442.70    9.75
   1   0  -9  446.93   10.19
   0  -1  -9  445.47    9.09
  -1   0   9  447.66    8.87
   0  -1   9  449.66    9.66
   0   1   9  473.32   10.09
   0  -1  -9  454.58    9.98
   1   0  -9  449.23    8.96
   0   1  -9  446.57    9.81
  -1   0  -9  456.38    9.91
   0   1   9  440.31    9.00
   1   0   9  452.22    9.28
   0   1  -9  452.50    9.74
  -1   0  -9  451.63    9.42
   0  -1  11    8.37    2.63
  -1   0 -11    0.67    2.08
   0  -1 -11    8.68    2.42
   1   0 -11    9.93    2.87
   0  -1 -11    9.18    2.71
   1   0 -11    6.81    2.25
  -1   0  11    9.81    2.38
   0   1 -11    5.50    2.41
   0   1 -11    5.97    2.48
  -1   0 -11   11.73    2.79
   0   1 -11   11.93    3.06
   0   1  11    9.24    2.50
   0  -1  13   11.84    3.14
  -1   0 -13   17.86    3.22
   0   1 -13   15.98    3.64
   0   1 -13   16.53    3.09
  -1   0 -13   18.55    3.83
  -1   0 -13   15.10    3.07
   0  -1 -13   11.15    2.65
   1   0 -13   14.80    2.95
   0   1 -13   17.15    3.38
   0  -1 -13   15.24    3.44
  -1   0  13   17.49    3.60
   1   0 -13   20.27    3.77
   0   1 -15   15.06    4.13
   1   0 -15   11.74    3.08
  -1   0 -15   13.32    4.15
   0   1 -15   16.87    3.78
  -1   0 -15    8.40    3.01
   0   1 -15   16.05    3.88
   0  -1  15   18.83    4.00
   1   0  15   15.70    3.83
   1   0 -15   18.34    4.58
   0  -1 -15   10.89    3.62
   1   0 -15   13.31    3.90
  -1   0 -15   20.09    3.72
  -1   0  15   12.13    3.66
  -1   0 -17    3.88    3.11
  -1   0 -17    0.94    2.94
   0   1 -17   -2.15    3.17
   0  -1 -17   -0.03    3.15
   0   1 -17    1.93    3.49
  -1   0 -17   -6.60    4.38
   1   0  17    8.78    3.64
   0   1  17    4.10    3.24
  -1   0  17    6.27    3.32
   1   0 -17    2.51    3.56
   1   0 -17    1.84    2.83
   1   0 -17    7.31    3.70
   0   1 -17   -3.02    3.27
   0  -1 -17    1.40    3.63
   0  -1  17    2.15    3.17
   0  -1 -19    7.85    4.23
   0   1 -19   15.13    4.65
   1   0 -19    5.47    3.81
  -1   0 -19    1.52    3.55
   1   0 -19    8.82    4.06
  -1   0 -19   17.64    4.28
   0   1 -19    8.41    3.84
   1   0  19    3.18    3.68
   1   0 -19    8.23    3.50
   0  -1  19    3.82    3.57
  -1   0  19    3.75    3.69
   0   1 -19    5.68    3.56
   0  -1 -19    6.17    3.69
   0   1  19   11.68    4.32
   0   1 -21   12.92    4.76
   0  -1 -21   11.90    4.56
   1   0  21    4.18    3.88
   0   1 -21   10.78    4.11
   1   0 -21   13.61    4.78
   0   1 -21    8.17    3.72
  -1   0 -21   14.76    4.72
   0   1  21    5.25    4.14
   1   0 -21   11.88    4.64
   0  -1 -21   13.34    5.24
  -1   0  21    8.10    4.51
  -1   0 -21    9.89    4.69
   0  -1  21    5.74    4.46
   1   0 -23   -8.28    4.71
   0  -1 -23    3.67    3.93
   1   0 -23   -5.02    5.24
   0   1 -23    5.34    4.66
  -1   0 -23    1.36    4.42
   0  -1 -23    5.84    5.25
  -1   0 -23   -2.32    4.10
   0   1  23    0.78    4.13
   1   0  23   -2.76    3.94
   0  -1  23    6.89    4.94
   0   1 -23    2.32    3.96
   0   1 -25    7.12    5.08
  -1  -1 -24    8.81    4.89
   1   1 -24    5.21    4.80
   1   1 -22   -4.50    4.17
  -1  -1 -22   -3.01    4.36
   1  -1  22    3.04    4.48
   1   1 -22    2.95    4.56
  -1  -1 -22    3.87    4.02
  -1   1  22    1.40    3.80
   1   1 -20   -0.84    3.19
   1   1 -20    2.34    4.20
  -1  -1 -20    5.41    3.60
  -1   1  20    5.42    3.95
   1   1 -20    4.19    3.88
   1  -1  20   -0.77    3.81
  -1  -1 -20   -1.87    4.20
  -1  -1 -18   -7.72    3.62
   1   1 -18   -1.98    2.96
   1  -1  18    0.53    3.19
   1   1 -18   -2.14    3.44
  -1   1  18    3.45    3.17
  -1  -1 -18   -4.83    3.82
   1   1 -18   -4.75    3.69
   1   1 -16   38.71    4.50
   1  -1  16   40.94    5.35
   1   1 -16   34.02    5.03
   1   1 -16   45.40    5.48
  -1  -1 -16   44.02    5.24
  -1   1  16   42.90    5.44
  -1  -1 -16   38.73    5.70
   1   1 -14   86.07    6.08
  -1  -1 -14   86.24    5.81
  -1   1  14   83.17    6.32
   1   1 -14   90.15    5.77
   1   1 -14   92.08    6.68
   1  -1  14   87.37    6.35
   1   1 -12  136.55    6.21
   1   1 -12  138.95    7.09
   1  -1  12  123.90    6.64
   1   1 -12  149.70    7.03
  -1  -1 -12  134.59    6.36
  -1  -1 -12  141.20    6.66
   1  -1  10   18.99    2.92
   1   1 -10   16.29    2.99
  -1   1  10   14.88    2.38
  -1  -1 -10   19.47    3.01
   1   1 -10   14.00    3.00
  -1  -1 -10   16.42    2.70
   1   1 -10   16.73    2.58
   1  -1   8  188.17    6.34
  -1  -1  -8  195.79    6.08
   1  -1   8  204.29    6.55
   1   1  -8  200.80    6.64
   1   1  -8  199.52    5.94
  -1  -1  -8  204.53    6.31
   1   1  -8  198.46    6.47
  -1   1   8  197.81    5.42
  -1  -1  -6    5.87    1.99
  -1   1   6    3.01    1.47
   1   1  -6    3.67    1.60
   1   1  -6    3.86    1.96
   1  -1   6    5.75    1.83
  -1  -1  -6    4.49    1.84
   1   1  -4  347.40    5.48
  -1   1   4  344.53    4.41
   1  -1   4  322.98    6.46
   1   1  -4  343.64    6.34
  -1  -1  -4  337.28    5.57
  -1   1  -4  340.23    6.19
  -1  -1   4  342.44    6.16
   1  -1  -4  338.33    6.21
  -1   1  -4  334.14    4.87
   1  -1  -4  338.48    4.34
  -1  -1   6    1.62    1.72
   1  -1  -6    4.01    1.40
   1   1   6    3.06    1.68
   1   1   6    5.25    1.95
  -1   1  -6    3.44    1.62
  -1   1  -6    7.42    2.03
   1  -1  -6    3.99    2.07
  -1  -1   8  192.97    5.83
  -1   1  -8  202.13    5.89
   1   1   8  199.63    6.11
   1  -1  -8  200.13    6.66
   1   1   8  201.19    6.25
  -1   1  -8  197.86    6.47
   1  -1  -8  196.51    5.41
   1  -1 -10   19.59    3.18
  -1  -1  10   18.34    2.72
  -1   1 -10   15.25    2.58
   1  -1 -10   13.43    2.31
  -1   1 -10   12.34    2.69
   1   1  10   16.61    2.76
  -1   1 -10   15.28    2.79
   1  -1 -12  140.89    5.97
  -1   1 -12  130.21    7.19
  -1   1 -12  144.46    6.43
   1  -1 -12  147.87    7.04
  -1   1 -12  140.18    6.74
  -1  -1  12  135.70    7.01
  -1  -1  14   84.23    6.37
  -1   1 -14   81.70    6.57
  -1   1 -14   97.43    6.38
   1  -1 -14   89.21    6.39
   1  -1 -14   80.87    5.29
  -1   1 -14   92.03    5.91
  -1   1 -16   43.69    5.10
  -1   1 -16   40.77    4.85
   1  -1 -16   41.13    5.21
  -1  -1  16   37.23    5.24
  -1   1 -16   29.04    4.99
  -1   1 -18   -2.29    3.12
  -1   1 -18    2.89    3.59
   1   1  18   -0.19    3.32
   1  -1 -18    4.18    3.89
  -1  -1  18   -2.67    3.29
  -1   1 -18    3.13    3.40
   1  -1 -18   -0.55    3.63
  -1   1 -20    6.16    3.62
   1  -1 -20    5.88    4.05
  -1   1 -20    0.79    3.86
   1   1  20    7.49    4.25
  -1  -1  20    6.32    4.00
  -1   1 -20    1.51    3.31
   1  -1 -20   10.93    4.57
  -1   1 -22    5.13    4.76
   1  -1 -22   -4.38    4.45
  -1  -1  22   -1.05    3.84
   1   1  22   -5.00    4.34
   1  -1 -22    1.25    3.92
  -1   1 -22    0.27    3.70
  -1   1 -24    2.09    4.23
   1  -1 -24   -2.99    4.35
  -2   0   2   25.57    1.62
   0  -2   2   21.64    1.44
   0   2   2   22.27    1.52
   0  -2  -2   22.17    1.70
   2   0   2   28.62    1.76
  -2   0  -2   24.48    1.75
  -2   0   2   27.61    1.78
  -2   0  -2   25.12    1.78
   0  -2   2   24.33    1.64
   2   0  -2   28.69    1.66
   2   0  -4  214.55    5.29
   2   0  -4  218.66    3.57
   0   2  -4  217.21    4.70
   0   2  -4  219.91    5.17
   0  -2   4  211.62    4.66
   0  -2   4  213.43    5.14
   0  -2  -4  218.52    5.21
  -2   0  -4  200.05    5.29
  -2   0  -4  206.95    5.23
  -2   0  -4  209.46    3.77
   2   0   4  212.32    3.78
   0   2  -4  210.25    5.07
   0   2  -6    1.27    1.84
  -2   0  -6    3.26    1.90
   0   2   6    3.62    1.64
   0  -2   6    3.90    1.97
  -2   0   6    5.26    1.52
   0   2  -6    3.98    1.87
   0  -2  -6    4.62    1.98
   2   0  -6    5.62    1.54
   2   0   6    4.80    1.65
  -2   0  -6    4.24    1.60
   0   2  -6    5.01    1.88
  -2   0  -6    7.27    2.79
   2   0  -6    4.52    1.91
   0   2  -8  138.11    5.35
   0  -2   8  136.26    5.41
   0  -2   8  139.27    5.65
   0   2  -8  134.35    5.40
   0   2   8  141.40    5.72
   2   0   8  137.49    4.74
   0   2  -8  132.89    5.10
  -2   0  -8  135.90    4.84
   0  -2  -8  138.73    5.57
   2   0   8  138.89    5.65
   0   2   8  135.00    4.89
  -2   0   8  136.92    4.45
   2   0  -8  135.22    4.49
   2   0  -8  135.99    5.69
  -2   0  -8  141.96    6.36
  -2   0  -8  136.90    5.62
   0   2  -8  133.64    5.79
  -2   0  10   37.17    3.09
   2   0 -10   38.53    3.14
   0   2 -10   30.81    3.63
   2   0  10   33.91    3.18
   2   0 -10   32.95    3.60
  -2   0 -10   31.07    3.42
   0  -2  10   33.00    3.60
   0   2 -10   31.55    3.32
   0   2 -10   34.89    3.61
   0   2  10   31.01    3.10
  -2   0 -10   31.64    3.10
   0  -2 -10   37.10    3.74
  -2   0  12   83.67    4.73
  -2   0 -12   87.66    5.52
  -2   0 -12   85.64    5.75
   0  -2  12   88.43    5.75
   0   2 -12   86.80    5.81
   2   0 -12   82.92    4.67
   0   2 -12   93.85    5.61
  -2   0  12   95.26    5.98
   0   2 -12   98.01    5.65
   0  -2 -12   83.66    5.56
   2   0 -12   98.22    6.08
  -2   0 -12   89.35    5.26
   0   2 -14   25.35    3.95
  -2   0 -14   28.34    4.08
   0   2 -14   18.72    3.87
   0   2 -14   22.90    3.82
   0  -2  14   20.45    3.94
  -2   0 -14   27.55    4.53
   2   0 -14   28.66    3.66
  -2   0  14   23.07    4.10
  -2   0 -14   24.27    3.57
   0  -2 -14   21.76    3.94
   2   0 -14   21.13    3.97
   2   0 -16    1.58    3.46
   0  -2  16    2.36    3.14
   2   0 -16    0.10    3.65
   2   0 -16    0.69    2.58
   0   2 -16   -4.08    3.78
  -2   0 -16    1.45    2.99
  -2   0 -16    1.45    3.62
   2   0  16    5.13    3.09
  -2   0  16   -1.22    3.17
  -2   0 -16    0.29    2.97
   0   2 -16    3.91    2.94
   0   2 -16    2.11    3.14
   0  -2 -16    2.17    3.28
   0   2 -18   11.72    3.71
   0   2 -18    8.45    3.98
   2   0 -18    5.13    3.70
   2   0 -18    6.21    3.95
   2   0 -18   10.32    3.39
   0   2  18    5.48    3.59
   2   0  18    6.71    3.69
  -2   0  18    7.45    3.32
  -2   0 -18   10.03    3.47
   0   2 -18   11.21    3.54
   0  -2  18    8.46    3.82
   0  -2 -18    6.14    3.62
  -2   0 -18    8.55    4.12
   2   0 -20   14.32    4.82
   0   2 -20   18.42    4.47
   0  -2  20   16.04    4.83
  -2   0  20   20.95    5.11
   2   0 -20   10.35    4.48
   0  -2 -20   26.93    5.70
   0  -2 -20   15.81    4.50
   0   2 -20   20.28    4.43
   0   2 -20    9.06    3.99
   0   2  20   11.23    4.48
   2   0  20   22.06    5.08
  -2   0 -20   13.35    4.89
  -2   0 -20   18.56    4.73
   0  -2 -22   -0.59    3.92
   0   2  22    7.47    4.41
  -2   0 -22   -4.39    4.73
   2   0  22   -1.22    3.83
   0  -2 -22   -1.53    4.06
   0   2 -22   -2.34    4.62
   2   0 -22    0.79    4.04
   0   2 -22    2.88    3.91
  -2   0 -22    5.01    4.31
   0   2 -22    1.97    3.56
  -2   0  22   -1.25    3.77
   2   0 -22    4.11    4.50
   0  -2  22    6.65    4.40
   0   2 -24   -0.65    4.15
   0  -2 -24    1.01    4.54
   2   0 -24    0.93    4.68
  -2  -1 -23    1.89    4.12
   1  -2  23    2.07    4.26
   2   1 -23   -5.35    4.35
   1   2 -23    3.79    4.18
   2  -1  23   -0.96    4.34
   1   2 -23    0.52    3.89
  -1  -2 -23   11.77    4.72
   2   1 -23   -9.89    4.59
   1   2 -21    6.42    4.10
  -1   2  21    2.04    3.90
   2   1 -21    9.74    4.66
  -2  -1 -21    8.78    4.56
   2   1 -21    9.77    3.82
  -2   1  21   13.09    4.50
   2   1 -21    7.12    4.37
   1   2 -21    1.64    3.29
  -1  -2 -21    8.21    4.29
  -1  -2 -21   15.34    5.04
   2  -1  21    9.29    4.37
  -2  -1 -21   -0.08    3.63
   1   2 -21    1.98    3.98
   1  -2  21    2.46    3.74
   1   2 -19    5.37    3.37
   1   2 -19    9.51    4.04
  -1  -2 -19    6.14    3.83
   2  -1  19    5.56    3.64
   1  -2  19    5.00    3.46
   2   1 -19    9.80    3.39
   1   2 -19   10.35    3.88
  -2   1  19    5.69    3.57
  -1   2  19    7.23    3.77
   2   1 -19   14.44    4.36
  -2  -1 -19    4.26    3.77
  -2  -1 -19    9.07    3.88
  -1  -2 -19   11.34    3.95
   2   1 -19   12.52    4.50
   2   1 -17    1.05    3.40
  -2   1  17    4.03    3.49
   2   1 -17   -3.35    3.32
   1   2 -17   -4.12    3.64
   1   2 -17    1.64    2.74
  -1   2  17    7.49    3.63
   1   2 -17   -0.48    3.14
  -2  -1 -17   -0.49    3.50
   1  -2  17   -0.03    2.95
  -2  -1 -17    4.27    3.20
  -1  -2 -17   -1.93    3.42
   2   1 -17   -2.44    2.84
   2  -1  17    0.01    3.01
  -2  -1 -15   22.69    4.55
   2  -1  15   14.70    3.64
   2   1 -15   23.65    4.36
  -1  -2 -15   18.80    3.78
  -2   1  15   19.61    3.90
   1   2 -15   18.39    3.85
   1  -2  15   15.84    3.88
   1   2 -15   24.79    3.87
   1   2 -15   17.57    4.00
   2   1 -15   16.71    3.89
   2   1 -15   17.85    3.43
  -2  -1 -15   21.53    3.81
   1   2 -13   39.15    4.52
   2   1 -13   32.76    3.55
   1  -2  13   24.43    3.81
  -1  -2 -13   34.67    4.09
   1   2 -13   36.17    4.05
  -2   1  13   33.94    4.26
   1   2 -13   38.81    4.13
  -2  -1 -13   32.43    3.76
   2   1 -13   42.13    4.80
   2  -1  13   32.94    4.05
   2   1 -13   38.45    4.45
  -2   1  11   12.02    2.31
   2   1 -11   14.74    2.93
   1   2 -11   16.21    2.84
   1   2 -11   16.92    3.18
   1   2 -11   14.01    2.86
  -1   2  11   13.49    2.32
   1  -2  11   12.96    2.84
  -2  -1 -11    8.56    2.19
  -1  -2 -11   14.27    2.82
   2   1 -11   12.23    2.43
   2  -1  11    8.00    2.31
   1   2  -9  140.88    6.08
   1   2  -9  149.06    6.15
  -2   1   9  148.87    4.82
  -1   2   9  146.63    4.99
   1   2  -9  144.38    5.76
   2   1  -9  154.80    5.45
   1  -2   9  144.16    6.09
  -1  -2  -9  148.64    6.00
   2   1  -9  146.57    6.29
  -2  -1  -9  148.57    5.60
   1   2  -7  342.89    7.99
  -2  -1  -7  340.59    8.75
   1   2  -7  341.64    7.92
  -2  -1  -7  347.19    7.13
   1   2  -7  349.36    7.62
   2   1  -7  338.91    6.82
   1  -2   7  342.54    7.78
   1   2  -7  345.67    8.39
   2   1  -7  369.17    8.39
  -1   2   7  342.61    6.38
  -1  -2  -7  339.90    7.65
  -2   1   7  340.33    5.91
   1  -2   5  115.36    4.61
   1   2  -5  126.58    4.22
  -1   2   5  122.51    3.25
  -2   1   5  130.12    2.86
  -2  -1  -5  126.43    3.78
   2  -1   5  124.21    4.70
  -1  -2  -5  120.65    4.18
  -2  -1  -5  123.00    4.77
   1   2  -5  119.67    4.21
   2   1  -5  126.00    3.66
   1   2  -5  123.68    4.49
   1  -2   5  126.80    4.13
   2   1  -5  130.44    4.68
   1   2  -3   27.13    1.85
   1  -2   3   24.62    1.49
  -2   1   3   22.39    2.08
  -1  -2  -3   24.68    2.04
  -2  -1  -3   22.52    2.12
  -1  -2  -3   27.32    2.17
  -1   2   3   27.16    2.22
   2  -1   3   24.63    2.17
  -2  -1  -3   23.90    1.64
   2   1  -3   25.43    2.12
   1  -2   3   28.17    2.27
  -2  -1  -1  135.58    2.98
   2  -1   1  140.33    3.11
  -1   2   1  139.95    3.17
  -2   1   1  149.17    3.39
  -1  -2  -1  135.60    2.46
  -1  -2  -1  144.68    3.26
   1  -2   1  145.81    3.36
  -1  -2   1  147.29    3.30
  -1   2  -1  177.11    3.56
  -2   1  -1  138.96    3.17
   2  -1  -1  138.86    2.70
  -2  -1   1  128.74    3.17
   1  -2  -1  163.58    3.34
  -2  -1   1  161.19    2.66
  -2  -1   3   21.02    2.08
  -1  -2   3   26.13    2.10
  -1   2  -3   26.29    1.81
  -1  -2   3   27.85    1.88
  -2   1  -3   20.95    2.18
   1  -2  -3   27.64    2.25
  -1   2  -3   29.18    2.33
   2   1   3   24.34    1.69
  -2   1  -3   23.82    2.22
  -1   2  -3   23.94    1.53
   2  -1  -3   22.08    2.06
   1  -2  -5  122.94    4.59
   2   1   5  129.88    3.87
   2  -1  -5  122.71    2.75
  -1   2  -5  120.06    4.07
  -2  -1   5  121.70    4.61
  -2   1  -5  120.91    4.65
  -1   2  -5  111.53    3.65
   2  -1  -5  123.56    4.56
  -1  -2   5  120.75    4.27
  -2   1  -5  117.55    3.15
  -1   2  -5  116.17    4.44
  -2   1  -5  123.72    4.53
   2  -1  -7  334.04    5.89
  -2   1  -7  348.55    8.30
  -1   2  -7  348.39    7.05
  -1   2  -7  330.90    7.10
   2   1   7  351.28    7.17
  -2   1  -7  342.58    8.59
  -1   2  -7  333.92    8.07
  -2   1  -7  342.42    6.50
   2   1   7  342.50    8.05
   1   2   7  338.55    7.55
   1  -2  -7  342.17    8.25
   1   2   7  350.75    7.90
   2  -1  -7  346.35    8.30
  -1   2  -9  156.00    5.64
  -1  -2   9  148.56    5.85
   1   2   9  147.75    5.95
   2   1   9  149.60    6.15
  -1   2  -9  140.16    5.65
  -2   1  -9  146.09    6.25
  -1   2  -9  144.71    6.19
   2  -1  -9  152.18    6.51
   2  -1  -9  141.79    4.77
   1  -2  -9  146.12    6.36
   2   1   9  154.19    5.60
  -2   1  -9  143.94    5.24
   1   2   9  143.54    5.68
   1  -2 -11   16.62    3.16
  -1   2 -11   11.67    2.56
  -2  -1  11   12.08    2.56
  -2   1 -11   12.76    2.91
  -1  -2  11   12.20    2.91
   2  -1 -11   14.03    2.25
  -1   2 -11   14.05    3.04
  -2   1 -11   13.71    2.49
  -1   2 -11   13.18    3.11
   2  -1 -11   13.10    2.76
  -1   2 -13   37.75    4.10
  -2  -1  13   31.15    4.13
  -2   1 -13   36.99    4.53
  -1   2 -13   35.62    4.18
   2  -1 -13   35.23    3.44
  -1  -2  13   29.65    4.31
  -2   1 -13   36.60    3.77
   1  -2 -13   34.04    4.28
   2  -1 -13   37.36    4.48
  -2   1 -13   32.70    4.01
  -1   2 -13   24.79    3.93
   2  -1 -15   18.36    4.27
  -2  -1  15   23.93    4.46
   1  -2 -15   22.29    4.06
  -1   2 -15   26.32    4.72
  -1  -2  15   17.41    3.94
  -1   2 -15   19.33    3.66
  -2   1 -15   12.90    3.96
  -2   1 -15   23.35    4.27
  -2   1 -15   20.72    3.58
  -1   2 -15   21.55    3.93
   2  -1 -15   17.43    3.20
  -2   1 -17   -3.37    3.73
  -2  -1  17   -3.03    3.33
   1  -2 -17    3.23    3.20
  -2   1 -17    1.90    3.11
  -1   2 -17    1.57    3.48
  -2   1 -17   -1.55    3.32
  -1   2 -17    2.57    2.86
  -1  -2  17   -3.35    3.01
  -1   2 -17    1.77    3.11
   2  -1 -17    4.99    3.61
   1  -2 -19    7.40    3.92
  -1   2 -19    4.53    3.38
  -1   2 -19    5.86    3.84
  -1   2 -19   10.13    4.17
   2  -1 -19    7.42    3.99
  -2   1 -19    5.58    3.65
  -1  -2  19    9.48    4.44
   2   1  19   15.07    4.63
   1   2  19   16.51    4.76
  -2   1 -19   16.11    5.03
  -2   1 -19   11.04    3.51
  -2  -1  19   14.06    4.25
   2  -1 -19   11.51    4.49
  -1   2 -21    9.97    4.18
  -2   1 -21    0.45    4.66
   2  -1 -21    3.57    3.84
   2  -1 -21   11.99    4.80
  -2   1 -21    3.60    3.47
   1   2  21    3.44    3.99
   1  -2 -21   11.45    4.63
  -1   2 -21    5.68    3.63
  -1   2 -21    3.08    4.28
   1  -2 -21    1.06    3.68
  -2  -1  21    8.02    4.15
   2   1  21    7.80    3.72
  -1  -2  21    2.87    4.00
   1  -2 -23   -5.90    4.51
   1  -2 -23   -5.14    5.08
   2  -1 -23   -2.82    5.03
  -2   1 -23    1.09    3.88
  -1   2 -23   -1.99    3.98
   2   1  23    4.96    4.45
  -1   2 -23    0.19    4.44
   2  -1 -23   -3.69    4.19
  -1   2 -23   -3.98    4.29
   2   2 -24    3.83    4.74
  -2  -2 -24   -0.15    4.29
  -2  -2 -22    2.17    4.58
  -2  -2 -22    0.79    3.84
   2   2 -22   -6.94    4.39
   2   2 -22    3.33    4.22
   2  -2  22    6.40    4.29
  -2   2  22    1.42    3.80
  -2   2  20    6.78    3.96
  -2  -2 -20   11.46    3.98
   2   2 -20    3.44    3.76
   2   2 -20    9.93    3.70
  -2  -2 -20    5.15    3.92
   2  -2  20    5.14    3.85
   2   2 -20    4.28    4.02
   2   2 -18    0.71    3.12
  -2   2  18    3.26    3.30
   2   2 -18    0.37    3.31
   2  -2  18   -0.69    3.19
  -2  -2 -18    3.06    3.69
  -2  -2 -18   -1.47    3.18
   2   2 -18    1.38    3.46
   2   2 -16   24.56    4.54
   2  -2  16   23.27    4.33
  -2  -2 -16   26.08    4.28
   2   2 -16   22.97    3.87
   2   2 -16   23.83    4.46
  -2   2  16   23.25    4.43
  -2  -2 -14   48.88    4.90
   2   2 -14   41.20    4.89
   2   2 -14   35.38    4.67
   2   2 -14   43.50    4.59
   2  -2  14   32.02    4.32
   2   2 -12   31.54    3.87
   2   2 -12   26.14    3.22
  -2  -2 -12   30.97    3.55
  -2   2  12   32.65    3.08
   2   2 -12   32.19    4.00
   2  -2  12   28.44    3.80
   2   2 -10   17.63    2.75
   2  -2  10   18.95    2.94
   2   2 -10   15.17    3.05
   2   2 -10   16.21    3.07
  -2  -2 -10   17.25    2.88
  -2   2  10   14.49    2.09
   2   2  -8  446.43    8.90
   2  -2   8  431.75    9.19
  -2  -2  -8  451.37   10.81
   2   2  -8  441.08    9.33
  -2  -2  -8  444.27    9.05
  -2   2   8  442.96    7.11
  -2  -2  -6  508.65    8.52
   2  -2   6  489.97    9.87
  -2  -2  -6  502.84    9.73
   2   2  -6  488.38    8.24
   2   2  -6  509.35    9.73
  -2   2   6  508.64    6.05
   2   2  -6  489.16    8.45
   2  -2   6  490.19    8.25
  -2  -2  -4   13.51    1.96
   2   2  -4   13.81    1.76
   2  -2   4   10.91    2.35
  -2  -2  -4   13.20    2.22
  -2   2   4   11.83    2.14
   2   2  -4   14.31    2.24
   2  -2   4   14.95    1.73
  -2  -2  -2 1322.33   10.23
   2   2  -2 1313.70    7.33
  -2  -2  -2 1236.36   10.06
  -2   2   2 1301.70   11.30
   2  -2   2 1270.23   11.23
  -2   2   0  904.97    6.78
  -2  -2   0  901.31    8.75
  -2   2   0  910.71    7.21
   2  -2   0  893.65    6.91
   2  -2  -2 1278.36   10.77
  -2   2  -2 1294.15   10.14
  -2   2  -2 1301.01   11.21
  -2  -2   2 1281.96   11.38
   2   2   4   15.92    1.99
  -2   2  -4   13.98    2.20
  -2   2  -4   12.70    1.36
  -2  -2   4   10.97    2.14
  -2   2  -4   11.14    2.23
   2  -2  -4   13.40    2.26
  -2   2  -6  493.23    6.93
  -2   2  -6  473.63    7.25
   2   2   6  517.18    9.48
   2   2   6  511.98    8.64
  -2  -2   6  504.37    9.49
   2  -2  -6  493.41    9.57
  -2   2  -6  492.06    9.52
  -2   2  -6  497.01    9.50
  -2   2  -8  446.91   10.53
   2   2   8  444.32    9.71
  -2   2  -8  439.65    7.98
  -2   2  -8  449.50   10.22
   2  -2  -8  443.50   10.25
  -2   2  -8  428.54    8.27
   2   2   8  470.57    9.41
  -2   2 -10   14.26    2.33
  -2   2 -10   17.88    3.12
   2  -2 -10   18.15    3.14
  -2   2 -10   17.87    2.72
  -2  -2  12   32.58    4.00
   2  -2 -12   34.95    4.22
  -2   2 -12   27.78    3.22
  -2   2 -12   25.80    3.72
  -2   2 -12   31.73    3.93
  -2   2 -14   50.48    5.19
   2  -2 -14   39.91    4.74
  -2   2 -14   41.09    4.17
  -2  -2  14   46.96    5.10
  -2   2 -14   40.85    4.89
  -2   2 -16   19.21    4.15
  -2  -2  16   19.56    4.35
  -2   2 -16   20.03    4.45
   2  -2 -16   23.51    4.57
  -2   2 -16   18.21    3.81
  -2   2 -18    1.07    3.48
  -2  -2  18    2.68    3.46
   2  -2 -18   -2.93    3.43
  -2   2 -18    0.36    3.10
  -2   2 -18   -3.47    2.95
   2   2  20    2.26    3.58
   2  -2 -20   -2.13    3.97
  -2  -2  20    1.33    3.61
  -2   2 -20   -0.95    3.93
  -2   2 -20    5.98    3.50
  -2   2 -20    8.87    4.21
   2  -2 -22   -9.02    4.89
  -2  -2  22   -0.97    3.83
  -2   2 -22   -1.53    3.43
  -2   2 -22   -5.92    4.19
   2   2  22    4.95    4.72
   2  -2 -22    1.68    4.46
  -2   2 -22   -1.92    3.83
   3   0   1  390.93    4.49
  -3   0   1  391.07    5.46
   0  -3   1  375.11    5.37
  -3   0  -1  401.48    4.79
  -3   0  -1  389.73    4.45
   0  -3  -1  374.11    5.93
   3   0   1  394.23    4.89
   0  -3  -1  383.69    4.61
   0   3   1  378.44    4.69
   0  -3  -3   49.61    2.92
   0  -3   3   47.03    2.73
   3   0  -3   44.34    2.71
  -3   0  -3   35.68    2.75
   3   0   3   42.83    1.60
   3   0   3   45.44    2.87
   0   3  -3   43.27    2.39
  -3   0   3   40.57    2.57
   0  -3   3   41.04    2.48
   0   3   3   48.31    2.57
  -3   0   3   41.77    2.77
   0  -3  -5  354.59    7.53
  -3   0  -5  359.24    7.81
   3   0  -5  368.89    7.80
   0  -3   5  333.21    6.59
  -3   0  -5  358.11    5.17
   3   0   5  354.52    5.20
   0   3  -5  356.27    7.35
   0   3  -5  351.25    7.48
   3   0  -5  360.05    4.96
   0   3  -5  345.98    6.78
   0  -3   5  348.81    7.29
  -3   0  -5  352.50    7.91
   0   3   7  226.60    5.92
   3   0   7  217.56    5.08
   3   0  -7  222.07    7.09
  -3   0  -7  221.11    6.94
   0  -3   7  223.82    6.94
   0   3  -7  220.78    6.69
   0  -3  -7  220.27    6.83
   0   3  -7  220.17    6.24
   0  -3   7  224.80    6.91
   0   3  -7  221.30    6.68
   0  -3   7  209.17    6.05
  -3   0  -7  222.02    5.20
   0   3  -7  221.92    6.75
  -3   0  -7  217.38    7.37
   3   0  -7  217.78    4.83
   0   3  -9   27.95    3.16
   0  -3  -9   29.78    3.46
   0   3   9   23.63    2.77
   3   0  -9   26.31    3.48
   0  -3   9   33.39    3.53
   0   3  -9   24.57    2.95
   3   0  -9   26.57    2.49
   0   3  -9   29.58    3.55
   3   0   9   26.85    2.63
  -3   0  -9   25.83    3.42
  -3   0  -9   28.83    2.75
   0   3 -11   30.93    3.87
   0   3 -11   27.49    3.37
   3   0 -11   30.93    3.97
   0   3 -11   29.01    3.56
   0  -3  11   27.67    3.55
   3   0 -11   27.84    2.80
   0   3  11   27.24    3.10
   0  -3 -11   28.48    3.53
  -3   0 -11   29.33    3.68
   3   0  11   23.80    2.84
  -3   0 -11   24.05    2.89
   3   0 -13   36.77    4.65
   0   3 -13   27.05    3.76
   0   3 -13   32.69    4.27
  -3   0 -13   32.82    4.29
  -3   0 -13   33.19    3.65
  -3   0  13   32.25    4.23
   3   0 -13   31.62    3.38
   0   3 -13   32.07    4.09
   0  -3 -13   35.47    4.52
   0  -3  13   29.92    4.24
  -3   0 -13   31.71    3.97
   0  -3  15    3.79    3.01
   3   0 -15    9.98    3.59
   0  -3 -15   13.15    3.92
   0   3 -15    7.13    3.28
  -3   0 -15    8.41    4.06
  -3   0  15    6.36    3.53
  -3   0 -15    5.98    3.56
   0   3 -15    6.85    3.66
  -3   0 -15    5.02    2.90
   0   3 -15   10.10    3.39
   3   0 -15   10.76    3.00
   0   3 -17   -4.01    3.48
   0  -3 -17    0.04    3.21
  -3   0 -17    3.71    3.54
  -3   0 -17    0.97    2.84
   0  -3  17   -2.59    3.05
  -3   0  17    0.15    3.09
   0   3 -17    4.19    3.36
   3   0 -17    4.24    3.33
   0   3 -17    2.96    3.03
   3   0  17    3.37    3.06
   3   0 -17    1.78    2.55
   3   0 -17    5.94    3.57
   3   0 -19   15.97    4.55
  -3   0 -19   11.84    4.13
   0   3 -19   13.67    3.92
   0   3 -19   -2.50    3.69
   3   0 -19   10.80    4.58
   0   3 -19    7.20    4.00
   0  -3 -19   12.06    3.92
  -3   0 -19   20.88    4.24
   3   0  19   13.90    4.12
  -3   0  19   14.61    4.48
   0  -3  19   14.65    4.45
   3   0 -19   17.18    3.84
   0   3 -21    2.64    4.08
   3   0  21    4.97    3.54
   0   3 -21    4.54    3.98
   3   0 -21    4.30    3.93
  -3   0  21   -4.61    4.16
  -3   0 -21   20.73    5.59
   0  -3  21    2.65    3.87
   3   0 -21    9.24    4.36
   0   3  21    3.72    4.06
  -3   0 -21    8.31    4.20
   0   3 -21    1.71    3.77
   0  -3 -21    6.28    4.19
   0   3 -23   -4.68    4.26
   3   0  23   -9.41    4.98
   0   3 -23    4.08    4.51
   3   0 -23   -0.54    4.21
   0   3 -23   -2.74    4.09
   3   0 -23    9.31    5.22
   0  -3 -23   10.93    4.71
   1   3 -24   -5.39    4.69
  -1  -3 -24   -1.18    4.41
   1  -3  22   13.40    4.80
  -3  -1 -22    1.82    3.76
   1   3 -22   -6.71    4.02
   3  -1  22    2.92    3.90
   1   3 -22    4.05    4.13
   3   1 -22    3.76    4.12
  -1   3  22    2.50    3.86
  -3   1  22    1.14    3.69
  -3  -1 -22    9.68    5.01
   3   1 -22    3.17    3.97
   1   3 -22    1.68    3.89
  -1  -3 -22   -4.09    4.19
  -1  -3 -22    3.71    4.37
   3   1 -20   18.09    4.79
   1   3 -20   14.41    4.41
  -1  -3 -20   19.45    4.95
   1   3 -20   20.04    4.66
   3   1 -20   12.52    3.75
   3   1 -20   21.46    5.26
   3  -1  20   14.13    4.22
  -3  -1 -20   18.90    4.37
  -3   1  20   18.84    4.99
   1  -3  20   17.16    4.75
  -3  -1 -20   18.31    5.39
  -1   3  20   12.44    4.74
   1   3 -20   13.97    4.27
  -3  -1 -18   13.48    4.47
   3   1 -18    6.03    3.97
   3  -1  18    0.91    3.34
   1  -3  18    6.06    3.38
   1   3 -18   11.50    3.82
  -1  -3 -18   18.42    4.35
  -3   1  18    6.79    3.31
   1   3 -18    5.31    3.55
   3   1 -18    2.85    3.56
   1   3 -18   13.30    4.04
   3   1 -18   10.64    3.22
  -3  -1 -18    6.14    3.35
  -3   1  16   -0.49    3.09
   1  -3  16   -0.71    3.09
   1   3 -16    1.57    3.14
   1   3 -16    2.20    2.90
  -3  -1 -16    3.11    2.96
  -1  -3 -16   -1.28    3.22
   1   3 -16   -0.54    3.38
   3   1 -16    4.70    3.20
  -3  -1 -16    4.91    3.71
   3   1 -16    2.40    3.52
   3  -1  16   -0.03    2.91
   3   1 -16   -4.58    2.97
   1   3 -14   21.23    3.88
   3   1 -14   14.80    2.91
   3   1 -14   18.02    4.05
  -1  -3 -14   18.81    3.99
  -3  -1 -14   14.79    3.97
   1   3 -14   10.74    3.17
   1  -3  14   12.43    3.53
   3   1 -14   21.33    4.19
  -3   1  14   12.44    3.62
   3  -1  14   14.57    3.38
   1   3 -14   15.15    3.47
  -3  -1 -14   12.21    3.08
   3   1 -12   36.97    4.39
   1   3 -12   36.23    4.02
   1  -3  12   42.60    4.36
  -3   1  12   41.40    3.33
  -3   1  12   36.55    4.14
  -3  -1 -12   41.86    3.73
   1   3 -12   40.29    3.93
   1   3 -12   36.17    4.20
   3   1 -12   35.67    3.42
  -1  -3 -12   37.23    4.19
  -1   3  12   36.60    3.35
   3  -1  12   36.32    3.89
  -3  -1 -12   35.30    4.43
   1   3 -10    3.92    2.13
   1   3 -10    1.28    2.34
   1   3 -10    1.54    2.16
   3   1 -10   -0.67    2.60
   3   1 -10   -0.97    1.92
   1  -3  10    0.26    2.05
  -1  -3 -10    3.73    2.48
  -3  -1 -10   -1.72    2.11
  -3   1  10   -2.03    1.58
  -1   3  10   -0.26    1.60
   1  -3   8  317.18    8.20
  -1  -3  -8  319.20    8.44
   1   3  -8  319.90    8.33
   1   3  -8  309.43    8.14
  -3  -1  -8  316.64    7.15
  -1   3   8  313.69    6.73
  -3   1   8  312.55    5.74
   3   1  -8  321.21    8.76
   1   3  -8  312.54    8.24
   3   1  -8  310.50    6.82
   1   3  -6  244.95    6.92
  -1  -3  -6  243.48    6.61
  -3  -1  -6  235.42    5.28
   1  -3   6  234.44    5.52
   1  -3   6  234.63    6.87
   1   3  -6  240.45    6.58
   3   1  -6  241.38    5.25
   1   3  -6  237.60    6.32
  -3   1   6  238.80    7.03
   1   3  -6  251.03    6.63
   3   1  -6  236.24    6.90
  -3  -1  -6  226.24    6.91
   3   1  -4  283.70    6.38
  -1   3   4  272.91    6.20
   1   3  -4  276.05    5.66
  -1  -3  -4  276.63    5.92
  -3   1   4  277.22    6.41
  -3  -1  -4  271.86    6.50
   1  -3   4  262.51    6.28
  -3  -1  -4  273.57    4.65
  -3   1   4  288.91    6.09
   3  -1   4  260.14    6.49
   1  -3   4  268.71    4.87
  -1  -3  -4  277.65    6.28
  -3   1   2   62.71    2.37
  -3  -1  -2   59.09    2.56
   1  -3   2   58.56    2.16
  -1  -3  -2   66.15    3.00
   1  -3   2   58.41    2.91
  -3   1   2   58.85    2.91
  -1   3   2   60.03    2.72
   3  -1   2   53.88    2.71
   3   1  -2   64.05    2.56
  -3  -1  -2   56.77    2.87
  -1  -3  -2   59.10    2.16
   3  -1   0  457.08    4.60
   3  -1   0  442.75    4.70
  -3   1   0  450.62    5.34
   3  -1   0  468.20    5.39
   1  -3   0  442.62    5.85
  -3  -1   0  444.14    6.02
  -1  -3   0  444.32    6.46
  -3   1   0  441.06    4.72
  -3  -1   2   54.39    2.35
  -3  -1   2   64.82    3.00
   1  -3  -2   55.03    2.84
   3  -1  -2   57.83    2.77
  -3   1  -2   54.25    2.83
  -1   3  -2   60.76    3.05
  -1  -3   2   58.83    2.49
  -3   1  -2   55.63    2.84
  -1  -3   2   60.20    2.81
  -1   3  -2   61.10    2.15
   1   3   2   67.05    2.34
   3   1   2   63.20    2.16
  -1   3  -2   60.35    2.19
  -1   3  -4  264.53    4.88
  -1  -3   4  266.94    5.98
   3   1   4  284.21    4.88
  -3   1  -4  275.51    6.50
  -1  -3   4  268.27    5.59
  -3   1  -4  271.42    6.49
  -1   3  -4  271.72    5.62
  -3  -1   4  272.48    6.62
  -1   3  -4  267.84    6.39
   1  -3  -4  277.89    6.43
   3  -1  -4  278.12    6.41
  -1   3  -6  224.37    5.54
   3  -1  -6  241.81    3.94
   1  -3  -6  244.98    6.82
  -3   1  -6  238.65    7.01
  -3   1  -6  235.62    6.88
  -3   1  -6  232.89    4.48
  -1   3  -6  226.37    6.15
  -1  -3   6  239.80    6.38
  -1  -3   6  237.96    6.51
  -1   3  -6  235.82    6.79
   3  -1  -6  246.29    7.04
   3   1   6  235.24    5.43
  -3  -1   6  236.45    6.97
   1   3   6  253.94    6.70
   3   1   8  318.23    7.13
  -1  -3   8  310.14    8.16
   3  -1  -8  316.35    8.74
   3  -1  -8  304.04    5.76
   3   1   8  306.86    8.54
   1  -3  -8  313.73    8.66
  -1   3  -8  310.61    7.44
  -1   3  -8  318.04    8.71
  -3   1  -8  312.78    8.68
   1   3   8  327.35    8.57
   1   3   8  313.68    7.85
  -3   1  -8  309.56    6.44
  -1  -3  10   -1.03    2.22
  -3   1 -10   -1.42    1.85
   3   1  10    0.77    1.98
  -1   3 -10    2.16    2.29
   1  -3 -10   -0.32    2.46
  -1   3 -10   -1.64    2.18
  -1   3 -10    2.49    2.34
   3  -1 -10    0.93    1.54
   3  -1 -10    1.06    2.63
   1   3  10   -2.38    2.08
  -1   3 -10    2.09    1.99
  -3   1 -10   -0.70    2.47
  -3   1 -12   40.40    3.53
  -1   3 -12   39.28    4.16
  -3   1 -12   31.46    4.10
   1  -3 -12   39.96    4.49
  -3  -1  12   39.24    4.34
  -1  -3  12   41.60    4.34
  -1   3 -12   37.27    4.30
  -3   1 -12   39.02    4.44
   3  -1 -12   32.18    2.92
  -1   3 -12   44.57    4.01
   3  -1 -12   40.76    4.47
   1  -3 -14   15.14    3.77
  -1  -3  14   12.95    3.55
  -1   3 -14   16.16    3.33
  -1   3 -14    8.69    3.50
  -3  -1  14   13.53    3.51
  -3   1 -14   14.74    3.78
  -3   1 -14   13.74    2.87
  -3   1 -14   17.98    4.12
   3  -1 -14   16.19    2.74
   3  -1 -14   16.66    4.06
  -1   3 -14   14.29    3.56
  -1   3 -16    1.06    3.63
  -1   3 -16    6.00    3.18
  -3  -1  16    5.80    3.23
  -1  -3  16    1.75    3.09
   3  -1 -16    2.54    2.44
  -3   1 -16    6.79    3.57
  -3   1 -16    4.95    2.83
   3  -1 -16    0.97    3.30
   1  -3 -16    2.78    3.25
  -3   1 -16    0.03    3.12
  -1   3 -16   -2.13    3.00
  -1   3 -18   -0.78    3.30
  -1  -3  18    5.75    3.75
  -3   1 -18    7.93    4.08
  -1   3 -18    3.61    3.08
   3  -1 -18   19.29    4.69
  -3  -1  18    9.95    3.44
  -3   1 -18    2.72    2.73
  -1   3 -18    6.48    3.93
   1  -3 -18    4.64    4.00
  -3   1 -18    5.88    3.37
   1  -3 -20   23.71    5.19
   3  -1 -20   18.79    4.95
  -3   1 -20   20.04    4.97
  -1  -3  20   22.61    5.11
  -3  -1  20   26.89    5.44
  -1   3 -20   14.44    5.24
  -3   1 -20   11.80    3.71
   3  -1 -20   13.60    4.56
  -1   3 -20   13.55    4.41
  -1   3 -20   22.37    4.83
   3   1  20   16.12    4.69
  -1   3 -22   -1.71    3.86
   3   1  22    2.32    3.91
   3  -1 -22   -1.01    4.28
  -3  -1  22   -2.08    3.90
   1  -3 -22   -1.43    4.01
  -3   1 -22   -3.40    4.13
   1  -3 -22   -5.20    4.70
   1   3  22    0.42    3.82
  -1   3 -22    2.19    3.59
   3  -1 -22   -0.83    4.36
  -1   3 -22    1.91    3.97
  -1   3 -24    5.51    5.17
   2   3 -23    1.50    4.75
  -3  -2 -23    0.88    4.18
   3   2 -23    5.54    4.53
   3   2 -23    5.47    4.72
  -2  -3 -23    2.70    3.96
   2   3 -23    3.74    4.39
   3  -2  23    4.43    4.17
   2  -3  23    2.20    4.00
  -3   2  21   -5.13    4.23
  -2   3  21    7.51    4.86
   2   3 -21    3.83    3.42
  -2  -3 -21    5.22    5.02
   3  -2  21   10.82    4.27
   2  -3  21    1.99    3.77
  -3  -2 -21    5.48    3.47
   3   2 -21    7.78    4.25
   3   2 -21    5.73    4.61
   2   3 -21    0.89    3.99
  -3  -2 -21    3.54    4.14
  -2  -3 -21   10.22    4.14
   2   3 -21    3.21    3.91
   3   2 -19    7.02    4.00
   2   3 -19    2.93    3.47
  -3  -2 -19    8.54    3.86
   3   2 -19    6.26    3.85
   2  -3  19    4.78    3.67
   3   2 -19   13.38    3.81
  -2  -3 -19    4.74    3.43
   2   3 -19   15.24    4.22
   2   3 -19   11.84    4.36
   3  -2  19    4.84    3.61
  -2   3  19    7.11    4.06
  -3   2  19   12.29    4.36
  -3  -2 -19    2.29    4.07
   2   3 -17    5.16    3.25
   3   2 -17    2.99    3.42
   3   2 -17   -0.86    2.90
   2   3 -17    2.22    2.78
   2   3 -17   -0.54    3.25
  -3  -2 -17   -7.91    3.68
  -2  -3 -17    0.90    3.27
   3   2 -17    1.90    3.46
  -3   2  17    5.62    3.40
   2  -3  17   -1.60    2.99
  -3  -2 -17    4.48    3.53
   3  -2  17    2.30    3.20
  -3   2  15   16.42    4.16
   2   3 -15   20.53    4.17
   2   3 -15   18.89    4.11
   3   2 -15   19.09    3.53
   3   2 -15   22.24    4.32
  -2  -3 -15   21.96    4.13
   3   2 -15   19.47    4.06
   2   3 -15   19.07    3.77
  -3  -2 -15   21.86    3.84
   3  -2  15   14.21    3.66
   2  -3  15   11.99    3.66
   3  -2  13   63.02    5.09
   3   2 -13   60.59    4.58
  -3   2  13   62.23    5.51
   3   2 -13   68.13    5.67
  -3   2  13   56.59    3.82
  -2  -3 -13   70.63    5.33
  -3  -2 -13   68.67    5.04
   2   3 -13   69.33    5.11
   2   3 -13   67.91    5.61
  -2   3  13   63.82    4.11
   2   3 -13   69.38    5.48
   2  -3  13   64.58    5.43
   3   2 -13   64.23    5.28
  -3   2  11   45.66    2.99
   2   3 -11   53.36    4.30
  -2  -3 -11   52.61    4.41
   3   2 -11   51.19    4.68
   2   3 -11   49.12    4.35
   3   2 -11   50.37    3.86
   3  -2  11   43.60    3.97
   3   2 -11   53.28    4.25
   2   3 -11   49.31    4.42
  -3  -2 -11   50.62    4.02
   2  -3  11   45.74    4.21
  -2   3  11   51.31    3.31
   3   2  -9    9.97    2.23
   3   2  -9   10.65    2.46
   3  -2   9    5.10    1.93
  -3   2   9   12.37    1.68
  -2   3   9   11.12    1.88
  -3  -2  -9    8.45    2.20
   3   2  -9   11.54    2.72
   2   3  -9   12.16    2.59
   2   3  -9   10.57    2.56
  -2  -3  -9   15.00    2.74
   2  -3   9   11.21    2.50
   3   2  -7  115.97    5.35
   2   3  -7  116.76    5.49
   2   3  -7  120.80    4.96
   2   3  -7  116.72    4.74
  -2  -3  -7  113.02    5.32
  -3   2   7  122.20    3.01
  -3  -2  -7  116.71    4.47
   2   3  -7  119.16    5.24
  -2   3   7  118.41    5.69
   3  -2   7  110.91    4.43
  -2  -3  -7  117.84    4.85
   2  -3   7  123.31    4.89
  -2   3   7  116.06    3.44
   3   2  -7  118.03    4.45
  -3   2   7  119.49    5.60
  -3  -2  -7  108.42    5.40
   2  -3   7  115.93    5.54
   3   2  -7  121.42    4.55
   3  -2   7  119.06    5.73
   2   3  -5   62.16    3.67
  -2  -3  -5   57.11    3.39
  -3  -2  -5   59.12    2.95
   2   3  -5   58.45    2.92
  -3  -2  -5   58.18    3.59
   3  -2   5   56.50    3.76
   3   2  -5   56.51    2.70
  -2   3   5   56.99    3.54
   3  -2   5   55.11    2.67
  -2  -3  -5   61.54    3.56
  -3   2   5   55.82    3.58
   2  -3   5   53.57    2.40
   2  -3   5   56.14    3.60
   3   2  -5   53.71    3.58
   3   2  -3   55.68    1.88
  -2   3   3   61.21    3.19
   2  -3   3   54.89    1.90
   2  -3   3   59.17    3.32
   3  -2   3   55.11    3.22
  -3  -2  -3   55.73    2.68
   2   3  -3   64.79    2.50
   2  -3   3   61.03    2.98
  -2  -3  -3   57.96    2.92
   3  -2   3   58.31    1.95
  -3   2   3   55.47    3.15
  -3  -2  -3   56.26    3.09
  -2  -3  -3   62.55    3.10
   3  -2   1  611.01    7.61
   2  -3   1  655.02    6.46
   2  -3   1  635.29    5.41
   2  -3   1  655.83    6.23
   3   2  -1  623.25    5.55
   3  -2   1  615.35    4.96
   3  -2   1  605.57    8.05
  -3  -2  -1  613.17    7.99
  -3   2   1  624.65    7.12
  -2  -3  -1  633.97    8.59
  -3   2   1  640.25    5.64
  -3   2  -1  620.33    4.96
  -2  -3   1  664.69    8.74
  -2   3  -1  647.68    8.03
  -3  -2   1  623.62    5.69
   3  -2  -1  609.10    7.09
  -2   3  -1  649.91    6.47
  -3  -2   1  626.47    8.25
   2  -3  -1  650.55    7.89
  -3   2  -1  622.86    7.61
   2   3   1  651.31    6.67
   3  -2  -1  630.79    5.53
   3  -2  -3   55.59    3.13
  -2   3  -3   59.61    3.39
  -2   3  -3   61.88    1.92
  -2   3  -3   60.94    2.88
   3   2   3   57.61    2.68
  -3   2  -3   53.36    3.04
   2  -3  -3   61.24    3.35
  -2  -3   3   58.05    3.33
  -3   2  -3   49.87    3.10
  -3  -2   3   57.15    3.24
   2   3   3   61.71    2.98
  -2  -3   3   60.40    2.46
  -2   3  -5   54.36    2.46
  -3   2  -5   56.36    3.63
  -3   2  -5   56.16    3.69
  -2  -3   5   56.46    2.90
   2   3   5   65.59    3.51
   3   2   5   55.47    3.10
  -3   2  -5   54.62    2.20
  -2   3  -5   58.56    3.06
  -2  -3   5   55.40    3.51
  -2   3  -5   52.33    3.34
  -3  -2   5   58.24    3.69
  -3   2  -5   56.27    1.97
   2  -3  -5   59.79    3.63
   3  -2  -5   57.98    3.59
  -2   3  -5   55.67    3.62
  -2   3  -7  123.47    5.42
  -2   3  -7  117.68    5.45
  -3  -2   7  121.29    5.45
  -2  -3   7  128.11    5.46
  -2   3  -7  112.09    4.07
  -3   2  -7  111.31    5.30
  -3   2  -7  116.09    3.57
   3  -2  -7  117.17    5.38
   2   3   7  124.06    5.16
  -3   2  -7  114.90    5.51
   2  -3  -7  110.39    5.22
   3   2   7  113.94    4.63
  -3   2  -7  112.15    3.77
   3   2   7  113.85    5.28
  -2   3  -9    9.91    2.09
  -3   2  -9    9.01    2.08
  -2   3  -9   11.63    2.92
  -2   3  -9    9.72    1.94
  -3   2  -9   10.88    2.86
   2  -3  -9   10.49    2.76
  -2  -3   9   10.78    2.67
  -3   2  -9   10.01    1.91
   3  -2  -9   12.20    2.89
   3   2   9   10.44    2.27
  -2   3 -11   50.17    4.55
   2  -3 -11   54.47    4.87
  -2  -3  11   53.79    4.61
  -2   3 -11   53.47    4.59
   3  -2 -11   53.90    4.85
  -3   2 -11   52.10    3.85
  -3   2 -11   48.34    4.44
  -3   2 -11   53.26    3.68
  -2   3 -11   43.76    3.50
  -2   3 -13   60.93    5.36
  -3  -2  13   61.43    5.47
  -2   3 -13   64.67    4.64
  -2   3 -13   58.32    5.40
  -3   2 -13   68.77    5.66
  -2  -3  13   70.02    5.81
   2  -3 -13   62.79    5.61
   3  -2 -13   64.59    5.65
  -3   2 -13   58.63    4.36
  -3   2 -13   58.57    5.54
  -3   2 -15   15.52    3.90
  -3  -2  15   17.85    4.13
  -3   2 -15   24.86    4.52
   2  -3 -15   28.99    4.75
   3  -2 -15   28.18    4.66
  -2   3 -15   19.35    4.35
  -2  -3  15   30.32    4.71
  -3   2 -15   15.91    3.28
  -2   3 -15   20.41    4.00
  -2   3 -15   27.90    3.98
  -2   3 -17   -3.09    3.49
  -3   2 -17   -1.90    3.21
  -3   2 -17   -2.42    2.90
  -2  -3  17    5.80    3.50
   3  -2 -17    2.91    3.35
  -2   3 -17    1.92    3.47
  -2   3 -17   -2.68    2.87
   2  -3 -17   -2.67    3.49
  -3  -2  17   -0.30    3.05
  -3   2 -17   -3.44    3.71
  -3   2 -19    3.20    3.62
  -2   3 -19   12.75    4.32
  -3   2 -19    7.92    3.36
  -2   3 -19    5.18    3.84
  -2   3 -19   16.56    4.19
  -3  -2  19   11.39    3.84
   3  -2 -19   10.99    4.28
  -3   2 -19   10.05    4.13
   2  -3 -19    4.14    3.79
  -2  -3  19   10.48    4.51
  -3   2 -21    3.43    3.99
  -2   3 -21    1.40    3.44
   3  -2 -21   -1.95    4.01
  -3  -2  21   12.53    4.73
  -3   2 -21    7.43    4.10
  -2   3 -21    0.83    3.64
   3   2  21    2.72    3.79
  -2   3 -21    5.69    4.44
  -3   2 -21    5.27    3.40
   2  -3 -21    7.24    4.34
  -2   3 -23   -8.79    4.72
   3   2  23   -1.65    4.11
   2  -3 -23    7.14    5.02
   3  -2 -23   -6.37    4.66
   3  -2 -23   -1.26    4.26
  -3  -3 -22   -9.26    5.26
   3   3 -22   -2.43    4.16
   3   3 -22    3.93    4.18
  -3  -3 -22    3.97    3.97
  -3   3  22   -5.90    4.05
   3  -3  22    1.53    3.76
  -3   3  20    8.81    3.96
   3   3 -20   15.76    4.15
  -3  -3 -20   11.59    4.31
  -3  -3 -20   17.59    5.44
   3  -3  20    5.81    3.68
   3   3 -20   19.69    4.86
   3   3 -20   10.65    4.35
  -3  -3 -18    7.13    3.59
   3   3 -18    2.45    2.99
   3   3 -18    7.92    3.64
   3   3 -18    1.78    3.25
   3  -3  18    3.73    3.18
  -3   3  18   10.67    3.85
  -3  -3 -16    9.86    3.56
   3  -3  16    0.64    2.88
   3   3 -16   -2.94    3.38
   3   3 -16    3.37    3.30
   3   3 -16    1.82    2.81
  -3   3  16   -3.94    3.32
   3  -3  14   30.82    4.27
  -3  -3 -14   32.84    4.34
   3   3 -14   26.94    3.71
   3   3 -14   27.40    4.28
   3   3 -14   28.67    4.50
  -3   3  14   26.58    3.18
   3   3 -12   83.36    5.19
   3  -3  12   79.67    5.28
  -3  -3 -12   94.22    5.60
  -3   3  12   87.66    4.15
   3   3 -12   84.31    5.53
   3   3 -12   86.61    5.95
   3   3 -10    9.42    2.48
  -3   3  10    8.53    1.60
   3   3 -10   11.96    2.63
   3  -3  10    9.32    2.44
  -3  -3 -10    9.29    2.56
   3  -3   8   49.93    3.46
  -3   3   8   52.95    2.34
   3   3  -8   56.19    3.86
   3   3  -8   54.79    3.63
  -3  -3  -8   59.26    3.96
   3  -3   6   73.06    4.41
  -3  -3  -6   74.15    4.32
   3  -3   6   68.33    3.29
  -3   3   6   73.32    4.29
   3   3  -6   78.64    4.55
   3   3  -6   72.46    3.37
  -3   3   6   64.56    1.90
  -3  -3  -6   70.23    3.73
   3  -3   4   20.44    2.68
   3   3  -4   21.75    1.77
  -3  -3  -4   18.37    2.22
  -3  -3  -4   21.34    2.46
  -3   3   4   19.49    2.40
   3  -3   4   21.31    2.46
  -3   3   2  102.19    3.73
   3  -3   2   90.49    3.40
  -3  -3  -2   95.90    3.99
  -3   3   2   97.54    2.37
   3  -3   2   89.29    4.04
   3  -3   0 1780.55   11.87
   3  -3   0 1815.31   12.48
  -3  -3   0 1787.41   15.10
  -3   3   0 1768.46   11.67
  -3   3   0 1787.09   12.42
  -3   3  -2   95.83    3.37
  -3   3  -2   96.07    3.87
  -3  -3   2   95.60    4.06
   3  -3  -2   97.84    3.65
   3   3   2   94.60    3.62
  -3   3  -2   95.52    2.37
  -3  -3   2   99.66    2.29
   3   3   4   20.92    2.34
  -3  -3   4   20.64    1.80
  -3   3  -4   18.13    1.65
  -3  -3   4   20.80    2.63
  -3   3  -4   17.80    1.13
  -3   3  -4   22.81    2.39
  -3   3  -4   18.90    2.51
   3   3   4   18.88    2.49
   3  -3  -4   18.95    2.51
  -3   3  -6   64.73    2.59
   3   3   6   73.60    3.88
  -3   3  -6   70.50    4.38
  -3   3  -6   67.91    4.18
   3  -3  -6   74.92    4.43
  -3  -3   6   72.99    4.19
  -3  -3   8   58.56    4.26
   3  -3  -8   54.56    4.33
  -3   3  -8   50.31    4.22
  -3   3  -8   51.43    2.88
   3   3   8   56.80    3.88
  -3   3  -8   51.64    2.95
   3  -3 -10    9.65    3.00
  -3   3 -10    7.34    2.04
  -3   3 -10    7.95    2.60
  -3  -3  10    6.20    2.57
  -3   3 -10    8.75    2.07
  -3   3 -12   85.04    4.67
  -3   3 -12   82.01    5.88
  -3   3 -12   84.57    6.01
   3  -3 -12   89.82    6.14
  -3   3 -14   28.38    4.55
  -3   3 -14   30.39    4.98
   3  -3 -14   38.34    5.25
  -3   3 -14   26.57    3.59
  -3   3 -16   -2.27    3.51
  -3   3 -16    4.54    2.87
   3  -3 -16    2.96    3.49
  -3   3 -16    4.78    3.15
  -3   3 -18    0.75    3.35
  -3   3 -18    2.99    3.56
  -3   3 -18    4.74    3.14
   3  -3 -18    7.27    4.29
   3  -3 -20   -3.14    4.35
  -3   3 -20   15.15    4.00
  -3   3 -20   -2.58    3.99
  -3   3 -20    9.83    4.35
  -3   3 -22    0.62    3.85
  -3   3 -22    0.08    3.87
   3   3  22   -0.41    3.88
   3  -3 -22   -1.47    4.54
   4   0   0 1112.26    9.36
   4   0   0 1078.36    7.89
  -4   0   0 1083.40    9.30
   0  -4   0 1091.91   10.80
   0   4  -2   24.00    2.30
   4   0   2   28.34    2.31
  -4   0  -2   23.50    1.96
   4   0  -2   30.27    2.38
   0  -4   2   25.27    2.37
  -4   0   2   29.92    2.37
  -4   0   2   25.01    2.34
   4   0  -2   27.03    2.06
   0   4   2   23.48    1.81
   0  -4  -2   25.15    2.62
  -4   0  -2   27.68    1.77
   4   0   2   27.55    1.79
   0  -4  -2   23.94    1.91
   0  -4   2   19.89    2.09
   4   0  -4  215.88    5.70
  -4   0  -4  207.27    5.68
  -4   0   4  216.41    6.10
  -4   0   4  210.93    5.63
   0   4  -4  201.77    5.18
   0   4   4  206.11    5.29
   4   0   4  204.05    3.46
   0  -4   4  201.14    5.60
  -4   0   4  204.72    5.69
  -4   0  -4  210.24    3.34
   0  -4   4  195.23    5.12
   0   4  -4  201.89    5.62
  -4   0  -4  205.38    6.05
   0  -4  -4  205.17    5.96
   4   0  -4  214.01    6.04
  -4   0  -6  111.12    5.28
   0  -4  -6  108.49    4.86
   4   0  -6  110.37    3.11
   0   4  -6  110.27    4.83
   0  -4   6  106.72    4.33
  -4   0   6  105.04    4.93
  -4   0   6  109.58    4.88
  -4   0  -6  109.40    3.19
   0   4  -6  116.43    4.96
   0   4  -6  100.21    4.28
   4   0  -6  107.94    5.13
  -4   0  -6  111.44    4.95
   0   4  -6  112.98    5.14
   0  -4   6  102.81    4.68
   4   0   6  108.33    3.25
  -4   0  -6  111.74    5.11
   0  -4  -8  274.25    8.25
   4   0   8  272.22    5.95
   0   4  -8  264.98    8.13
   0   4  -8  276.78    8.36
   4   0  -8  273.98    5.68
  -4   0  -8  280.24    8.54
  -4   0  -8  277.33    6.06
   0  -4   8  277.65    7.57
   4   0  -8  285.47    8.65
   0   4  -8  264.28    7.54
  -4   0 -10    6.21    2.06
   4   0  10    5.76    1.86
   0   4  10    8.33    2.18
   4   0 -10    2.96    1.56
   0  -4 -10    2.43    2.46
   4   0 -10    8.61    3.11
   0   4 -10    0.55    2.16
   0   4 -10    9.71    2.83
  -4   0 -10    2.74    2.47
   4   0 -12   50.94    4.81
   4   0 -12   46.63    3.47
   0   4 -12   43.53    4.63
  -4   0  12   46.29    4.68
  -4   0 -12   44.34    3.65
   0   4 -12   47.81    4.30
  -4   0 -12   46.74    4.87
   4   0  12   40.99    3.56
   0   4 -12   43.61    4.52
   0  -4 -12   47.61    4.75
  -4   0 -12   39.49    4.46
   0  -4 -14    9.00    3.73
   4   0 -14   10.12    2.60
   4   0 -14   12.27    3.60
   0   4 -14    9.98    3.20
   0   4 -14    4.05    3.18
  -4   0 -14   11.25    2.96
  -4   0 -14    8.53    3.40
   0   4 -14   17.20    3.48
  -4   0  14   12.03    3.34
   0   4 -16   -1.17    3.19
  -4   0 -16    3.05    2.65
   4   0 -16   -1.75    3.44
  -4   0  16    0.09    3.16
   4   0 -16    1.53    2.34
   0   4 -16    3.51    3.28
   0   4 -16    7.23    3.66
  -4   0 -16   -2.63    3.29
   0  -4 -16    3.62    3.14
   4   0  18   12.35    4.03
  -4   0 -18    2.74    3.65
   4   0 -18    7.58    4.01
  -4   0 -18   10.03    3.42
   4   0 -18    8.51    3.01
  -4   0  18    5.56    3.56
   0   4 -18    7.30    3.89
   0   4 -18    5.53    3.76
   4   0 -18    9.99    4.18
   0  -4 -18    5.09    3.81
   0   4 -18    8.46    3.50
  -4   0 -20   18.63    4.25
  -4   0  20   14.22    4.45
   0   4 -20   21.53    5.33
   4   0  20   11.85    4.39
   4   0 -20   10.09    4.68
   0   4 -20    9.24    3.98
   4   0 -20   16.15    4.73
   0  -4 -20   11.99    4.45
  -4   0 -20   22.24    5.25
   0   4 -20   15.30    4.64
  -4   0  22   -1.04    3.83
   0  -4 -22    2.82    4.23
   4   0  22    3.49    3.89
   0   4  22   -2.35    4.26
   0   4 -22   -3.84    4.30
   4   0 -22    5.17    4.86
   0   4 -22    5.70    3.99
   0   4 -22    2.16    4.30
   4   0 -22    5.08    4.31
  -4   0 -22   10.18    4.69
   0   4 -24   -4.53    4.35
   1   4 -23    0.17    4.07
   4  -1  23    1.68    4.20
   4   1 -23   -5.79    4.50
  -1  -4 -23    1.03    4.22
   4   1 -23   -0.84    4.18
   1   4 -23   -5.17    4.05
   1   4 -23   -0.94    4.16
   4   1 -21    6.83    4.37
   1   4 -21   13.20    4.28
   1   4 -21    8.39    4.62
  -1   4  21    7.17    4.40
  -4  -1 -21    6.72    3.85
  -1  -4 -21    1.57    3.59
   4  -1  21    7.49    4.21
   4   1 -21   10.05    4.52
  -4   1  21   10.86    4.24
   1   4 -21    4.37    3.99
  -4  -1 -21    6.53    4.47
   4   1 -19   14.96    4.20
   1   4 -19    9.97    4.06
  -1  -4 -19   19.18    4.83
   1   4 -19    7.19    4.14
  -4  -1 -19   10.84    4.25
  -4  -1 -19   13.52    3.95
   4  -1  19    8.88    3.69
  -4   1  19   20.37    4.92
   4   1 -19   19.34    4.98
   4   1 -19   13.92    3.58
   1   4 -19   21.94    4.53
  -1  -4 -17   -4.48    3.39
   4   1 -17    5.83    3.46
  -4  -1 -17   -2.35    3.74
   1   4 -17    3.66    3.40
  -4   1  17    3.40    3.11
   4   1 -17    4.12    2.66
   1   4 -17    5.42    3.24
  -4  -1 -17    0.06    2.79
   1   4 -17    2.73    3.30
   1  -4  17    3.79    3.22
   4   1 -17    4.78    3.71
   4  -1  17   12.83    3.83
  -1  -4 -15    5.14    3.41
   4   1 -15    2.79    3.22
   4   1 -15   -2.78    2.67
   1   4 -15    0.20    3.15
   4  -1  15    7.31    3.20
   1   4 -15    3.96    3.15
   1  -4  15    1.93    3.14
  -4  -1 -15    4.00    3.68
   4   1 -15    2.06    3.54
   1   4 -15    2.95    3.05
  -4   1  15   -0.01    2.96
  -4  -1 -15    6.49    3.02
   4   1 -13   54.71    5.35
   1   4 -13   55.57    4.96
   1  -4  13   52.18    4.95
  -4  -1 -13   53.26    4.31
   4   1 -13   49.59    3.96
  -4   1  13   58.37    5.37
  -4  -1 -13   59.06    5.55
   4  -1  13   47.55    4.63
   1   4 -13   50.55    4.74
   1   4 -13   55.28    5.26
  -1  -4 -13   53.35    5.11
   4   1 -11   36.67    4.20
  -1   4  11   30.57    2.99
   1   4 -11   33.71    3.96
   4   1 -11   33.00    3.07
  -4   1  11   35.52    4.03
  -4  -1 -11   35.03    3.31
   1   4 -11   38.03    3.99
  -1  -4 -11   35.40    3.94
  -4  -1 -11   27.81    4.00
   4   1  -9   14.17    2.15
  -4   1   9   14.12    2.89
  -1   4   9   14.80    2.16
  -1  -4  -9   12.91    2.74
   1   4  -9   15.96    2.81
  -4  -1  -9   16.28    2.38
   1   4  -9   11.98    2.58
   4   1  -9   13.10    2.89
   1   4  -7  145.91    5.94
   4   1  -7  141.09    4.29
  -4   1   7  137.88    5.74
   1  -4   7  140.40    4.88
   1   4  -7  150.65    5.89
   4   1  -7  136.67    5.89
   1   4  -7  140.70    5.54
   4   1  -7  143.37    6.07
  -4  -1  -7  142.43    4.41
  -4  -1  -7  132.87    5.71
   1  -4   7  143.17    6.01
   1   4  -7  144.35    5.66
  -1  -4  -7  144.73    5.82
   4  -1   5   45.44    1.63
   1   4  -5   56.35    3.24
  -1  -4  -5   56.79    3.63
  -1   4   5   56.03    3.38
  -4  -1  -5   53.58    3.70
   1  -4   5   49.87    3.48
   1   4  -5   56.47    3.47
   1  -4   5   52.49    2.81
  -4  -1  -5   52.06    3.55
   4  -1   5   54.63    3.73
  -4  -1  -5   56.08    2.52
   4   1  -5   60.38    3.58
  -4   1   5   58.82    3.58
  -4   1   5   51.81    3.49
  -1  -4  -5   57.86    3.40
   4   1  -3  149.52    4.57
  -4  -1  -3  136.47    4.27
  -4   1   3  147.37    4.14
  -4   1   3  145.97    4.75
   1  -4   3  151.21    3.91
  -1  -4  -3  151.11    3.79
   1  -4   3  145.94    4.91
  -1  -4  -3  149.58    4.92
  -1   4   3  147.53    4.39
   4  -1   3  135.59    4.61
  -4  -1  -3  133.20    3.94
  -4  -1  -3  145.12    4.86
   4   1  -1   15.19    1.70
   4  -1   1   14.96    1.90
   4  -1   1   14.84    2.02
  -1  -4  -1   11.75    1.19
   1  -4   1   10.31    1.65
   4  -1   1   14.58    1.26
   4  -1   1   15.89    1.33
  -1  -4  -1   11.70    2.11
  -4   1   1   12.82    1.76
  -4  -1  -1   11.65    1.81
  -1  -4  -1   14.67    2.31
  -4  -1  -1   13.50    1.38
  -4   1  -1   14.06    1.26
   4  -1  -1   14.59    1.75
   1  -4  -1   10.88    1.83
  -4  -1   1   13.67    1.92
  -1  -4   1   11.73    2.08
   4  -1  -1   13.44    1.41
  -1   4  -1   12.62    2.01
   1  -4  -1   14.03    2.21
   1   4   1   15.30    1.28
   4  -1  -1   13.18    1.50
   4   1   1   15.46    1.98
  -4   1  -1   14.34    1.71
   4  -1  -1   12.10    1.80
  -1   4  -3  151.96    3.76
   4  -1  -3  142.93    4.57
  -4   1  -3  141.06    4.46
  -4   1  -3  139.14    4.79
  -4   1  -3  140.14    4.80
  -1  -4   3  142.80    4.61
   1  -4  -3  148.62    4.51
  -1   4  -3  145.68    3.74
   1   4   3  149.75    3.82
  -1  -4   3  152.23    4.38
  -1   4  -3  158.41    5.22
   1  -4  -3  151.80    5.00
   4   1   3  143.63    3.39
   4  -1  -3  142.61    4.59
  -4   1  -3  118.83    2.49
  -4  -1   3  141.59    4.81
  -4  -1   3  136.32    4.20
   1  -4  -5   57.58    3.85
  -1  -4   5   56.74    3.31
  -4   1  -5   54.53    3.77
  -4  -1   5   57.12    3.54
  -1   4  -5   55.53    2.92
   4  -1  -5   45.54    1.46
  -4   1  -5   49.03    1.69
   4   1   5   58.09    2.68
  -4  -1   5   54.21    3.72
  -1  -4   5   54.46    3.29
  -1   4  -5   58.40    3.27
  -1   4  -5   54.54    3.70
   4  -1  -5   58.26    3.66
  -4   1  -5   54.89    3.67
  -1  -4   7  134.83    5.43
  -4   1  -7  140.54    3.66
  -1  -4   7  143.16    5.65
  -4   1  -7  137.79    6.03
   4   1   7  146.28    4.56
   4  -1  -7  139.40    3.23
   1   4   7  149.25    5.95
  -1   4  -7  142.99    5.56
   1  -4  -7  143.02    6.03
  -4  -1   7  146.44    6.25
  -1   4  -7  138.20    4.89
  -1   4  -7  140.05    5.90
   4  -1  -7  129.57    5.86
  -4   1  -9    9.56    1.80
   4  -1  -9   14.20    2.97
   4   1   9   10.13    2.07
  -4   1  -9    9.00    2.87
   1  -4  -9   15.90    3.05
  -1   4  -9   12.29    2.89
  -1  -4   9   14.84    2.75
   1   4   9   12.43    2.44
  -1   4  -9   16.78    3.05
   4  -1  -9   12.83    1.71
  -1   4  -9   11.92    2.38
  -4   1 -11   30.17    2.93
  -1   4 -11   27.75    3.94
   4  -1 -11   31.89    4.00
   1  -4 -11   37.31    4.07
   4  -1 -11   31.87    2.52
  -1   4 -11   32.25    3.90
  -4  -1  11   35.62    4.08
  -1   4 -11   36.56    3.57
  -4   1 -11   38.05    4.29
  -4   1 -11   31.88    3.94
   4   1  11   32.53    3.23
  -4   1 -13   51.21    5.19
  -4   1 -13   48.71    3.87
  -1   4 -13   49.37    5.34
   4  -1 -13   49.64    3.51
  -4   1 -13   53.73    5.41
  -1   4 -13   59.34    4.62
  -1   4 -13   54.61    5.20
  -4  -1  13   47.93    5.02
   4  -1 -13   58.40    5.57
   1  -4 -13   55.07    5.46
  -1   4 -15    5.49    3.40
   1  -4 -15    2.27    3.55
   4  -1 -15    4.05    2.50
  -4   1 -15   -2.81    3.56
  -4   1 -15    6.03    3.61
  -1   4 -15    0.22    2.75
  -4  -1  15    1.65    2.94
  -1   4 -15   -0.15    3.22
   4  -1 -15    5.38    3.52
  -4   1 -15    8.17    2.89
  -4  -1  17    0.50    3.17
  -4   1 -17   -1.89    3.48
   4  -1 -17   -3.16    3.67
  -4   1 -17    1.57    3.38
  -1   4 -17    4.32    3.13
   1  -4 -17    4.89    3.68
  -4   1 -17    4.49    2.71
  -1   4 -17   -2.15    3.39
  -1   4 -17    4.00    3.15
   4  -1 -19   17.07    5.12
  -4   1 -19   14.13    3.71
  -1   4 -19   11.52    3.70
   4   1  19   13.62    4.04
  -1   4 -19   13.51    4.53
  -1   4 -19   13.89    4.47
  -4   1 -19   11.96    4.49
  -4  -1  19    4.56    3.55
   1  -4 -19   16.77    4.72
   4  -1 -21    4.25    4.27
  -1   4 -21    0.26    4.00
  -1   4 -21    2.85    3.46
   1  -4 -21    2.27    4.24
   4   1  21    3.87    4.11
  -4   1 -21   17.18    5.39
  -4  -1  21    0.76    3.84
   4  -1 -21    7.67    4.76
  -1   4 -21    0.95    3.62
   4  -1 -23   -0.28    4.67
  -1   4 -23    6.17    4.34
   4   1  23   -3.99    4.33
   1  -4 -23   -1.57    4.29
   2   4 -24   -1.05    4.37
  -2  -4 -24    9.70    5.01
   2   4 -22    2.44    4.26
  -4   2  22    1.30    3.71
  -4  -2 -22   -4.43    5.04
  -2   4  22   -3.88    4.26
   4   2 -22    1.24    4.17
   4  -2  22   -2.56    3.99
   4   2 -22    1.10    4.20
   2   4 -22    0.89    3.74
  -2  -4 -22   -1.44    4.52
  -2  -4 -22   -1.49    3.95
   2   4 -22    0.66    4.22
   2   4 -20   17.82    4.54
  -4  -2 -20    8.76    3.68
   4   2 -20   18.95    5.14
   2   4 -20   11.42    4.49
   4  -2  20   12.69    4.36
  -4  -2 -20   10.03    4.67
  -2  -4 -20   13.21    4.73
   4   2 -20   22.00    5.06
   2   4 -20   17.99    4.77
  -2   4  20   20.15    5.04
  -4   2  20   14.65    4.61
  -4  -2 -18    7.50    3.94
  -2  -4 -18    5.14    3.58
   2  -4  18   12.82    4.07
   4   2 -18   11.64    4.05
   2   4 -18   10.15    3.67
   4   2 -18   11.85    3.52
  -4   2  18    7.57    3.80
   2   4 -18   11.85    4.28
  -4  -2 -18   16.17    3.81
   2   4 -18    7.60    3.64
   4  -2  18    5.58    3.54
   4   2 -18    5.29    3.87
  -2  -4 -16   -0.61    3.02
   4   2 -16    4.05    3.14
   2   4 -16    2.85    3.15
  -4  -2 -16    4.30    2.83
  -4   2  16    7.29    3.62
   4   2 -16    4.92    3.67
   2   4 -16   -1.58    3.35
   4   2 -16    2.71    2.80
   4  -2  16    2.77    2.99
  -4  -2 -16    4.49    3.56
   2   4 -16   -2.08    3.53
   2  -4  16   -0.75    2.90
  -2  -4 -14   26.78    4.22
   2   4 -14   18.03    3.69
  -4   2  14   21.77    3.95
   4   2 -14   25.11    4.52
   4  -2  14   22.42    3.91
   2   4 -14   21.32    3.99
   4   2 -14   18.53    3.04
  -4  -2 -14   26.65    4.90
   4   2 -14   26.99    4.26
   2  -4  14   19.85    3.69
  -4  -2 -14   19.95    3.40
   2   4 -14   26.95    4.40
  -4  -2 -12   93.80    5.45
   4   2 -12   92.10    6.26
  -2  -4 -12   88.17    5.94
   2   4 -12   92.42    5.71
   2   4 -12   92.76    5.98
  -4   2  12   94.84    6.30
   4   2 -12   90.04    4.93
   2  -4  12   85.76    5.67
   4  -2  12   86.09    5.39
   4   2 -12  101.97    5.89
  -2   4  12   86.66    4.42
  -2  -4 -10   21.75    3.15
  -4   2  10   25.69    3.46
  -2   4  10   24.16    2.54
  -4  -2 -10   23.69    2.89
   4  -2  10   23.96    3.00
   4   2 -10   24.29    2.84
   4   2 -10   28.03    3.70
   2   4 -10   25.93    3.45
   2   4 -10   24.01    3.11
   4   2 -10   26.98    3.16
   4  -2   8   40.96    3.10
  -2   4   8   39.02    2.48
   2   4  -8   39.29    3.58
   2   4  -8   40.85    3.50
   4   2  -8   42.99    3.34
   4   2  -8   44.94    3.08
  -4  -2  -8   38.93    2.97
  -2  -4  -8   42.74    3.66
  -4   2   6   39.68    3.46
   2  -4   6   38.83    2.47
   2   4  -6   40.65    3.49
   4   2  -6   39.85    2.59
  -2  -4  -6   42.97    3.34
  -2   4   6   37.88    3.25
   4  -2   6   38.25    2.51
   2  -4   6   40.23    3.62
  -2  -4  -6   40.94    3.19
   4   2  -6   41.43    3.57
  -4  -2  -6   41.79    3.61
   2   4  -6   39.65    2.85
  -4  -2  -6   39.11    2.65
   2   4  -6   42.20    3.49
   4  -2   6   41.66    3.74
   4  -2   4   45.58    3.37
   2   4  -4   51.33    2.81
  -2  -4  -4   47.33    3.11
  -2  -4  -4   47.03    2.88
   4  -2   4   47.65    2.02
  -4  -2  -4   46.78    3.26
   2  -4   4   49.48    3.47
  -4   2   4   46.96    3.25
   4   2  -4   52.95    2.11
   2  -4   4   46.35    2.17
  -2   4   4   48.36    3.16
  -4  -2  -4   46.90    2.57
   4  -2   2   35.71    2.77
  -2  -4  -2   34.97    2.70
   4   2  -2   40.18    2.36
  -4  -2  -2   33.12    2.62
   2  -4   2   36.50    2.87
   2  -4   2   35.06    2.00
  -4   2   2   38.90    2.58
  -2  -4  -2   35.73    2.13
   2  -4   2   33.77    1.84
  -2  -4  -2   32.84    2.90
   4  -2   2   35.31    2.66
  -4   2   0   46.02    2.40
   4  -2   0   43.73    2.34
   4  -2   0   39.13    2.05
   2  -4   0   46.54    2.62
  -2   4   0   46.71    2.71
   4  -2   0   42.14    1.88
  -2  -4   0   48.27    3.08
  -4   2   0   42.47    2.07
  -4  -2   0   40.19    2.78
   4  -2  -2   38.04    1.52
   2  -4  -2   34.13    2.78
  -4   2  -2   38.37    2.72
  -2   4  -2   33.84    2.75
   2   4   2   41.00    2.29
   4   2   2   39.48    2.40
   2  -4  -2   35.57    2.66
  -2   4  -2   40.30    2.27
   4   2   2   36.43    2.59
   4  -2  -2   36.56    2.59
  -2  -4   2   33.50    2.17
  -4  -2   2   37.89    2.15
  -4  -2   2   37.73    2.86
   4  -2  -2   34.15    2.36
  -2  -4   2   34.51    2.86
  -2   4  -2   39.34    2.05
  -4   2  -2   35.73    2.83
  -4  -2   4   40.79    2.68
   2  -4  -4   48.37    3.26
  -4  -2   4   47.77    3.44
   4   2   4   50.21    2.78
   4  -2  -4   46.77    3.22
  -2  -4   4   50.84    2.77
  -2   4  -4   46.40    2.21
  -2   4  -4   50.19    2.89
  -4   2  -4   50.45    3.53
  -4   2  -4   50.97    3.41
   2  -4  -4   45.97    3.44
  -2  -4   4   46.77    3.27
  -2   4  -4   45.45    3.43
  -4  -2   6   39.10    3.57
   2  -4  -6   40.91    3.46
  -4   2  -6   33.64    1.62
  -2   4  -6   36.86    2.41
  -2   4  -6   39.00    3.43
  -4   2  -6   38.42    3.42
  -4   2  -6   36.55    3.37
   4   2   6   42.97    2.88
   4  -2  -6   41.75    3.49
  -2   4  -6   43.06    3.31
  -2   4  -6   42.61    3.06
  -2  -4   6   39.13    3.26
   2   4   6   44.45    3.45
  -2  -4   6   37.65    2.99
  -4  -2   8   41.10    3.85
  -2   4  -8   41.13    2.98
   4   2   8   45.14    3.30
   4  -2  -8   40.14    3.78
  -2   4  -8   43.65    3.97
  -4   2  -8   38.45    3.88
  -4   2  -8   40.76    2.38
  -2  -4   8   41.89    3.80
   2  -4  -8   43.87    3.97
  -4   2 -10   23.77    3.46
   4  -2 -10   25.39    3.73
   4   2  10   23.12    2.92
  -2  -4  10   24.01    3.37
  -2   4 -10   24.77    2.81
   2  -4 -10   22.72    3.55
  -4   2 -10   26.62    2.50
  -2   4 -10   24.86    2.77
  -2   4 -10   22.78    3.41
  -2   4 -10   28.25    3.64
   2  -4 -12   89.78    6.19
  -4   2 -12   85.31    4.41
  -4   2 -12   98.66    6.46
  -4   2 -12   93.20    6.36
  -4  -2  12   94.75    6.30
  -2   4 -12   90.15    6.21
  -2   4 -12   90.11    5.08
   4  -2 -12   96.84    6.38
  -2   4 -12   91.46    6.36
  -2   4 -14   30.55    4.82
   2  -4 -14   18.97    4.18
  -4   2 -14   26.54    4.28
  -2   4 -14   20.22    3.33
  -2   4 -14   24.40    4.25
  -4  -2  14   20.04    4.14
  -4   2 -14   23.67    3.36
   4  -2 -14   23.77    4.37
  -4   2 -14   19.25    4.14
  -2   4 -16    0.17    3.05
  -4   2 -16   -0.11    2.45
  -2   4 -16   -0.22    2.98
  -2   4 -16   -3.94    3.48
  -4  -2  16   -1.75    3.17
  -4   2 -16   -1.75    3.18
   2  -4 -16   -2.17    3.48
   4  -2 -16    1.60    4.00
  -4   2 -16    7.65    3.54
   2  -4 -18   10.30    4.29
  -4   2 -18    5.98    3.98
  -4   2 -18    0.18    3.49
  -2   4 -18   16.74    3.73
  -2   4 -18   12.22    4.48
  -4  -2  18    5.64    3.60
  -2   4 -18   13.17    4.23
   4  -2 -18    1.57    3.82
  -4   2 -18   12.98    3.36
   4  -2 -20   11.08    4.63
  -4   2 -20   12.13    4.34
   2  -4 -20    1.47    4.13
  -2   4 -20   12.96    4.00
  -2   4 -20   17.39    4.97
  -4   2 -20   15.82    5.08
  -2   4 -20   14.81    4.97
  -4  -2  20   15.19    5.14
  -2   4 -22    0.54    4.05
   4   2  22   -1.19    4.05
   4  -2 -22   -0.61    4.13
   2  -4 -22    6.13    4.68
  -2   4 -22   -4.02    4.10
  -4   2 -22   -1.94    3.82
   4  -2 -22    1.64    4.25
  -2   4 -24   10.47    5.12
   3   4 -23   -1.04    4.74
   4   3 -23    8.21    4.97
   4  -3  23    5.13    3.95
  -3  -4 -23    4.73    4.62
   3   4 -23   -7.94    4.82
   4   3 -23    0.32    4.35
   4  -3  21    2.02    3.62
   4   3 -21   -1.84    3.86
   3   4 -21    8.33    3.97
  -4  -3 -21    4.83    3.82
  -3  -4 -21    2.83    4.02
  -4  -3 -21    7.61    4.57
  -3   4  21   11.06    4.78
  -4   3  21    5.86    4.01
   3   4 -21    3.84    3.72
  -3  -4 -21    3.44    4.22
   4   3 -21   -3.42    4.12
   3   4 -21   -4.62    4.62
  -3  -4 -19    6.26    3.80
  -4   3  19    5.03    3.60
   3   4 -19   13.09    4.32
   4  -3  19    8.64    3.85
  -4  -3 -19    8.15    3.67
   4   3 -19    9.50    4.10
   4   3 -19   10.15    3.60
   3   4 -19   15.57    4.02
  -4  -3 -19    7.11    4.04
   3   4 -19   11.02    4.50
  -3   4  19   12.52    4.05
   4   3 -19    8.77    4.42
   3  -4  19   10.31    4.00
  -4  -3 -17    4.58    4.29
  -4  -3 -17    1.27    3.16
   3   4 -17   -0.23    2.75
   4   3 -17   -1.06    2.84
   4   3 -17   -4.67    3.78
  -4   3  17   -3.10    3.53
   3  -4  17    1.04    2.83
   3   4 -17    1.09    3.24
   3   4 -17   -1.04    3.28
   4   3 -17    2.88    3.31
   4  -3  17   -3.12    3.26
  -3  -4 -17    1.38    3.23
   4   3 -15   18.81    4.18
   4   3 -15   11.19    3.64
   3   4 -15    8.54    3.31
  -4  -3 -15   16.04    3.81
   3   4 -15    7.54    3.42
  -3  -4 -15   14.33    3.64
  -4   3  15   14.52    4.08
   3  -4  15    7.71    3.36
   3   4 -15   18.09    4.01
   4  -3  15   12.02    3.22
   4   3 -15   13.82    2.88
   4   3 -13   71.56    5.12
   4   3 -13   66.93    5.70
   3   4 -13   64.78    5.25
   3  -4  13   64.23    5.27
   3   4 -13   71.99    5.45
  -3  -4 -13   58.41    5.03
  -4  -3 -13   72.87    5.28
   4   3 -13   66.52    5.30
  -3   4  13   62.89    3.79
  -4   3  13   65.92    3.62
   4  -3  13   64.80    5.19
   3   4 -13   74.59    6.00
   3   4 -11   44.37    3.99
   4   3 -11   43.65    3.92
  -4  -3 -11   43.86    3.92
   3  -4  11   44.43    4.05
  -3   4  11   42.51    2.73
  -3  -4 -11   45.80    4.22
   4  -3  11   43.88    3.93
   4   3 -11   37.69    3.63
   3   4 -11   39.74    3.95
  -4   3  11   39.52    2.51
  -3  -4  -9    9.53    2.79
   3   4  -9    8.67    2.38
  -4   3   9    6.38    1.12
  -3   4   9    9.01    1.48
   4   3  -9    9.78    2.33
  -4  -3  -9    9.64    2.41
   4  -3   9    7.74    2.17
   3   4  -9    8.42    2.52
   4   3  -9    8.11    2.34
  -3  -4  -7   87.09    4.94
   3   4  -7   85.69    4.01
  -3  -4  -7   84.46    4.46
   4  -3   7   83.05    3.78
  -3   4   7   87.12    2.73
   4   3  -7   94.13    3.97
  -4  -3  -7   89.77    4.27
  -4   3   5   38.76    3.27
   4  -3   5   34.18    3.09
  -3  -4  -5   38.36    3.01
   3  -4   5   35.60    1.84
   4  -3   5   35.97    3.37
   4   3  -5   38.64    2.21
  -3  -4  -5   36.62    3.04
  -4  -3  -5   34.58    2.68
  -4  -3  -5   33.83    3.09
   3   4  -5   36.45    2.47
  -3   4   5   44.68    3.39
   3  -4   5   36.29    3.35
  -3  -4  -3    6.78    2.04
  -3   4   3    7.41    2.13
   3  -4   3    4.42    1.77
   3  -4   3    4.26    2.10
  -4  -3  -3    4.57    1.89
  -4  -3  -3    3.59    1.86
  -3  -4  -3    2.75    1.88
   4  -3   3    5.08    1.99
   3  -4   3    5.98    0.94
  -4   3   3    6.09    2.01
  -3  -4  -3    5.13    1.65
  -3   4   3    5.95    1.92
   4  -3   3    7.02    1.94
   4  -3   3    4.62    2.04
  -4   3   3    5.74    2.07
  -3  -4  -1  515.71    9.05
   3  -4   1  528.36    6.77
   3  -4   1  525.46    6.80
  -3   4   1  515.18    7.01
  -4  -3  -1  504.03    8.69
   4  -3   1  507.02    7.86
  -4   3   1  518.36    6.43
  -3   4   1  524.05    7.96
  -4   3   1  510.37    7.50
   4  -3   1  511.06    8.74
   4  -3   1  508.40    5.77
  -3   4  -1  503.32    8.10
  -3  -4   1  528.23    9.18
  -4   3  -1  514.09    5.85
  -3   4  -1  524.95    6.90
   4  -3  -1  496.15    6.25
   3   4   1  516.33    7.24
   3  -4  -1  520.67    8.04
  -4  -3   1  514.15    8.86
   4  -3  -1  495.51    7.26
  -4   3  -1  516.04    7.95
  -4  -3   3    7.34    2.16
  -3   4  -3    5.41    1.29
  -3  -4   3    6.36    1.37
   3  -4  -3    7.14    2.09
  -4   3  -3    4.49    1.90
   4   3   3    3.72    1.73
   4   3   3    7.33    2.11
   3   4   3    5.85    1.87
   4  -3  -3    6.26    1.96
  -4  -3   3    5.97    1.44
  -3   4  -3    4.92    2.11
  -4   3  -3    4.95    1.91
  -4  -3   3    4.15    0.91
  -3  -4   3    2.78    1.96
  -3   4  -3    5.53    1.70
   3   4   3    5.41    1.83
   4   3   5   32.41    3.18
  -3   4  -5   37.24    3.41
   3  -4  -5   35.27    3.25
   3   4   5   41.26    3.33
  -4  -3   5   39.21    3.49
   4   3   5   39.04    2.86
  -4   3  -5   28.32    1.31
  -3   4  -5   34.23    2.82
   3   4   5   39.82    3.27
  -3  -4   5   39.71    2.58
  -4   3  -5   35.85    3.41
   4  -3  -5   39.10    3.27
  -3   4  -5   37.31    1.86
  -3  -4   5   36.25    3.23
  -3   4  -5   38.77    2.55
  -4   3  -5   38.32    3.29
   3  -4  -7   91.58    5.02
   4  -3  -7   91.83    5.14
  -3   4  -7   86.80    3.32
  -3  -4   7   88.90    4.96
  -4   3  -7   87.53    3.01
  -4   3  -7   83.99    2.75
   3   4   7   92.47    4.81
  -4   3  -7   83.02    5.01
  -4  -3   7   87.22    5.16
   4   3   7   93.59    4.54
  -3   4  -7   87.47    4.84
  -3   4  -7   82.28    4.86
  -3   4  -9    8.35    1.84
  -4   3  -9    6.34    1.69
  -4   3  -9    4.77    2.60
  -3   4  -9    9.21    1.87
   4  -3  -9   14.03    3.21
  -4  -3   9   10.31    2.72
  -4   3  -9    9.05    1.73
  -3  -4   9    8.80    2.62
  -3   4  -9    9.88    2.87
   4   3   9    2.41    2.04
   3  -4  -9   12.50    3.08
  -3   4 -11   40.30    4.45
  -4   3 -11   42.00    4.68
  -3   4 -11   38.98    3.48
  -3   4 -11   46.37    3.41
  -3  -4  11   44.77    4.51
  -4   3 -11   37.13    3.16
  -3   4 -11   40.99    4.48
  -4   3 -11   39.65    2.98
   4  -3 -11   38.65    4.66
  -4   3 -11   38.30    4.40
   3  -4 -11   40.92    4.42
  -3   4 -13   68.45    5.85
   3  -4 -13   65.75    6.08
   4  -3 -13   71.55    6.10
  -4   3 -13   66.27    4.24
  -3   4 -13   64.29    4.48
  -4   3 -13   63.34    6.05
  -3   4 -13   62.25    5.93
  -4   3 -13   63.84    5.74
  -3   4 -15   18.20    4.62
  -4   3 -15   11.76    3.87
  -3   4 -15   11.22    3.06
  -4   3 -15   10.42    3.71
   4  -3 -15   15.06    4.35
  -3   4 -15   15.14    4.11
   3  -4 -15   14.52    4.34
  -4   3 -15   16.77    3.22
   4  -3 -17   -3.40    3.47
  -3   4 -17   -3.73    3.48
  -4   3 -17    3.26    3.21
  -4   3 -17    1.27    2.52
  -3   4 -17   -0.15    2.58
   3  -4 -17    5.93    4.06
  -3   4 -17   -0.35    3.42
  -4   3 -17   -1.67    3.42
  -3   4 -19    3.12    3.65
  -3   4 -19   10.69    3.29
   4  -3 -19   12.44    4.67
  -4   3 -19    4.03    3.82
  -4   3 -19   11.54    4.47
  -3   4 -19    9.69    4.31
  -4   3 -19    0.61    2.76
   3  -4 -19    9.31    4.11
   3  -4 -21   -0.15    4.26
   4  -3 -21    2.10    4.06
  -4   3 -21   -4.42    3.95
  -3   4 -21    6.37    4.37
  -4   3 -21   -0.78    3.98
  -3   4 -21    2.16    3.90
  -3   4 -23    9.58    4.79
   4   4 -22   -0.88    3.86
  -4  -4 -22    7.31    4.35
   4   4 -22   -1.49    4.64
  -4   4  20   -0.79    3.82
   4   4 -20   14.92    5.13
   4   4 -20    7.80    3.97
  -4  -4 -20   -0.77    4.23
   4  -4  20    3.52    3.70
   4   4 -20    4.45    3.71
  -4  -4 -20    1.93    3.42
   4   4 -18    5.09    3.46
  -4  -4 -18   -0.85    3.44
   4   4 -18   -4.00    4.09
   4   4 -18   -3.29    2.85
   4  -4  18    0.68    2.85
  -4   4  18    5.33    3.70
   4   4 -16    3.67    3.05
   4  -4  16    8.87    3.19
   4   4 -16    6.01    3.67
  -4  -4 -16    2.49    2.95
   4   4 -16    6.36    3.12
   4   4 -14   27.94    4.60
   4   4 -14   34.87    4.48
   4  -4  14   28.89    4.16
  -4  -4 -14   30.74    4.39
  -4   4  14   24.29    2.65
   4   4 -14   31.92    4.12
   4  -4  12   46.43    4.24
  -4  -4 -12   55.15    4.76
  -4   4  12   47.54    2.79
   4   4 -12   52.77    4.66
   4   4 -12   52.68    4.56
   4  -4  10   -1.99    2.00
   4   4 -10    1.44    2.35
  -4  -4 -10   -2.00    2.60
   4   4 -10    2.46    2.32
  -4   4  10   -0.84    1.13
  -4   4   8  147.19    2.95
   4   4  -8  175.74    5.78
  -4  -4  -8  174.95    6.45
  -4  -4  -6   34.04    2.90
   4   4  -6   33.23    2.39
  -4  -4  -6   34.20    3.47
   4  -4   4   19.49    2.59
   4  -4   4   14.66    2.52
  -4   4   4   15.22    2.73
  -4  -4  -4   13.76    2.22
  -4   4   4   13.63    1.06
  -4  -4  -4   14.85    2.28
  -4   4   4   15.61    2.45
   4  -4   4   15.13    2.76
  -4  -4  -4   13.19    2.60
   4  -4   2  220.23    4.07
  -4  -4  -2  223.53    6.47
  -4   4   2  221.12    4.30
   4  -4   2  193.59    2.71
   4  -4   2  218.24    5.46
   4  -4   2  220.02    6.62
   4  -4   2  218.41    6.01
  -4   4   2  227.94    5.98
  -4   4   0  760.80    9.42
   4  -4   0  755.94    9.03
  -4   4   0  766.66    8.99
  -4  -4   0  763.39   11.51
   4   4   2  242.76    6.21
   4   4   2  218.07    5.76
  -4  -4   2  220.05    3.80
  -4   4  -2  222.76    4.19
  -4  -4   2  220.09    6.54
  -4   4  -2  217.59    6.02
   4  -4  -2  218.87    5.84
  -4  -4   2  224.55    3.70
  -4   4  -4   17.39    1.55
  -4  -4   4   12.68    2.48
  -4   4  -4   13.88    2.10
   4   4   4   16.06    2.49
   4   4   4   13.23    2.15
   4  -4  -4   14.22    2.52
  -4   4  -4   17.20    2.73
  -4  -4   4   15.31    1.59
  -4   4  -4   14.36    1.26
  -4   4  -6   29.91    1.60
  -4   4  -6   30.86    3.44
   4   4   6   35.42    3.57
   4   4   6   36.65    3.26
   4  -4  -6   38.00    3.64
  -4  -4   6   31.63    3.48
  -4   4  -6   34.31    3.41
  -4  -4   8  180.43    7.39
  -4   4  -8  176.23    7.42
  -4   4  -8  169.34    4.50
   4  -4  -8  177.42    7.36
  -4   4  -8  171.68    4.45
  -4  -4  10    0.88    2.53
  -4   4 -10    0.67    1.51
  -4   4 -10    1.55    2.91
  -4   4 -10    5.45    1.78
   4  -4 -10    0.22    2.65
  -4   4 -12   54.17    5.34
   4  -4 -12   55.01    5.39
  -4   4 -12   46.64    3.66
  -4   4 -12   56.52    5.38
  -4  -4  12   58.43    5.38
  -4   4 -12   56.39    3.71
  -4   4 -14   27.41    3.38
  -4   4 -14   26.17    4.53
   4  -4 -14   31.47    4.86
  -4   4 -14   31.33    5.12
  -4   4 -16    5.30    3.60
   4  -4 -16    7.22    3.80
  -4   4 -16    1.28    3.28
  -4   4 -16    3.55    2.67
   4  -4 -18   11.19    4.30
  -4   4 -18   -1.97    3.26
  -4   4 -18    1.90    2.63
  -4   4 -18    7.32    4.32
  -4   4 -20    6.52    4.42
  -4   4 -20    2.21    4.04
   4  -4 -20   11.24    4.74
  -4   4 -22   -7.46    4.92
   4  -4 -22    1.75    4.58
   5   0  -1    3.03    1.62
   5   0   1    5.20    1.46
  -5   0  -1    5.70    1.39
   0  -5   1    6.53    1.85
   5   0   1    6.38    1.53
   0  -5  -1    5.49    2.04
  -5   0   1    4.81    1.77
   5   0  -1    5.71    1.20
   0  -5  -1    5.58    1.35
   5   0  -1    4.76    1.67
  -5   0  -1    5.29    1.32
   0   5  -1    4.97    1.83
   5   0  -3   65.46    3.21
   0  -5  -3   65.63    3.78
   5   0  -3   66.99    3.55
   5   0   3   62.51    2.03
   5   0   3   63.62    3.36
   0   5  -3   64.56    3.22
  -5   0   3   63.58    3.50
  -5   0  -3   60.03    3.20
  -5   0  -3   64.97    2.68
   0  -5   3   65.34    3.33
   0   5   3   61.77    2.98
   0  -5   3   68.12    3.62
  -5   0   3   64.56    3.51
   5   0  -3   68.30    3.61
  -5   0  -5  107.94    5.08
   5   0  -5  105.26    4.88
  -5   0   5  106.07    4.64
   0   5   5  104.94    4.39
   0   5  -5  111.22    4.79
   0  -5  -5  113.00    5.12
   0  -5   5  108.20    4.72
   5   0   5  101.62    2.77
   5   0  -5  102.11    4.65
  -5   0  -5  104.71    4.74
   0  -5   5  107.36    4.33
  -5   0   5  105.25    4.94
  -5   0   5   99.11    4.63
   0   5  -5  108.26    4.46
   0   5  -5  116.84    5.34
   0   5  -7   55.96    4.15
   0  -5   7   50.90    3.95
   5   0  -7   51.64    2.44
   0   5  -7   60.66    4.39
  -5   0   7   57.69    4.09
   5   0  -7   50.68    4.14
   0  -5  -7   52.38    4.06
  -5   0  -7   50.33    2.45
   0   5  -7   54.25    3.82
   5   0   7   53.97    2.54
   0  -5   7   54.08    3.62
  -5   0  -7   48.19    3.89
   0   5  -7   59.73    4.08
   0   5  -9   11.30    2.66
   5   0  -9   11.31    2.90
   0   5  -9   11.66    2.73
   0  -5   9   10.29    2.64
   5   0   9    7.11    1.70
  -5   0   9    6.69    2.70
   5   0  -9    6.37    1.55
   0  -5  -9    9.19    2.92
  -5   0  -9    9.24    1.84
  -5   0  -9    5.64    2.76
   0   5 -11   60.26    5.06
  -5   0 -11   64.05    3.76
   5   0  11   65.60    3.86
  -5   0 -11   65.90    5.45
  -5   0  11   69.07    5.30
   5   0 -11   67.15    3.51
   0  -5 -11   66.06    5.26
   0   5 -11   65.93    5.15
   5   0 -11   72.58    5.52
   5   0 -13   44.41    3.51
  -5   0  13   48.42    5.24
   0  -5 -13   46.81    5.14
   5   0 -13   49.64    5.42
   0   5 -13   49.19    4.97
  -5   0 -13   43.91    3.69
  -5   0 -13   41.46    4.96
   0   5 -13   47.52    4.58
   0   5 -13   47.47    5.03
   5   0 -15    3.44    2.12
  -5   0 -15    1.70    2.45
   0   5 -15    7.06    3.64
   0  -5 -15    6.13    3.54
  -5   0  15    8.93    3.59
   0   5 -15    8.46    3.77
   5   0 -15    7.32    3.77
  -5   0 -15    6.30    3.88
   0   5 -15    9.96    3.35
   5   0 -17   -0.75    3.62
  -5   0 -17    1.93    3.39
  -5   0 -17   -0.58    2.55
   5   0 -17    5.92    2.57
   0  -5 -17    1.67    3.23
   0   5 -17    6.60    3.49
   5   0  17    2.30    2.81
   0   5 -17   -1.57    2.98
  -5   0  17    6.32    3.56
   0   5 -17    1.95    3.25
   0   5 -19   19.44    4.65
   0   5 -19   14.20    4.34
   5   0  19   17.94    4.59
  -5   0  19   12.54    4.25
  -5   0 -19   14.47    3.65
   0   5 -19   18.86    4.71
   5   0 -19   13.64    4.70
   5   0 -19   19.53    4.92
  -5   0 -19   12.47    4.82
   0  -5 -19   18.82    4.69
   5   0 -21    7.63    4.25
   0   5 -21    1.62    3.50
  -5   0 -21   15.19    5.05
   5   0 -21    6.17    4.45
   0  -5 -21    9.96    4.68
   0   5 -21    7.92    4.21
  -5   0  21    4.15    4.30
   5   0  21   13.75    4.54
   0   5 -21   -0.69    3.89
   5   0 -23   -0.97    4.56
   0   5 -23    4.16    4.39
   0   5 -23    5.32    4.31
   0  -5 -23   -1.07    4.39
   5   0  23   -0.53    4.21
   5   1 -24   -8.06    4.90
   1   5 -24    3.93    4.72
   1   5 -22   -0.93    3.85
   1   5 -22    1.96    4.02
   5  -1  22   -5.11    4.06
   5   1 -22    1.65    4.16
   1   5 -22   -2.89    4.01
  -1  -5 -22    8.22    4.77
   5   1 -22    2.24    4.48
  -5   1  20    1.47    3.72
   5  -1  20    5.95    3.46
   1   5 -20   10.64    4.54
  -1  -5 -20   18.38    5.15
  -5  -1 -20   15.85    3.91
  -5  -1 -20   13.24    4.87
   5   1 -20   15.70    4.97
   1   5 -20   16.66    4.93
   5   1 -20    5.77    3.92
   1   5 -20   18.47    4.56
   5   1 -18   12.11    4.27
   1   5 -18   14.18    3.97
  -5   1  18    8.31    3.43
  -5  -1 -18   14.44    3.58
   5   1 -18   13.52    4.02
   1   5 -18   11.60    3.96
  -5  -1 -18   11.09    4.38
   5   1 -18    9.73    3.14
   1   5 -18   13.31    4.10
   5  -1  18    1.10    3.21
  -1  -5 -18   11.86    4.39
   1   5 -16   -2.71    3.14
  -5  -1 -16   -1.74    3.93
  -5  -1 -16   -0.10    2.95
   5   1 -16    4.36    3.86
  -5   1  16    0.18    3.08
   5   1 -16   -4.82    3.44
   5   1 -16   -2.43    2.50
   5  -1  16   -1.19    2.66
   1   5 -16    2.31    3.11
  -1  -5 -16    2.38    3.25
   1   5 -16    2.24    3.35
   1   5 -14    9.30    3.66
   5   1 -14   16.88    2.92
  -5  -1 -14   17.44    4.46
   5   1 -14   13.11    3.95
  -5   1  14   18.50    4.00
  -1  -5 -14   12.69    3.74
   1   5 -14   21.28    3.97
  -5  -1 -14   12.91    3.08
   1   5 -14    9.38    3.57
   5  -1  14   16.67    3.43
  -5  -1 -12   74.32    6.00
   1   5 -12   69.56    5.34
   5   1 -12   77.86    4.40
  -1  -5 -12   78.25    5.88
  -5   1  12   81.31    6.03
   1   5 -12   68.98    5.53
   5   1 -12   75.60    5.87
  -5  -1 -12   75.73    4.61
  -1   5  12   72.85    4.53
  -5   1  10   20.60    3.13
   1   5 -10   16.46    3.11
   5   1 -10   20.51    3.52
  -1   5  10   18.31    2.37
  -5  -1 -10   19.10    2.51
   5   1 -10   17.21    2.35
  -1  -5 -10   21.92    3.43
   1   5 -10   17.73    3.07
  -5  -1 -10   20.55    3.80
   1   5  -8   29.99    3.34
  -5   1   8   30.89    3.46
  -5  -1  -8   32.32    2.54
  -1  -5  -8   33.70    3.59
   5   1  -8   34.60    3.77
   5   1  -8   35.00    2.68
  -5  -1  -8   31.41    3.62
   1   5  -8   35.45    3.66
   1  -5   8   33.05    2.97
  -5   1   6   33.87    3.27
  -5  -1  -6   38.28    2.27
   1   5  -6   36.83    3.53
   5   1  -6   40.53    3.51
   1   5  -6   36.59    3.16
   5  -1   6   33.23    3.46
   1  -5   6   33.77    2.65
   5  -1   6   28.39    1.44
  -5  -1  -6   36.55    3.38
   1   5  -6   36.01    3.09
  -1  -5  -6   32.92    3.26
  -1  -5  -6   39.02    3.28
  -5   1   6   33.80    3.09
  -1   5   6   33.64    3.12
   1  -5   6   36.18    3.53
  -1   5   4   22.24    2.38
   5  -1   4   21.20    2.65
  -5  -1  -4   21.00    2.18
  -5   1   4   29.01    2.92
  -5  -1  -4   23.40    2.82
  -1  -5  -4   19.25    2.68
   1  -5   4   21.81    2.69
  -5  -1  -4   27.01    2.59
  -1  -5  -4   20.58    2.07
   1  -5   4   22.23    2.19
   1   5  -4   19.93    2.51
  -5   1   4   24.76    2.48
   5   1  -4   21.18    2.61
   5   1  -2    0.25    1.83
   1   5  -2    1.97    2.00
  -1  -5  -2    1.45    1.94
   5  -1   2    1.37    1.65
  -1  -5  -2    0.87    1.03
   5  -1   2    0.06    0.98
  -5  -1  -2    1.34    1.35
   5  -1   2    0.94    1.81
   5   1  -2   -0.38    1.47
  -5   1   2    2.47    1.69
   1  -5   2    0.37    1.43
  -5  -1  -2    0.68    1.47
   5  -1   0   13.93    1.21
   5  -1   0   16.50    1.89
  -5  -1   0   18.05    1.23
  -1   5   0   18.55    2.30
   1   5   0   14.51    0.95
   5   1   0   17.35    2.08
   5  -1   0   15.92    1.69
   1  -5   0   12.93    2.04
  -5   1   0   17.08    1.82
  -1  -5   0   14.85    2.31
   5  -1   0   15.63    1.65
   1  -5   0   17.33    2.09
  -5  -1   0   20.27    2.15
   5   1   0   16.30    1.32
   5  -1   0   16.32    1.83
  -5   1  -2    0.51    0.99
   5  -1  -2    0.94    1.77
  -5  -1   2    1.24    1.51
   5   1   2    1.91    1.49
  -5   1  -2    1.03    1.62
   5  -1  -2    0.92    1.50
   1  -5  -2    2.09    1.98
  -1   5  -2    1.14    0.96
  -1   5  -2    1.12    1.78
  -5  -1   2    0.13    1.69
  -1  -5   2    2.18    1.91
   5  -1  -2    0.63    1.23
   1  -5  -2    1.18    1.50
  -1   5  -2   -0.65    1.52
   1   5   2    0.89    1.09
  -5   1  -4   22.53    2.67
  -1  -5   4   23.55    2.44
  -5   1  -4   22.44    2.83
  -5  -1   4   21.83    2.83
  -5   1  -4   20.39    2.65
   5  -1  -4   21.42    2.62
   1  -5  -4   25.71    2.82
  -1  -5   4   22.11    2.43
   5   1   4   23.97    1.86
  -5  -1   4   23.11    2.46
   5  -1  -4   24.11    2.87
  -5   1  -4   21.51    1.55
   1   5   4   22.20    2.06
  -1   5  -4   22.39    2.09
  -1   5  -4   24.61    2.95
  -5   1  -6   32.67    3.27
  -5  -1   6   32.66    3.38
  -1  -5   6   35.31    3.15
  -1  -5   6   33.65    3.04
   5  -1  -6   28.84    1.38
  -1   5  -6   33.36    2.67
  -1   5  -6   33.08    3.22
  -5   1  -6   32.58    3.42
   5   1   6   33.61    2.34
   5  -1  -6   33.98    3.35
  -5   1  -6   31.35    1.46
  -1   5  -6   33.10    3.48
   1  -5  -6   35.34    3.59
  -5  -1   6   38.34    3.40
  -1   5  -6   32.41    2.96
  -5  -1   8   32.83    3.55
   5  -1  -8   35.92    3.79
  -1   5  -8   31.55    2.92
  -5   1  -8   33.47    2.10
  -5   1  -8   31.93    3.62
  -5   1  -8   35.21    3.87
   5  -1  -8   31.42    1.78
   1  -5  -8   31.63    3.89
   5   1   8   31.41    2.61
  -1   5  -8   36.76    3.66
  -1   5  -8   30.15    3.59
  -1  -5   8   35.66    3.28
  -5   1 -10   19.41    3.55
  -5  -1  10   21.30    3.39
  -1   5 -10   20.11    3.69
   5   1  10   20.32    2.61
   1  -5 -10   21.50    3.63
  -5   1 -10   17.20    3.48
   5  -1 -10   26.24    3.91
   5  -1 -10   19.21    1.90
  -5   1 -10   19.93    2.23
  -1   5 -10   19.99    3.43
  -1  -5  10   17.11    3.05
  -5   1 -12   75.38    6.14
   5  -1 -12   79.72    6.23
   5  -1 -12   72.50    3.59
  -5   1 -12   73.08    5.89
  -5   1 -12   78.10    4.23
  -5  -1  12   81.32    6.12
   1  -5 -12   76.45    5.93
  -1   5 -12   82.05    5.94
  -1   5 -12   76.19    5.79
   5  -1 -14   16.53    2.67
  -5   1 -14   13.39    4.01
   5  -1 -14   19.82    4.34
  -5  -1  14   12.47    3.70
  -5   1 -14   17.74    4.07
  -1   5 -14   19.18    3.60
   1  -5 -14   10.67    3.48
  -1   5 -14   11.07    3.58
  -1   5 -14   13.49    3.86
  -5   1 -14   18.68    2.98
  -5   1 -16    0.63    3.04
   1  -5 -16   -0.31    3.65
  -5   1 -16    3.32    2.62
  -1   5 -16    0.50    3.06
  -1   5 -16    2.69    3.15
   5  -1 -16   -3.30    3.43
  -5   1 -16    0.08    3.31
  -5  -1  16    3.08    3.11
   5  -1 -16   -0.68    2.10
  -1   5 -16   -2.00    3.43
   5  -1 -18   18.82    4.88
  -1   5 -18    7.01    3.51
   1  -5 -18    9.46    3.98
  -5  -1  18   12.17    4.18
  -1   5 -18    9.78    3.50
  -1   5 -18   16.50    4.55
  -5   1 -18   11.13    4.17
  -5   1 -18   12.36    3.35
  -1   5 -20    9.59    3.81
   5   1  20   16.70    4.55
   5  -1 -20    5.86    4.27
  -5   1 -20    8.40    4.34
  -5  -1  20   19.39    5.28
  -1   5 -20   11.53    4.20
   1  -5 -20   11.98    4.55
   5   1  22   -1.17    3.89
   5  -1 -22   -5.23    4.52
  -1   5 -22   -5.14    4.28
  -1   5 -22   -5.05    4.19
   1  -5 -22    6.14    4.59
   5  -1 -22   -7.40    5.05
  -1   5 -22    3.54    4.69
   5   2 -23    2.32    4.30
   2   5 -23    0.98    4.09
   2   5 -23   -6.05    5.03
  -2  -5 -23   -1.27    4.44
   5  -2  23    3.30    4.01
   5   2 -21    2.67    4.16
   5  -2  21    2.03    3.63
  -2  -5 -21    5.18    4.22
   5   2 -21   -1.53    3.81
  -5  -2 -21    5.13    4.34
  -2   5  21    0.05    3.86
   2   5 -21    9.55    4.46
   2   5 -21   11.86    4.52
  -5   2  21    2.88    4.19
   2   5 -21    1.62    3.67
  -5   2  19   12.13    4.43
   5   2 -19   18.37    4.52
   2   5 -19   14.23    4.30
   2   5 -19   15.14    4.16
   5   2 -19   14.31    4.66
   5  -2  19   14.03    4.04
  -5  -2 -19    5.31    3.87
   2   5 -19   12.28    4.32
  -5  -2 -19    6.55    3.32
  -2  -5 -19   12.62    4.20
  -5  -2 -17   -2.02    3.24
   5   2 -17    1.24    3.14
   5   2 -17   -2.32    3.61
   2   5 -17    8.95    3.77
   2   5 -17   -0.28    3.38
  -5   2  17    0.70    3.20
  -5  -2 -17    4.07    2.93
  -2  -5 -17   -1.82    3.44
   5  -2  17    2.71    3.02
   2   5 -17    3.97    3.33
   5   2 -17    0.64    2.66
   5   2 -15    4.68    2.56
  -5   2  15    2.24    3.29
   2   5 -15    1.21    2.98
   2   5 -15    2.93    3.07
   5  -2  15   -5.42    3.18
  -5  -2 -15    4.75    3.45
   5   2 -15    0.80    3.47
   5   2 -15    4.32    2.90
   2   5 -15    0.61    3.14
  -5  -2 -15    0.34    2.84
  -2  -5 -15    5.54    3.36
  -5  -2 -13   48.30    5.63
  -5   2  13   49.10    5.19
   5  -2  13   48.40    4.50
   5   2 -13   47.86    4.02
   5   2 -13   56.23    4.92
  -5  -2 -13   49.52    4.23
   2   5 -13   51.91    4.99
   5   2 -13   50.49    5.50
  -2  -5 -13   49.39    4.98
  -2   5  13   45.18    3.68
   2   5 -13   41.03    4.54
  -5   2  11   35.34    4.20
  -5  -2 -11   28.26    3.23
   5   2 -11   29.05    3.50
  -2  -5 -11   32.28    3.89
  -2   5  11   32.66    2.97
   2   5 -11   30.66    3.85
   2   5 -11   32.84    3.95
   5   2 -11   27.45    2.94
   5   2 -11   31.34    4.30
   5  -2  11   27.59    3.30
  -5  -2 -11   29.12    3.96
   2   5  -9   11.61    2.81
   5   2  -9   16.87    2.62
  -2   5   9   12.14    1.94
  -5   2   9   17.25    3.04
   2   5  -9   16.11    2.67
   5   2  -9   14.77    2.39
  -5  -2  -9   16.72    2.39
  -2  -5  -9   21.31    3.23
   5  -2   9   13.81    2.30
  -5  -2  -7  121.59    4.41
  -2  -5  -7  114.36    5.19
   2   5  -7  111.05    4.95
   2  -5   7  116.30    4.33
  -2  -5  -7  119.41    5.62
   5   2  -7  124.47    4.36
  -5   2   7  121.42    5.43
  -5  -2  -5   54.30    2.89
   2   5  -5   50.99    3.83
  -2   5   5   55.19    3.69
  -5   2   5   56.36    3.83
   2   5  -5   53.77    3.20
   2  -5   5   57.57    4.10
   5  -2   5   57.93    3.96
  -5   2   5   57.45    3.89
  -2  -5  -5   54.29    3.70
  -2  -5  -5   56.70    3.38
   2  -5   5   47.99    2.59
   5   2  -5   56.00    3.66
  -5   2   5   60.38    3.49
  -5  -2  -5   56.95    3.92
   5   2  -5   58.17    2.38
  -5  -2  -3   32.29    2.60
  -5   2   3   33.14    2.29
  -5   2   3   38.08    3.02
  -2  -5  -3   36.41    2.35
  -5   2   3   35.57    3.11
   2  -5   3   37.53    2.21
   5  -2   3   33.48    2.95
   2  -5   3   33.32    3.00
   5  -2   3   37.56    3.13
  -5  -2  -3   36.46    2.66
  -2  -5  -3   35.11    2.98
  -2   5   3   35.54    2.76
   2  -5   1   10.97    1.23
   5  -2   1   11.60    1.28
  -5   2   1   12.29    1.23
   2  -5   1   11.69    1.89
   5   2  -1   15.44    2.36
   5  -2   1   11.85    1.99
   5  -2   1   12.01    1.21
   5  -2   1   11.82    1.99
  -5  -2  -1   12.15    2.02
  -2  -5  -1    9.84    2.19
  -2   5   1   12.31    2.14
  -5  -2  -1   14.16    1.40
   2  -5   1   11.37    1.68
   5   2  -1    9.65    1.54
  -2  -5   1   11.96    2.27
   5  -2  -1   10.16    1.65
  -5  -2   1   13.62    2.13
  -5   2  -1   12.56    2.05
   5  -2  -1   11.12    1.67
   2   5   1   12.61    1.44
   5  -2  -1   12.11    1.55
   5   2   1   10.09    1.92
   2  -5  -1    9.42    2.09
  -2   5  -1    9.25    1.83
   2  -5  -1   10.19    1.97
  -5  -2   3   34.41    2.90
  -2   5  -3   37.41    2.24
  -2   5  -3   31.72    2.12
  -2  -5   3   38.45    3.19
   2   5   3   38.06    2.50
   2  -5  -3   38.06    2.85
  -2   5  -3   35.86    3.17
  -5  -2   3   37.53    2.56
   5   2   3   39.39    2.48
   5  -2  -3   34.89    2.74
  -2   5  -3   37.35    2.50
   5  -2  -3   32.30    1.37
   2   5   3   35.34    1.98
  -2  -5   3   37.47    2.57
  -5   2  -3   31.14    2.88
   5  -2  -3   34.04    2.81
   2  -5  -3   33.77    3.04
  -5   2  -3   33.99    2.83
  -5  -2   5   56.74    4.06
  -2   5  -5   52.17    3.19
  -5   2  -5   55.81    3.74
   2  -5  -5   50.57    3.89
  -2   5  -5   51.07    2.67
  -5   2  -5   54.71    3.89
   5  -2  -5   56.52    3.70
  -2  -5   5   52.03    3.66
  -2  -5   5   55.24    3.26
   5   2   5   54.66    2.97
  -2   5  -5   50.17    3.88
   5  -2  -5   57.35    3.85
  -5  -2   5   56.26    3.45
  -5   2  -5   53.43    3.85
  -5  -2   7  128.45    6.05
  -2   5  -7  114.32    5.82
   5   2   7  124.25    4.62
  -2  -5   7  122.50    5.14
  -2  -5   7  117.74    5.49
   5  -2  -7  133.04    6.11
  -2   5  -7  117.73    5.10
  -5   2  -7  121.20    5.99
  -5   2  -7   99.99    2.52
  -2   5  -7  110.24    4.22
   2  -5  -7  124.57    5.95
  -5  -2   7  109.42    5.36
  -2   5  -7  115.45    5.09
  -2   5  -9   12.84    2.93
  -2   5  -9   14.09    2.23
  -2  -5   9   13.49    2.80
   2  -5  -9   11.84    2.96
   5   2   9   16.62    2.58
  -5   2  -9   18.98    3.46
  -5  -2   9   20.43    3.46
   5  -2  -9   14.18    3.14
  -2   5  -9   17.89    3.32
  -5   2  -9   15.59    1.71
   2  -5 -11   26.08    3.93
  -5   2 -11   38.21    4.37
  -2  -5  11   30.15    3.87
   5  -2 -11   29.59    4.13
  -5   2 -11   30.80    2.65
  -5   2 -11   28.59    4.22
  -2   5 -11   32.13    4.27
  -2   5 -11   31.12    4.14
  -5   2 -13   45.88    5.15
   2  -5 -13   49.75    5.37
  -2   5 -13   51.57    4.39
  -5   2 -13   43.65    3.53
  -5   2 -13   48.08    5.30
  -2   5 -13   52.68    5.30
   5  -2 -13   56.44    5.80
  -2   5 -13   49.89    5.29
   5  -2 -15    5.54    3.63
  -2   5 -15    2.31    2.66
  -2   5 -15    4.70    3.23
  -5   2 -15   -1.88    3.60
  -2   5 -15    1.99    3.27
   2  -5 -15   -2.43    3.41
  -5   2 -15    3.55    3.67
  -5   2 -15    0.71    2.24
   5  -2 -17    5.94    3.71
  -5   2 -17   -1.44    3.26
  -5   2 -17    3.37    3.44
  -2   5 -17    4.64    3.26
   2  -5 -17   -0.32    3.49
  -2   5 -17    6.82    3.56
  -5   2 -17    6.56    2.66
  -2   5 -17    3.82    2.83
  -2   5 -19   18.27    4.76
   5  -2 -19   23.87    5.61
  -2   5 -19   17.60    4.10
  -2   5 -19   14.26    4.55
   2  -5 -19   17.70    5.16
  -5   2 -19   15.86    4.75
  -5   2 -19   16.96    5.14
   5  -2 -21    4.09    4.19
  -2   5 -21    3.62    3.86
   2  -5 -21    6.56    4.60
  -5   2 -21    2.70    3.97
  -2   5 -21    7.57    4.56
  -2   5 -23   -4.79    4.50
   5  -2 -23    1.79    4.38
   5   2  23   -0.28    4.43
   5   3 -24    6.68    4.70
  -3  -5 -24    0.97    4.45
   5   3 -22   10.84    5.09
   3   5 -22    7.97    4.67
   5   3 -22   -0.62    3.88
   3   5 -22   -2.64    3.85
   3   5 -22    3.58    4.20
  -3  -5 -22    1.40    3.90
   5  -3  22   -1.09    3.69
   3   5 -20   11.11    3.99
   3   5 -20    5.75    3.79
  -5  -3 -20   11.26    4.49
   5   3 -20   12.51    3.96
   3   5 -20    7.54    4.40
   5  -3  20   12.56    4.46
   5   3 -20   13.26    4.78
  -3  -5 -20   16.17    4.67
  -3   5  20   11.37    4.46
  -5   3  20    8.05    3.96
  -5  -3 -20    4.90    3.89
  -3  -5 -18    4.14    3.83
   3   5 -18    5.77    3.60
   5   3 -18    6.03    3.03
   3   5 -18    9.28    3.84
  -5  -3 -18    1.62    3.54
   5   3 -18    2.27    3.26
   5  -3  18    6.07    3.32
   5   3 -18    8.20    4.06
   3   5 -18    2.62    3.22
  -5   3  18   -4.26    3.94
  -5  -3 -18    5.65    3.34
   5  -3  16    3.88    2.78
   5   3 -16    5.87    3.30
   3   5 -16    3.44    2.88
  -5   3  16    9.22    3.95
   5   3 -16    3.22    3.33
  -5  -3 -16    2.28    3.70
   3   5 -16    5.13    3.43
   5   3 -16   -2.09    2.99
   3   5 -16    9.21    3.36
  -5  -3 -16    0.48    2.76
  -3  -5 -16    6.33    3.52
   3   5 -14   34.55    4.43
   5  -3  14   26.56    3.97
   5   3 -14   31.86    4.83
  -5  -3 -14   20.14    3.42
   3   5 -14   25.49    4.15
   5   3 -14   32.29    4.36
   5   3 -14   24.70    3.66
  -3   5  14   26.99    2.95
   3   5 -14   35.18    4.88
  -3  -5 -14   27.36    4.15
  -5   3  14   32.97    4.98
   3   5 -12   64.07    5.11
  -5  -3 -12   63.78    4.70
   5   3 -12   59.51    5.63
  -3  -5 -12   69.32    5.36
   5   3 -12   62.82    4.44
  -5   3  12   60.50    5.38
  -3   5  12   55.73    3.38
   5  -3  12   59.35    4.63
   5   3 -12   68.15    4.94
   3   5 -12   61.81    5.06
   5   3 -10   -2.49    2.21
   5   3 -10    4.80    2.20
  -3  -5 -10    6.23    2.68
  -5  -3 -10    2.93    2.06
  -3   5  10    4.55    1.52
   3   5 -10   -0.79    2.43
   3   5 -10   -0.26    2.21
   5  -3  10    1.99    1.83
  -5  -3  -8  128.24    5.16
   3   5  -8  130.70    5.37
  -3  -5  -8  130.64    5.86
   5   3  -8  133.82    4.90
   5  -3   8  126.70    4.86
   5  -3   6   73.26    3.06
  -3  -5  -6   79.59    4.28
   3  -5   6   76.27    2.99
   3   5  -6   69.00    3.62
  -3  -5  -6   77.86    4.54
  -5  -3  -6   76.84    3.78
   5  -3   6   70.95    4.47
   5   3  -6   78.24    3.09
  -3  -5  -4   26.14    2.36
   5  -3   4   24.20    2.82
   5  -3   4   22.34    2.88
  -5   3   4   30.39    3.12
  -5   3   4   26.43    2.85
  -3  -5  -4   28.87    2.89
  -3   5   4   29.28    2.95
  -3   5   4   22.04    2.84
   5  -3   4   25.16    3.00
  -5  -3  -4   24.25    2.72
  -5  -3  -4   24.39    2.70
   3  -5   4   26.70    3.06
   3  -5   4   27.85    1.80
   5   3  -4   22.74    1.26
   3  -5   2   71.39    2.92
   5  -3   2   69.86    3.81
  -5  -3  -2   73.74    3.86
   3  -5   2   71.51    2.50
   5  -3   2   66.43    1.99
  -3   5   2   73.13    3.87
  -3  -5  -2   65.20    3.90
  -5   3   2   75.53    2.49
   5  -3   2   72.33    3.92
  -5   3   2   76.58    3.59
   3  -5   2   71.94    4.19
   5  -3   2   75.80    3.79
   3  -5   0  370.84    6.98
  -5   3   0  382.00    6.73
   5   3   0  387.73    8.12
   5  -3   0  371.08    5.31
   5   3   0  381.43    5.33
  -3   5   0  373.57    7.19
  -3   5   0  363.88    7.00
  -5  -3   0  383.68    8.04
   5  -3   0  381.80    6.67
  -3  -5   0  362.29    8.20
   5  -3   0  375.55    5.95
  -5   3   0  384.21    6.03
   5  -3  -2   78.38    3.30
   3   5   2   77.10    3.23
   5  -3  -2   76.01    2.46
   5   3   2   70.38    3.89
  -5  -3   2   78.22    2.97
  -5  -3   2   72.31    4.06
  -5   3  -2   62.84    1.94
  -3  -5   2   68.24    4.04
   5   3   2   75.24    3.82
  -3   5  -2   71.98    3.89
  -3   5  -2   71.59    3.08
   3  -5  -2   76.24    3.89
   5  -3  -2   75.08    3.52
   3  -5  -2   76.73    3.99
  -5   3  -2   72.32    3.76
  -3   5  -4   26.89    3.08
  -5   3  -4   21.31    2.88
  -3   5  -4   28.63    2.11
  -5   3  -4   25.78    2.83
   5   3   4   27.77    3.09
   3   5   4   25.42    2.63
  -3  -5   4   25.40    2.99
  -5  -3   4   25.09    2.29
   5  -3  -4   28.98    2.96
   3  -5  -4   29.86    3.22
   5   3   4   27.87    2.59
  -5   3  -4   26.79    2.93
   3   5   4   31.32    3.13
  -5  -3   4   27.96    3.14
  -3  -5   4   26.75    2.18
   3  -5  -4   27.72    2.89
  -3   5  -4   29.87    2.54
  -3   5  -4   29.33    1.82
  -3   5  -6   75.53    4.21
   3  -5  -6   75.08    4.65
  -5  -3   6   69.39    4.61
  -3   5  -6   71.45    4.58
   5   3   6   76.91    4.85
  -3  -5   6   76.45    3.73
   5   3   6   72.07    3.82
  -3   5  -6   72.13    2.87
  -3  -5   6   74.02    4.45
  -5   3  -6   56.83    1.84
   5  -3  -6   78.64    4.75
  -3   5  -6   77.72    3.68
  -5   3  -6   78.61    4.86
  -3   5  -8  137.69    6.71
  -3  -5   8  129.51    5.44
  -5  -3   8  134.71    6.69
  -5   3  -8  138.38    3.85
   5   3   8  138.82    5.53
   3  -5  -8  134.41    6.52
  -5   3  -8  117.29    3.11
   5   3   8  135.19    6.77
  -5   3  -8  133.89    6.67
   5  -3  -8  132.13    6.47
  -3   5  -8  128.35    5.33
  -3   5  -8  123.22    4.41
  -3  -5   8  138.42    6.36
  -3   5 -10    3.80    1.83
  -5   3 -10    4.71    2.97
   3  -5 -10    0.45    2.66
  -3  -5  10    4.43    2.58
   5  -3 -10    0.73    2.66
  -5   3 -10    8.21    2.95
  -3   5 -10    3.14    2.61
  -5   3 -10    1.82    1.45
  -3   5 -10    0.34    2.22
  -5   3 -10    1.20    1.41
  -5  -3  10    1.72    2.85
  -5   3 -12   53.18    3.83
  -3   5 -12   62.42    5.70
   3  -5 -12   60.90    5.58
  -5   3 -12   64.33    5.68
  -3   5 -12   59.11    4.16
   5  -3 -12   61.95    5.83
  -5   3 -12   63.89    5.92
  -3   5 -12   56.61    5.55
  -5   3 -12   60.08    3.56
  -3  -5  12   58.97    5.25
   3  -5 -14   37.61    5.20
  -3   5 -14   34.25    5.05
  -3   5 -14   31.06    3.71
  -5   3 -14   32.12    4.95
  -5   3 -14   35.28    4.86
  -5   3 -14   29.43    3.22
  -3   5 -14   20.22    4.54
   5  -3 -14   32.28    4.95
  -3   5 -16    1.53    3.17
   5  -3 -16    4.94    3.97
   3  -5 -16   12.03    4.07
  -3   5 -16    8.41    3.99
  -5   3 -16    7.53    3.99
  -3   5 -16    3.52    2.49
  -5   3 -16    0.72    3.31
  -5   3 -16    9.88    2.71
   5  -3 -18    2.64    4.12
  -5   3 -18    2.28    3.80
  -3   5 -18    1.38    3.45
   3  -5 -18    6.87    4.50
  -3   5 -18    3.98    2.86
  -5   3 -18    0.87    3.78
  -3   5 -18    4.71    3.70
  -3   5 -20    8.63    4.61
  -5   3 -20    0.70    4.26
   3  -5 -20    8.38    4.50
  -3   5 -20    8.77    4.39
  -5   3 -20    6.24    4.47
   5  -3 -20   12.63    4.95
   3  -5 -22   -3.99    5.01
  -3   5 -22   -4.32    4.68
  -4  -5 -23    6.23    4.55
   5   4 -23    1.17    4.12
   4   5 -23   -6.00    4.56
  -4  -5 -21    8.48    5.52
   5  -4  21    3.06    3.72
   4   5 -21    4.54    4.34
   4   5 -21    6.20    3.97
   4   5 -21    7.72    4.27
   5   4 -21    8.63    4.19
  -4   5  21   -6.89    4.21
  -5  -4 -21    5.16    4.55
  -5  -4 -21    7.69    4.11
  -4  -5 -21   14.28    4.73
  -5   4  21   -0.98    3.93
   5   4 -21    3.13    4.74
  -5  -4 -19   12.60    4.33
  -4  -5 -19    7.85    3.54
  -5  -4 -19    5.35    3.91
   5   4 -19   12.17    3.81
   5   4 -19    7.18    4.78
  -5   4  19    5.88    4.14
  -4   5  19    8.67    4.13
   5  -4  19    8.62    3.94
   4   5 -19    6.70    3.79
   4   5 -19    2.89    3.27
   4   5 -19    0.46    3.84
   5   4 -19    2.96    3.47
   5  -4  17   -3.34    2.87
  -5  -4 -17    0.32    3.04
  -5   4  17    3.90    3.34
   4   5 -17    0.55    2.95
   5   4 -17   -1.74    3.06
   5   4 -17    2.35    3.23
   5   4 -17   -1.83    3.57
   4   5 -17    6.53    3.88
  -4  -5 -17    0.51    3.05
   4   5 -17   -1.22    2.97
  -5   4  15   12.79    3.81
  -4  -5 -15   10.61    3.52
   4   5 -15    9.04    3.88
   5   4 -15   11.17    4.28
   4   5 -15    9.49    3.42
   4   5 -15    6.13    3.05
   5   4 -15   13.75    3.57
  -5  -4 -15   11.62    3.50
   5   4 -15    8.52    3.18
   5  -4  15    2.46    2.62
   5   4 -13   41.15    4.38
  -4  -5 -13   53.07    5.09
  -4   5  13   43.89    2.96
  -5  -4 -13   54.23    4.72
   5   4 -13   45.22    5.53
   4   5 -13   49.58    4.83
   5   4 -13   48.52    4.51
   5  -4  13   45.97    4.42
   4   5 -13   47.25    4.74
  -4   5  11    6.69    1.40
   5   4 -11   10.38    2.65
   4   5 -11   10.74    2.59
  -4  -5 -11   10.32    3.17
   5   4 -11    8.56    2.60
   5  -4  11    9.22    2.52
   4   5 -11    9.69    2.90
  -5  -4 -11    4.42    2.36
   4   5  -9   90.40    4.70
  -4  -5  -9   93.85    5.29
  -5  -4  -9   94.46    4.97
   5  -4   9   84.93    4.35
  -4   5   9   81.38    2.73
   5   4  -9   87.33    4.42
   5   4  -7  208.42    5.41
   4   5  -7  207.72    5.89
  -5  -4  -7  204.24    6.51
  -4  -5  -7  206.14    6.95
   5  -4   7  203.45    7.37
   4  -5   5   62.48    2.10
  -4  -5  -5   74.16    4.27
   5   4  -5   78.93    2.78
   4  -5   5   78.18    4.23
  -5   4   5   81.17    4.66
   5  -4   5   73.22    4.37
  -4  -5  -5   75.39    4.08
  -5  -4  -5   80.50    4.40
  -5  -4  -5   75.01    4.57
  -4   5   3    3.75    2.18
   5  -4   3    1.45    1.92
   5  -4   3    0.80    1.82
   5  -4   3    4.73    2.18
   4  -5   3    4.00    0.92
  -5   4   3    3.37    0.99
  -4  -5  -3    6.51    2.36
  -5  -4  -3    6.38    2.44
   4  -5   3    5.82    2.29
   4  -5   3    7.81    2.34
   4  -5   3    3.21    1.63
  -5   4   3    5.13    2.17
  -4   5   3    4.58    1.44
  -5   4   1  362.52    6.97
   4  -5   1  375.74    6.54
   4  -5   1  361.76    6.55
   5  -4   1  358.10    5.76
  -5   4   1  357.24    6.29
   5  -4   1  359.76    7.39
  -4  -5  -1  375.90    8.78
  -4   5   1  366.23    6.74
  -5  -4  -1  365.14    8.46
   5  -4   1  354.93    7.38
  -4   5   1  357.01    7.34
   5  -4   1  363.95    8.43
   4   5   1  360.28    7.02
   5  -4  -1  364.10    7.02
  -5   4  -1  362.96    7.45
  -5  -4   1  357.63    8.50
  -5   4  -1  361.91    5.79
  -4   5  -1  358.23    7.61
  -4  -5   1  362.49    8.66
   4  -5  -1  370.29    7.50
  -4   5  -1  361.70    6.52
   5  -4  -1  357.90    6.22
   4  -5  -3    6.33    2.25
  -5  -4   3    6.86    2.40
  -5  -4   3    3.30    0.79
   5   4   3    0.79    1.94
   4   5   3    8.86    2.45
  -5   4  -3    3.46    2.03
   5  -4  -3    1.07    1.85
  -4   5  -3    4.73    1.33
   4   5   3    7.21    1.97
   5   4   3    4.57    1.94
  -4  -5   3    6.98    1.43
  -5   4  -3    3.72    0.92
  -4   5  -3    4.99    2.18
  -5  -4   3    5.79    1.40
  -4  -5   3    1.60    2.14
  -4  -5   5   82.70    4.94
  -4   5  -5   80.36    4.17
   5   4   5   79.15    4.59
  -4   5  -5   70.61    2.15
  -5   4  -5   85.29    4.91
   5   4   5   82.26    4.24
  -5   4  -5   77.44    4.34
   4   5   5   78.29    4.38
  -4  -5   5   75.57    3.31
   4  -5  -5   78.51    4.62
   5  -4  -5   83.92    4.78
   4   5   5   73.06    4.36
  -4   5  -5   76.51    2.86
  -4   5  -5   80.15    4.76
  -4   5  -5   76.58    3.22
  -5  -4   5   76.14    4.71
   4  -5  -7  208.90    7.76
  -4  -5   7  200.98    7.54
  -5  -4   7  208.77    7.88
  -5   4  -7  172.44    3.38
   5   4   7  199.31    7.57
  -4   5  -7  202.09    4.42
   5   4   7  212.80    6.94
   5  -4  -7  205.39    7.80
  -4  -5   7  211.45    6.15
  -4   5  -7  208.09    7.96
  -5   4  -7  173.93    3.49
  -5   4  -7  204.19    7.85
   4  -5  -9   86.40    5.73
  -4  -5   9   84.77    5.65
  -4   5  -9   83.69    5.81
  -4   5  -9   85.46    3.71
  -5   4  -9   87.27    3.35
   5  -4  -9   91.71    5.89
  -5   4  -9   85.38    3.10
  -5   4  -9   83.93    5.85
  -5  -4   9   98.28    6.04
   5  -4 -11    8.43    3.44
  -4   5 -11    8.52    3.06
  -5   4 -11    9.30    1.84
  -5   4 -11    7.75    3.14
   4  -5 -11   14.78    3.74
  -4   5 -11    8.26    2.04
  -5   4 -11    7.57    1.93
  -4   5 -11    9.25    3.46
  -4   5 -11    6.74    2.06
  -4  -5  11   17.01    3.55
  -5  -4  11    3.63    2.90
  -5   4 -11    8.39    3.12
  -5   4 -13   39.65    5.10
   4  -5 -13   52.02    5.59
   5  -4 -13   48.74    5.49
  -5   4 -13   49.75    5.55
  -4   5 -13   46.32    3.78
  -5   4 -13   41.18    3.62
  -4   5 -13   53.83    5.80
  -4   5 -13   46.43    5.47
  -4  -5  13   40.55    5.06
  -5   4 -13   47.38    3.53
  -5   4 -15    2.42    3.41
  -4   5 -15    1.40    3.29
   5  -4 -15   14.11    4.27
  -4   5 -15    6.84    4.03
  -4   5 -15    6.12    2.39
  -5   4 -15    9.15    2.66
  -5   4 -15    9.93    3.94
   4  -5 -15   11.58    4.15
  -5   4 -17    3.82    3.58
  -4   5 -17   -0.73    3.44
  -4   5 -17   -1.93    2.58
  -4   5 -17    5.82    3.80
   4  -5 -17    7.18    4.23
  -5   4 -17   -1.34    3.78
  -5   4 -17    4.82    2.78
   5  -4 -17    4.30    3.86
  -5   4 -19    8.43    4.11
   5  -4 -19    7.45    4.43
  -5   4 -19    8.97    4.44
  -4   5 -19    4.01    3.80
   4  -5 -19    4.67    4.33
  -4   5 -19    9.88    4.25
   4  -5 -21   -0.45    4.38
  -5   4 -21    6.12    4.30
  -4   5 -21    7.66    4.47
  -5   4 -21    7.54    4.49
  -4   5 -21    8.03    4.77
   5  -4 -21   -0.77    4.44
   5   5 -22   -4.17    4.03
   5   5 -22  -10.81    5.16
   5   5 -20    6.89    4.47
  -5   5  20    5.65    4.13
   5   5 -20    7.30    3.80
  -5  -5 -20    4.58    4.43
  -5  -5 -20    0.67    3.78
   5   5 -20    2.99    3.45
  -5  -5 -18    1.53    3.30
   5   5 -18   -0.71    2.96
  -5   5  18    6.62    3.78
   5   5 -18   -2.41    3.75
   5   5 -18   -0.42    3.10
  -5  -5 -16   21.54    4.03
   5   5 -16   16.63    4.65
   5   5 -16   12.41    3.42
   5   5 -16   15.93    3.72
   5   5 -14   29.84    4.10
  -5  -5 -14   37.80    4.52
   5   5 -14   36.47    4.48
   5   5 -12   54.65    4.55
  -5   5  12   38.94    2.05
  -5  -5 -12   49.48    4.64
   5   5 -12   51.97    4.68
   5   5 -10    2.66    2.00
   5   5 -10    1.01    2.48
  -5  -5 -10    1.81    2.33
  -5   5  10    0.74    0.54
  -5  -5  -8  127.61    5.87
   5   5  -8  120.34    4.76
   5  -5   6   79.86    4.69
   5   5  -6   77.78    3.30
  -5  -5  -6   76.97    4.43
  -5   5   4   17.07    2.88
  -5  -5  -4   12.56    2.66
   5  -5   4   12.30    2.39
  -5   5   4   13.30    1.33
  -5   5   2  657.47   10.70
   5  -5   2  656.11   10.14
  -5  -5  -2  656.54   12.08
   5  -5   2  610.48    5.59
   5  -5   2  651.91    7.88
  -5   5   2  662.08    8.47
   5  -5   2  682.30   11.27
  -5   5   0 1175.58   12.46
  -5   5   0 1175.81   13.14
  -5  -5   0 1142.86   15.74
   5  -5   0 1157.81   12.37
  -5  -5   2  657.13    6.78
  -5   5  -2  668.43   11.25
  -5   5  -2  671.57    8.13
   5   5   2  643.07   10.54
  -5  -5   2  655.01   12.24
   5  -5  -2  666.66   10.74
  -5  -5   2  658.14    6.64
   5   5   2  656.71   11.47
  -5  -5   4   14.81    1.51
  -5   5  -4   12.89    2.58
   5  -5  -4   14.46    2.62
   5   5   4   13.48    2.59
   5   5   4   17.56    2.71
  -5  -5   4   14.23    1.76
  -5   5  -4   13.13    1.39
  -5   5  -4   18.16    2.33
  -5   5  -4   16.52    1.48
  -5  -5   4   12.57    2.70
  -5   5  -6   70.63    2.41
  -5  -5   6   72.47    4.94
   5  -5  -6   79.99    4.87
  -5   5  -6   76.18    5.05
   5   5   6   75.74    4.69
  -5  -5   8  127.66    6.57
  -5   5  -8  126.41    6.71
  -5   5  -8  115.85    3.25
   5  -5  -8  120.92    6.48
   5  -5 -10    2.08    2.76
  -5   5 -10    2.42    1.45
  -5  -5  10    1.80    2.86
  -5   5 -10    4.82    3.13
  -5   5 -10   -0.06    1.45
  -5   5 -10    7.83    3.01
  -5   5 -12   48.34    5.44
  -5   5 -12   44.00    3.44
  -5   5 -12   48.17    5.30
  -5  -5  12   57.14    5.83
  -5   5 -12   44.52    3.16
   5  -5 -12   57.13    5.66
  -5   5 -14   33.55    5.28
   5  -5 -14   31.62    5.19
  -5   5 -14   44.60    5.72
  -5   5 -14   33.13    3.31
  -5   5 -16   13.24    2.83
  -5   5 -16   22.12    4.78
  -5   5 -16   14.75    4.58
   5  -5 -16   16.20    4.45
  -5   5 -18   -1.02    3.37
  -5   5 -18    6.78    3.86
   5  -5 -18    5.41    3.99
  -5   5 -20   -6.85    4.63
   5  -5 -20    5.85    4.57
  -5   5 -20    1.25    3.53
  -6   0   0  116.59    3.91
   6   0   0  113.67    3.99
   6   0   0  115.32    3.32
   0  -6   0  117.03    4.62
   6   0   2   11.36    1.64
   6   0   2   14.02    2.51
   6   0   2   10.93    1.82
   0  -6  -2   10.43    0.93
  -6   0  -2   10.42    1.64
   6   0  -2   11.33    2.13
  -6   0   2    9.90    1.99
   6   0  -2   14.01    1.94
   0   6  -2   14.67    2.29
   0  -6  -2   10.67    2.53
   0  -6  -2   12.70    1.75
   0  -6   2   10.79    2.10
   6   0  -2    9.99    2.06
  -6   0  -2   12.43    1.73
  -6   0   4   69.75    4.09
   0  -6   4   72.14    3.74
   6   0  -4   65.36    3.80
  -6   0   4   73.19    4.00
   0   6   4   73.17    3.51
  -6   0  -4   72.20    3.00
   0  -6  -4   70.54    4.33
   6   0   4   65.36    2.23
   6   0  -4   70.48    3.74
  -6   0  -4   71.05    3.76
   0   6  -4   68.89    3.57
   0  -6   4   75.90    4.18
   6   0  -4   73.23    4.06
   6   0   4   67.05    3.78
  -6   0   6   34.65    3.51
   0   6  -6   29.54    3.28
   0   6   6   39.85    3.29
   6   0  -6   32.72    3.54
  -6   0  -6   34.68    3.41
   0  -6  -6   40.00    3.76
   6   0   6   30.50    1.84
   0   6  -6   37.39    3.42
   0  -6   6   38.38    3.05
   0   6  -6   35.69    3.14
   0   6  -8    8.34    2.85
   0  -6   8    9.59    2.47
   0   6  -8    4.44    2.21
   0   6  -8    9.32    2.55
  -6   0   8    7.08    2.42
   6   0   8    5.94    1.43
   6   0  -8    7.12    2.87
  -6   0  -8    6.55    2.73
   0  -6  -8    4.35    2.31
   6   0  -8    7.05    1.45
  -6   0  -8    9.85    1.52
   0   6 -10   44.09    4.33
   0   6 -10   49.22    4.63
   0  -6 -10   42.97    4.49
   6   0 -10   49.74    2.84
   0  -6  10   40.86    3.77
   6   0 -10   43.69    4.63
  -6   0 -10   47.34    2.92
  -6   0  10   47.24    4.42
  -6   0 -10   42.41    4.42
   6   0  10   40.23    2.84
   0   6 -12   93.35    6.52
   0  -6 -12   93.32    6.53
  -6   0  12   92.78    6.58
  -6   0 -12   80.31    6.39
  -6   0 -12   90.74    4.56
   0   6 -12   91.09    6.39
   6   0 -12   89.85    4.16
   6   0 -12   97.75    6.78
   6   0  12   80.90    4.37
   0   6 -14   18.77    3.71
   0   6 -14   15.11    3.92
  -6   0 -14   16.04    4.36
  -6   0 -14   18.43    3.13
   0   6 -14   15.85    4.10
   6   0 -14   22.18    4.44
   6   0 -14   16.72    2.59
   0  -6 -14   22.19    4.46
  -6   0  14   18.90    4.23
  -6   0 -16   -0.14    3.32
  -6   0 -16    0.25    2.45
   0  -6 -16   -1.51    3.50
   0   6 -16    3.40    2.81
   6   0 -16    0.11    3.63
   6   0 -16   -0.03    2.13
  -6   0  16   -1.12    3.08
   0   6 -16   -3.92    3.73
   0   6 -16    0.47    3.05
   0   6 -18   13.33    4.26
  -6   0 -18   11.97    4.90
   6   0 -18    9.30    4.04
  -6   0  18    7.36    3.81
   0   6 -18    8.99    4.06
   0   6 -18    6.74    3.14
   0  -6 -18    8.43    4.39
  -6   0 -18    8.75    3.18
   6   0 -18   16.16    4.70
   6   0  18    5.98    3.69
   6   0  20   19.83    4.97
  -6   0 -20    8.23    4.61
   0   6 -20    9.58    4.12
   0  -6 -20   12.19    4.72
   6   0 -20    9.64    5.07
   6   0 -20   16.38    4.85
  -6   0  20   14.13    4.45
   0   6 -20   15.04    4.49
   0   6 -20   17.86    4.65
   0   6 -22   -1.54    4.15
   0   6 -22    1.16    4.11
   0   6 -22    4.82    4.33
   6   0  22   -6.12    4.26
   0  -6 -22   -2.36    4.40
   6   0 -22   -0.54    4.07
   1   6 -23    2.00    4.17
   6   1 -23   -0.24    4.20
  -1  -6 -23   -0.01    4.37
   1   6 -23    2.51    4.26
   6  -1  23    2.67    4.41
  -6   1  21    6.39    4.45
   1   6 -21    3.06    3.65
   6  -1  21    8.33    3.92
   1   6 -21    7.88    4.48
   6   1 -21    5.37    4.33
  -6  -1 -21    5.73    4.62
   6   1 -21    1.78    4.19
  -1  -6 -21   -1.83    4.01
   1   6 -21   10.76    4.85
  -6  -1 -19    7.98    4.36
   1   6 -19   18.19    5.10
  -1  -6 -19   15.82    4.84
   1   6 -19   12.18    4.24
  -6   1  19   26.14    5.79
   6   1 -19   16.55    4.78
   6   1 -19   13.62    4.69
   1   6 -19   18.42    4.63
   6  -1  19    9.49    3.90
   6   1 -17    3.44    3.76
  -6   1  17    4.81    3.12
   6  -1  17    4.53    3.01
  -6  -1 -17   -2.92    3.92
   1   6 -17   -2.61    3.54
   1   6 -17   -5.84    3.69
  -1  -6 -17    0.09    3.33
   6   1 -17    5.95    3.55
  -6  -1 -17   -2.75    2.66
   1   6 -17   -1.86    3.53
   6   1 -15    7.09    2.51
  -1  -6 -15    3.02    3.64
  -6   1  15    2.38    3.15
   1   6 -15   10.87    3.67
   6  -1  15   11.70    3.27
   1   6 -15   12.53    3.89
  -6  -1 -15   13.52    4.08
  -6  -1 -15    7.74    2.94
   1   6 -15    8.76    3.30
   6   1 -15    7.07    3.94
   6   1 -15    8.90    3.68
   1   6 -13   54.37    5.68
   1   6 -13   41.67    4.69
  -6  -1 -13   50.72    4.08
  -1  -6 -13   42.63    5.08
   6   1 -13   43.40    3.61
  -6  -1 -13   41.90    5.43
   6   1 -13   50.96    5.51
  -6   1  13   46.94    5.18
  -6   1  11   82.91    5.88
  -1   6  11   69.74    4.37
   6   1 -11   81.20    6.05
  -1  -6 -11   78.27    5.71
   1   6 -11   69.23    5.19
   6   1 -11   73.71    3.91
  -6  -1 -11   72.29    4.02
   1   6 -11   74.92    5.69
  -6  -1 -11   69.00    5.53
  -6  -1  -9    0.13    1.64
   6   1  -9    0.17    2.48
   1   6  -9   -4.29    2.56
   6   1  -9    0.25    1.54
  -6  -1  -9   -1.70    2.59
   1  -6   9   -1.62    1.93
  -6   1   9    1.80    2.13
  -1  -6  -9   -1.08    2.38
   1   6  -9    3.25    2.49
  -6   1   7   21.67    2.96
  -1  -6  -7   21.58    3.02
   1  -6   7   20.22    2.49
  -6  -1  -7   26.08    3.28
   1   6  -7   21.84    2.91
  -6  -1  -7   23.01    1.97
  -1  -6  -7   23.88    3.32
   6  -1   7   17.75    1.30
   1   6  -7   23.51    3.34
  -6   1   5   57.34    3.58
   6  -1   5   53.81    3.88
  -6  -1  -5   50.98    3.55
  -6  -1  -5   56.81    3.20
  -1  -6  -5   62.20    4.19
  -1  -6  -5   58.22    3.23
  -1   6   5   55.05    3.59
   1   6  -5   56.42    3.75
   6   1  -5   56.08    3.84
   1  -6   5   55.00    3.27
   1  -6   3    4.26    2.20
   6   1  -3    5.67    1.93
  -6   1   3    1.80    1.83
   1   6  -3    2.55    1.79
  -6   1   3    5.78    1.98
  -6  -1  -3    5.27    1.58
  -1  -6  -3    4.50    1.32
   6  -1   3    4.13    1.93
  -6  -1  -3    7.09    1.83
  -1  -6  -3    5.12    2.12
   6  -1   3    4.07    1.93
   1  -6   3    2.64    1.69
  -1   6   3    3.07    1.61
   6   1  -3    3.17    1.69
   1   6  -1   36.32    3.03
  -6   1   1   38.79    2.66
   6  -1   1   39.14    2.79
   1  -6   1   39.93    2.82
  -1  -6  -1   38.20    3.16
   6   1  -1   37.32    2.97
   6   1  -1   41.56    2.88
  -6  -1  -1   37.72    2.03
  -6  -1  -1   39.20    2.61
  -1  -6  -1   43.55    2.06
   6  -1   1   34.54    2.44
   6  -1   1   36.98    2.15
   6   1  -1   36.19    1.51
  -1   6   1   36.45    3.14
   6  -1  -1   37.52    2.06
   6  -1  -1   37.57    2.43
   6   1   1   38.05    2.15
   6  -1  -1   42.42    3.13
   1  -6  -1   38.92    2.66
   1  -6  -1   36.58    3.09
  -6   1  -1   38.03    2.18
   6  -1  -1   35.96    2.50
   6  -1  -1   39.99    2.62
  -1   6  -1   39.30    3.06
  -1  -6   1   41.19    3.18
   6   1   1   38.74    2.75
  -6  -1   1   36.22    2.82
   6   1   3    3.12    1.32
  -6  -1   3    1.89    1.85
  -1  -6   3    2.87    1.82
  -6   1  -3    1.47    1.66
  -6   1  -3    4.54    1.16
   6  -1  -3    4.77    2.04
  -1  -6   3    1.45    1.71
   6  -1  -3    1.70    1.64
   1  -6  -3    1.95    1.99
  -6  -1   3    6.19    1.89
   1   6   3    3.03    1.31
  -1   6  -3    2.74    1.71
   1  -6  -3    3.62    1.78
  -1   6  -3    2.02    1.19
   6  -1  -3    2.71    1.89
  -6   1  -5   57.96    2.39
  -6   1  -5   55.59    3.77
  -1  -6   5   56.63    3.74
  -1   6  -5   56.45    4.20
   1  -6  -5   54.92    4.08
   6   1   5   58.92    2.68
   6  -1  -5   59.71    3.92
  -6  -1   5   58.29    4.36
  -6  -1   5   55.57    3.66
  -1   6  -5   55.02    3.31
   6  -1  -5   60.17    4.04
   1   6   5   58.02    3.35
  -1  -6   5   52.93    3.57
   6  -1  -5   60.28    4.13
   6  -1  -7   19.85    3.12
  -6  -1   7   26.36    3.51
  -6   1  -7   22.73    3.11
   6   1   7   21.12    2.09
  -1   6  -7   24.57    3.51
  -1  -6   7   17.85    2.76
  -1   6  -7   20.11    2.70
  -6   1  -7   17.98    1.21
  -1   6  -7   19.11    2.96
  -6   1  -7   20.96    3.25
   1   6   7   26.78    3.14
   1  -6  -7   24.70    3.39
   6  -1  -7   18.78    1.28
   6  -1  -9    3.81    2.68
  -1   6  -9   -1.43    2.52
  -1   6  -9   -1.80    1.84
   6  -1  -9    0.11    0.95
   6   1   9    1.02    1.55
  -6   1  -9   -3.43    2.45
   1  -6  -9    2.50    2.64
  -6   1  -9    2.86    2.45
  -6   1  -9    0.31    1.16
  -1   6  -9   -1.01    2.50
  -1  -6   9   -2.39    2.34
  -1  -6  11   71.84    5.26
  -6   1 -11   69.73    5.88
  -6   1 -11   72.77    5.82
  -1   6 -11   76.85    5.89
   6  -1 -11   78.09    6.05
  -6   1 -11   69.07    3.49
  -6  -1  11   77.30    5.83
   1  -6 -11   77.31    5.85
   6   1  11   74.96    4.21
  -1   6 -11   70.17    5.48
   6  -1 -11   66.91    2.97
   6  -1 -13   43.27    3.00
  -6   1 -13   42.57    5.24
  -6   1 -13   41.79    3.39
  -6  -1  13   51.23    5.56
  -1   6 -13   44.49    5.10
  -1   6 -13   44.83    5.08
   6  -1 -13   53.23    5.55
   1  -6 -13   46.14    5.38
  -6   1 -13   41.59    5.22
  -1   6 -15    8.28    3.16
  -1   6 -15   10.24    3.71
   6  -1 -15    4.17    3.50
   6  -1 -15    4.26    1.96
  -6  -1  15    9.11    3.77
  -6   1 -15    5.67    2.45
  -6   1 -15    1.89    3.26
   1  -6 -15    8.10    3.84
  -1   6 -15    1.18    3.57
  -6   1 -17    2.92    2.52
   6  -1 -17    0.94    3.95
  -6  -1  17    3.68    3.49
   1  -6 -17    1.34    3.65
  -1   6 -17    3.57    3.06
  -6   1 -17   -3.56    3.75
  -1   6 -17    2.11    3.50
  -1   6 -17    5.55    4.27
  -1   6 -19   10.73    4.56
  -1   6 -19   11.71    4.06
   1  -6 -19   16.57    5.14
  -1   6 -19   10.08    4.11
  -6  -1  19    4.28    3.74
   6  -1 -19   19.98    5.12
  -6   1 -19   11.58    4.65
   6  -1 -21    5.46    4.43
   6  -1 -21    9.85    4.56
  -6   1 -21   -1.29    4.10
  -1   6 -21    2.43    3.48
   1  -6 -21    6.58    4.57
  -1   6 -21    7.64    4.42
  -1   6 -21   -2.32    3.90
   6   1  21    9.88    4.24
  -1   6 -23   -0.08    4.29
   6   1  23   -1.78    4.09
   6  -1 -23    2.42    4.76
   2   6 -22   -3.34    4.83
   2   6 -22   -2.63    3.95
   6  -2  22    3.43    4.28
   6   2 -22    0.14    3.87
  -2  -6 -22   -0.89    4.17
   2   6 -22    3.12    4.49
   6  -2  20    7.43    3.98
   2   6 -20   13.02    4.43
   2   6 -20    8.51    3.98
   6   2 -20   16.58    5.71
   2   6 -20   10.97    4.55
  -2  -6 -20    5.01    4.03
  -6   2  20    7.35    4.42
   6   2 -20    9.50    4.11
  -6  -2 -20    7.55    4.54
  -6   2  18   -5.92    3.60
   6   2 -18   13.18    4.56
  -6  -2 -18   18.10    4.93
   6   2 -18    6.06    3.66
  -2  -6 -18    8.56    3.91
   6  -2  18    6.35    3.33
   2   6 -18    5.17    3.68
   2   6 -18    6.73    3.56
  -6  -2 -18    2.82    3.16
   2   6 -18    3.46    3.28
  -6  -2 -16   -0.83    3.62
   2   6 -16    2.15    3.06
   2   6 -16    2.79    3.21
  -6   2  16   -1.61    3.15
   6   2 -16    1.84    3.52
   6   2 -16   -2.88    2.94
  -2  -6 -16    3.76    3.50
   6  -2  16   -3.61    3.05
   6   2 -16   -1.81    2.63
   2   6 -16    4.28    3.35
  -6  -2 -16   -0.85    2.49
  -6   2  14   14.33    3.90
  -6  -2 -14   15.85    4.25
   6   2 -14   13.26    3.77
   2   6 -14   20.87    4.17
   6   2 -14   21.47    3.70
   6   2 -14   18.55    3.13
  -6  -2 -14   22.51    3.51
  -2  -6 -14   15.11    4.01
   2   6 -14   14.41    3.79
   6  -2  14   18.88    3.27
  -2   6  12   38.41    3.29
  -6  -2 -12   37.66    5.02
   6   2 -12   40.54    4.03
   6  -2  12   32.12    3.60
  -6  -2 -12   40.19    3.76
   6   2 -12   33.77    3.47
   2   6 -12   37.57    4.76
  -2  -6 -12   33.10    4.36
   6   2 -12   34.84    4.82
   2   6 -12   33.79    4.18
  -6   2  12   40.31    4.87
   6   2 -10    7.55    2.15
   6   2 -10   -1.14    3.01
   2   6 -10    1.68    2.48
  -6  -2 -10   -3.63    2.63
   6  -2  10    1.58    1.88
  -2   6  10    4.24    1.85
  -6  -2 -10    9.35    2.12
  -2  -6 -10    1.17    2.80
   6   2 -10    2.23    2.13
   2   6 -10   -1.72    2.64
  -6   2  10    3.00    2.38
   6  -2   8   73.33    5.23
  -2  -6  -8   70.10    4.91
  -6  -2  -8   71.96    3.68
   2   6  -8   75.22    5.09
  -6   2   8   71.15    4.67
   2   6  -8   75.24    4.53
  -6  -2  -8   70.25    5.02
   2  -6   8   75.10    3.97
  -6  -2  -6  101.10    5.00
   2  -6   6  102.31    4.04
   2   6  -6  109.25    4.86
   6  -2   6   92.83    5.33
  -2  -6  -6  105.23    5.35
  -6  -2  -6  104.42    4.67
  -2  -6  -6  108.60    4.68
  -6   2   6  104.17    4.84
  -6  -2  -4   45.10    3.16
  -6  -2  -4   46.86    3.23
   2  -6   4   43.14    2.66
   6  -2   4   47.02    3.81
  -2  -6  -4   50.47    3.68
  -6   2   4   44.59    3.00
  -2   6   4   46.53    3.33
   6  -2   4   45.18    3.75
   2   6  -4   47.21    3.62
  -2  -6  -4   46.90    2.75
   6   2  -4   41.88    1.53
   6  -2   4   46.83    3.51
  -6  -2  -2   16.32    2.32
   6   2  -2   14.97    2.03
  -2   6   2   15.90    2.46
   2  -6   2   12.83    1.86
  -2  -6  -2   14.03    2.62
   6  -2   2   13.88    2.35
   6  -2   2   18.94    2.65
   6   2  -2   19.17    2.64
   6  -2   2   12.15    2.11
   6  -2   2    9.85    1.07
   6  -2   2   14.45    1.21
  -6  -2  -2   13.40    1.64
  -2  -6   0   63.20    1.83
   2  -6   0   67.83    3.64
  -2  -6   0   67.56    3.92
   6  -2   0   65.59    3.29
   6  -2   0   68.60    2.70
   2  -6   0   62.51    1.78
  -6  -2   0   66.17    3.69
   6   2   0   63.23    3.05
   6  -2   0   64.66    3.23
  -6  -2   0   65.40    1.79
   6   2   0   65.98    3.64
   6  -2   0   63.71    2.74
  -2   6   0   67.84    3.66
   6  -2  -2   15.33    2.25
  -2  -6   2   12.93    2.40
  -6  -2   2   16.29    2.52
   6  -2  -2   15.10    1.61
   6  -2  -2   14.59    2.13
  -2   6  -2   16.59    2.21
   2  -6  -2   14.01    2.44
  -6   2  -2   15.15    2.39
   2  -6  -2   19.14    2.36
   6   2   2   15.75    2.35
   2   6   2   15.12    1.63
  -6   2  -2   10.98    1.13
  -6  -2   4   47.61    3.15
  -6   2  -4   47.56    3.45
  -2   6  -4   47.97    2.79
   2  -6  -4   51.61    3.57
  -2  -6   4   42.65    3.50
   6  -2  -4   39.93    1.49
  -2  -6   4   47.12    3.17
   2   6   4   46.65    2.55
   6   2   4   47.90    2.80
  -2   6  -4   48.47    3.97
   2  -6  -4   46.46    3.61
   6  -2  -4   48.96    3.69
  -6   2  -4   51.08    3.85
  -6  -2   4   47.71    3.73
  -2   6  -4   51.17    2.84
   6  -2  -4   51.16    3.53
  -6   2  -6  108.58    5.46
  -2   6  -6  102.76    3.96
  -2  -6   6  111.50    5.41
  -6  -2   6  116.91    5.22
  -2  -6   6  109.30    4.81
  -2   6  -6  107.76    4.58
  -2   6  -6  105.29    5.61
  -6   2  -6   92.39    2.65
   6   2   6  111.14    4.21
   6  -2  -6  106.66    5.32
  -6  -2   6  103.74    5.64
  -6   2  -6  104.28    5.64
   2  -6  -6  109.67    5.62
  -6  -2   8   77.21    5.33
  -2  -6   8   72.11    4.81
  -6   2  -8   67.49    4.94
  -2   6  -8   79.56    5.18
  -6   2  -8   57.91    1.88
   2  -6  -8   73.65    5.17
   6   2   8   73.61    3.88
  -2   6  -8   75.39    5.29
  -2   6  -8   68.22    3.72
   6  -2  -8   78.30    5.27
  -6   2  -8   76.52    5.41
  -2  -6  10    1.09    2.56
   2  -6 -10    5.92    3.14
  -2   6 -10    3.64    2.60
  -2   6 -10    3.16    2.01
   6   2  10    0.01    2.00
  -6   2 -10   -2.69    2.96
  -6   2 -10    0.91    2.67
   6  -2 -10    5.05    3.12
  -2   6 -10    4.67    3.02
  -6   2 -10    1.80    1.30
  -6  -2  10    1.43    2.66
  -2  -6  12   38.03    4.39
  -6   2 -12   30.04    4.75
  -6   2 -12   39.88    4.96
  -2   6 -12   39.23    4.78
  -6   2 -12   35.10    2.81
   2  -6 -12   33.63    4.66
  -2   6 -12   40.91    5.17
   6  -2 -12   38.92    5.09
   6  -2 -14   13.99    4.40
  -6   2 -14   12.68    4.01
  -6   2 -14   13.33    3.90
   2  -6 -14   13.25    4.05
  -2   6 -14   11.62    3.05
  -2   6 -14   15.05    4.17
  -6   2 -14    7.95    2.26
  -2   6 -14   12.18    3.92
  -2   6 -16   -1.42    2.92
  -6   2 -16   -2.56    3.31
  -6   2 -16   -0.05    3.26
   6  -2 -16    4.82    3.64
  -2   6 -16   -0.41    3.37
   2  -6 -16    5.26    4.04
  -2   6 -16   -1.17    3.26
  -6   2 -16   -0.17    2.31
   6  -2 -18    5.40    4.33
  -2   6 -18    3.11    3.71
  -6   2 -18   10.10    4.28
   2  -6 -18   11.34    4.37
  -2   6 -18    8.26    4.57
  -2   6 -18    8.30    3.59
  -2   6 -20    8.81    4.47
  -6   2 -20   13.58    4.96
   6  -2 -20    8.18    5.01
   2  -6 -20    9.51    4.57
  -2   6 -20   13.74    4.12
  -2   6 -20    4.08    4.29
   2  -6 -22   -1.45    4.87
  -2   6 -22   12.28    5.00
  -2   6 -22   -3.10    4.65
   6   2  22    4.66    3.99
   6  -3  23  -11.94    4.79
   3   6 -23   -5.29    4.98
  -3  -6 -23    5.28    4.63
   3   6 -23    3.18    4.39
  -6   3  21    3.88    4.08
   6  -3  21    8.28    3.90
   6   3 -21    9.89    5.15
   3   6 -21   13.95    5.10
   3   6 -21    7.00    3.93
   3   6 -21    7.55    4.37
  -6  -3 -21   10.95    5.59
  -3  -6 -21    5.92    4.42
   6   3 -21    1.75    3.62
   6  -3  19   11.44    3.91
  -3  -6 -19   13.23    4.35
   3   6 -19    8.02    4.39
   6   3 -19   11.97    3.92
   6   3 -19   10.79    4.76
  -6   3  19    6.36    4.22
  -6  -3 -19   15.39    4.34
   3   6 -19    8.64    4.03
  -6  -3 -19    9.17    4.46
   3   6 -19   13.63    4.05
   6   3 -17   -2.74    3.02
   6  -3  17   -2.99    3.00
   6   3 -17   -2.75    4.12
   6   3 -17   -2.78    3.03
   3   6 -17   -1.23    3.17
  -6  -3 -17   -0.08    2.91
   3   6 -17   -1.16    3.15
  -6   3  17    1.64    3.46
  -3  -6 -17    1.91    3.30
   3   6 -17   -0.84    3.48
  -6  -3 -17   -0.23    3.51
   3   6 -15    1.68    2.97
  -6  -3 -15    7.56    4.05
   3   6 -15    6.04    3.45
   6   3 -15    5.01    3.96
   3   6 -15   -3.68    3.38
   6   3 -15    1.18    2.38
  -6   3  15   10.26    3.89
   6   3 -15    6.50    3.13
  -6  -3 -15    1.16    2.59
   6  -3  15    9.02    3.03
  -3  -6 -15    7.23    3.57
  -6   3  13   32.53    4.74
  -6  -3 -13   28.25    4.93
   6   3 -13   18.61    4.23
   3   6 -13   20.94    3.86
   6   3 -13   25.99    3.63
  -3   6  13   23.27    2.75
  -6  -3 -13   28.45    3.83
  -3  -6 -13   21.45    4.07
   3   6 -13   27.10    4.18
   6   3 -13   21.78    3.40
   6  -3  13   14.93    3.13
   6  -3  11    7.01    2.32
   6   3 -11    4.95    2.42
   6   3 -11    6.22    2.54
  -3   6  11    5.32    1.72
  -3  -6 -11    5.64    2.84
   3   6 -11    6.38    3.00
  -6  -3 -11    3.86    2.39
   3   6 -11    8.33    2.52
  -6   3  11    6.95    2.79
  -6   3   9   62.12    4.83
   3   6  -9   69.34    5.11
  -3  -6  -9   68.70    4.98
   6  -3   9   60.83    3.71
  -6  -3  -9   67.70    4.13
   3   6  -9   61.86    4.31
   6   3  -9   62.00    3.72
   3  -6   7  238.26    5.80
  -3  -6  -7  250.92    8.21
   6   3  -7  255.59    5.66
  -3  -6  -7  243.06    7.52
   3   6  -7  252.74    7.18
  -6  -3  -7  262.73    6.90
   6  -3   7  245.37    8.48
  -6   3   7  255.54    7.79
   6  -3   7  242.41    5.65
   6  -3   5  241.51    7.73
  -6  -3  -5  248.91    7.22
  -3  -6  -5  251.92    7.72
   3  -6   5  236.74    5.13
  -6   3   5  254.33    6.80
   6   3  -5  237.66    3.88
  -3  -6  -5  249.59    6.57
  -6   3   3    9.45    2.13
   6  -3   3   12.97    2.47
  -3  -6  -3    8.91    2.53
  -6   3   3   11.45    1.71
   6  -3   3   14.60    2.65
   3  -6   3   12.14    1.92
   3  -6   3   11.57    1.61
  -6  -3  -3    9.80    2.32
   6  -3   3    8.39    2.30
  -3   6   3    8.67    2.36
  -6   3   1  106.41    2.70
  -3  -6  -1  100.96    4.93
   6  -3   1  108.49    4.67
   6  -3   1  107.64    4.37
   3  -6   1  103.25    4.10
  -6  -3  -1  106.73    4.73
  -6  -3  -1  107.08    2.96
   3  -6   1  104.82    3.11
   6   3  -1  105.16    3.47
   3  -6   1  106.82    3.63
  -6   3   1  105.92    3.92
  -3   6   1  107.72    4.58
   6  -3   1  103.43    3.05
   6   3  -1  107.69    4.83
   6  -3   1  105.63    2.71
  -6   3   1  100.34    3.51
   6  -3  -1  103.41    3.58
   6  -3  -1  112.40    3.71
  -3  -6   1  103.53    4.98
  -3   6  -1  103.56    4.24
   6   3   1  102.68    4.66
   3   6   1  107.78    3.50
  -6   3  -1  102.24    4.32
  -6  -3   1  106.43    4.79
  -3   6  -1  107.25    4.68
   3  -6  -1  106.99    4.61
   6  -3  -1  108.45    3.90
   3  -6  -1  105.35    4.69
   6  -3  -3   13.35    2.47
   6   3   3   10.79    2.47
   6   3   3   14.44    2.28
  -3   6  -3    9.35    1.64
   6  -3  -3   11.86    2.04
   3  -6  -3   12.13    2.55
  -3   6  -3    9.58    1.92
  -6   3  -3   11.97    2.34
  -3  -6   3   10.92    2.41
   3  -6  -3    9.21    2.13
   3   6   3    9.41    1.21
  -3   6  -3    8.20    2.25
   3   6   3   12.15    2.03
  -3  -6   3   12.57    1.85
   6  -3  -3   10.07    1.19
  -6  -3   3   11.06    1.75
  -6  -3   3   13.62    2.72
  -6   3  -3   10.56    2.36
   6  -3  -5  251.40    7.42
  -6   3  -5  244.59    7.98
  -3   6  -5  249.78    5.19
  -6   3  -5  249.89    7.79
   6   3   5  256.43    6.49
  -3  -6   5  258.79    6.46
   3  -6  -5  250.75    7.72
  -6  -3   5  245.53    7.88
  -3  -6   5  239.12    7.80
  -3   6  -5  251.58    6.47
   6   3   5  248.03    7.95
   6  -3  -5  254.35    7.56
  -3   6  -5  259.70    8.18
  -6  -3   5  251.66    6.67
   3  -6  -5  256.17    7.98
  -3  -6   7  242.13    8.15
  -6   3  -7  256.12    8.65
  -3   6  -7  255.73    8.79
  -3   6  -7  251.10    7.09
   6   3   7  245.83    8.61
  -6   3  -7  258.95    8.96
  -3   6  -7  244.48    5.73
   3  -6  -7  257.94    8.76
  -3  -6   7  252.44    7.32
   6  -3  -7  268.63    8.69
   6   3   7  272.20    7.19
  -3   6  -7  244.60    7.42
  -6  -3   7  260.07    8.88
  -6   3  -7  215.81    3.69
   6   3   9   65.40    4.18
  -6   3  -9   62.04    2.84
  -6  -3   9   68.60    5.33
  -3  -6   9   62.30    4.96
  -6   3  -9   60.67    5.03
  -6   3  -9   63.50    5.35
   6   3   9   63.84    5.38
  -3   6  -9   67.24    5.29
  -3   6  -9   68.41    5.39
   3  -6  -9   60.90    5.11
  -6   3  -9   49.08    2.03
  -3   6  -9   62.27    3.62
   6  -3  -9   55.98    4.85
  -3   6 -11    5.30    3.32
  -6   3 -11    4.79    2.98
  -6   3 -11    5.17    3.13
   3  -6 -11    3.78    3.08
   6  -3 -11    8.40    3.55
  -6   3 -11    2.68    1.65
  -3   6 -11   10.79    3.48
  -6  -3  11    4.91    3.22
  -3  -6  11    5.39    2.92
  -3   6 -11    0.10    1.94
  -6   3 -11    6.19    1.46
  -6   3 -13   22.40    2.97
  -3   6 -13   28.16    3.52
  -6   3 -13   24.49    4.50
  -3   6 -13   28.93    4.62
   3  -6 -13   25.87    4.65
   6  -3 -13   28.00    4.89
  -3  -6  13   28.64    4.60
  -6   3 -13   23.75    4.48
  -6   3 -13   25.57    2.58
  -3   6 -13   20.28    4.29
  -3   6 -15    0.93    3.35
  -3   6 -15    2.91    2.49
  -6   3 -15   11.31    3.88
   3  -6 -15    7.09    4.05
   6  -3 -15    3.41    4.02
  -6   3 -15   -0.59    3.44
  -6   3 -15    2.62    2.13
  -3   6 -15    2.67    3.77
   6  -3 -17   -2.34    3.97
  -6   3 -17   -4.80    4.13
  -3   6 -17    2.91    3.58
  -6   3 -17   -4.52    4.00
  -3   6 -17    1.05    2.56
  -3   6 -17    2.39    3.41
   3  -6 -17    8.15    4.22
   3  -6 -19   13.28    4.92
  -6   3 -19   10.67    4.63
  -3   6 -19   14.17    4.89
  -3   6 -19    8.53    4.21
  -6   3 -19   10.92    4.74
   6  -3 -19   18.29    5.15
   3  -6 -21    4.17    4.65
  -3   6 -21    9.38    5.00
  -3   6 -21    4.53    4.30
   6  -3 -21    4.54    4.34
  -6   3 -21    6.81    4.66
   4   6 -22   -9.22    4.03
   4   6 -22   -1.81    4.47
  -4  -6 -22   -0.23    4.14
   4   6 -20    1.16    3.73
   4   6 -20   -4.24    4.10
  -6  -4 -20    5.74    3.85
  -6   4  20   10.35    4.94
   4   6 -20    2.98    3.91
   6   4 -20   10.39    4.82
  -4  -6 -20    0.96    3.62
   6   4 -20    6.51    3.57
  -6  -4 -20    6.59    4.61
   6  -4  20    4.10    3.53
  -4   6  20    0.95    3.68
  -6   4  18   -4.90    3.86
  -6  -4 -18    3.34    3.15
  -6  -4 -18    0.84    3.95
   6   4 -18    3.13    4.09
   4   6 -18   -4.30    4.16
   6  -4  18    0.07    3.07
   6   4 -18    1.58    2.89
   4   6 -18   -3.77    3.54
   4   6 -18    2.45    3.74
  -4  -6 -18    0.50    3.43
   6   4 -18   -3.52    3.04
   4   6 -16   15.71    3.88
   6  -4  16   16.33    3.80
   4   6 -16   16.98    4.53
   6   4 -16   17.60    3.86
   4   6 -16   13.43    3.89
  -6  -4 -16   22.62    4.93
  -6   4  16   20.66    4.52
   6   4 -16   22.31    4.96
   6   4 -16   15.34    3.53
  -6  -4 -16    6.73    3.24
  -4  -6 -16   18.19    4.28
  -6  -4 -14   48.70    4.82
   6   4 -14   46.88    4.62
   4   6 -14   44.39    4.92
  -4  -6 -14   45.25    5.00
   6   4 -14   42.77    5.47
   4   6 -14   49.82    5.25
   6   4 -14   43.97    4.49
   6  -4  14   41.95    4.48
  -6   4  14   35.76    5.19
   4   6 -12   77.60    5.48
   6   4 -12   70.01    4.97
  -6   4  12   72.89    5.93
  -4   6  12   68.21    3.22
  -6  -4 -12   78.52    5.32
  -4  -6 -12   80.80    5.87
   6  -4  12   63.70    4.68
   6   4 -12   71.39    4.87
   4   6 -12   74.59    5.64
   6  -4  10    0.27    1.80
  -6  -4 -10   -3.70    2.30
   4   6 -10   -1.24    2.21
   6   4 -10    2.83    2.18
   4   6 -10    4.21    2.69
  -4  -6 -10   -1.90    2.56
  -4   6  10   -0.02    1.15
   4   6  -8  105.24    4.89
   6  -4   8   95.45    5.95
   6   4  -8   99.76    4.05
  -6  -4  -8  103.91    5.00
  -4  -6  -8  109.47    5.81
   6   4  -6   79.28    2.86
  -6  -4  -6   79.16    4.71
  -4  -6  -6   76.92    4.38
   6  -4   6   80.58    4.95
   4  -6   6   78.27    2.84
  -4  -6  -6   80.12    4.66
   4  -6   4   -0.23    1.05
  -6   4   4    1.11    2.03
  -6  -4  -4    3.42    2.32
  -4  -6  -4    2.22    1.78
   6  -4   4    0.59    2.06
   4  -6   4    2.15    1.91
  -4  -6  -4    0.68    2.24
   6  -4   2  542.34   10.13
   6  -4   2  548.51   10.87
  -4   6   2  539.56    8.52
  -4  -6  -2  517.30   11.05
   6  -4   2  542.25   10.12
   4  -6   2  537.24    6.86
  -6   4   2  538.34    7.24
   6  -4   2  530.75    6.21
   4  -6   2  530.72    8.16
  -4   6   2  513.54    9.98
  -6  -4  -2  549.74   10.85
  -6   4   2  541.20    9.53
   6  -4   0 1165.66   10.13
   6  -4   0 1147.62   12.68
   4  -6   0 1133.02   13.18
  -6   4   0 1152.85   12.87
   6   4   0 1155.10    9.46
   6  -4   0 1163.36   11.73
  -6  -4   0 1144.33   15.59
  -4   6   0 1124.58   13.46
  -4   6   0 1126.91   13.33
  -4  -6   0 1126.43   15.94
   6   4   0 1171.94   15.63
  -6   4   0 1166.86   11.74
  -4   6  -2  515.45   10.26
   6   4   2  533.82   10.38
  -6  -4   2  547.65   11.03
  -4  -6   2  469.50   10.59
   6  -4  -2  541.73    7.21
   6   4   2  532.62   10.64
   4  -6  -2  534.05   10.20
  -4   6  -2  527.57    8.43
   4   6   2  527.88    8.80
  -6   4  -2  549.59   10.25
   6  -4  -2  541.40    9.40
   4  -6  -2  536.99   10.93
  -6   4  -2  521.65    6.25
  -4  -6   4    2.28    1.49
  -4   6  -4   -0.46    1.61
  -6  -4   4   -0.09    2.27
   6   4   4    4.07    2.28
   4   6   4    3.55    2.02
  -6  -4   4    0.15    1.43
  -6   4  -4    0.20    2.17
  -4   6  -4   -0.23    1.42
  -4  -6   4    0.04    2.49
   6   4   4    0.30    1.88
  -4   6  -4   -0.73    2.21
  -6   4  -4    3.14    2.16
   4  -6  -4   -0.36    2.26
   6  -4  -4    4.10    2.09
   4  -6  -4    2.23    2.11
  -6  -4   6   78.09    5.22
  -6   4  -6   78.68    4.92
   6   4   6   77.37    5.00
  -4  -6   6   85.12    3.94
  -4   6  -6   84.52    5.27
   4   6   6   81.96    4.90
  -6   4  -6   83.35    5.25
  -6  -4   6   85.41    4.34
  -4   6  -6   82.91    3.79
   4  -6  -6   81.28    5.06
  -4   6  -6   84.96    4.52
   4  -6  -6   79.37    5.00
   6  -4  -6   80.44    4.95
   6   4   6   77.83    4.23
  -4  -6   6   77.92    5.16
  -4   6  -6   80.51    2.80
  -6   4  -8   75.57    2.40
  -6  -4   8  102.53    6.08
  -6   4  -8  101.05    6.03
  -4  -6   8  102.74    4.98
  -4   6  -8   99.60    4.77
  -4   6  -8  102.92    6.18
   6   4   8  102.22    6.14
  -4   6  -8  101.25    3.67
   4  -6  -8  104.95    6.10
  -6   4  -8   99.40    6.18
   6  -4  -8   98.54    6.03
  -4  -6   8   98.83    5.84
   6  -4 -10   -2.10    3.05
  -6   4 -10    1.00    1.32
  -6   4 -10    3.20    2.81
  -6   4 -10    3.95    2.95
  -4   6 -10    2.05    1.65
  -6   4 -10    0.06    1.10
  -4   6 -10    1.60    2.76
  -4   6 -10    2.18    2.85
  -4  -6  10   -2.61    2.75
  -6  -4  10    0.66    2.88
   4  -6 -10    2.80    3.00
  -4  -6  12   79.51    6.36
  -4   6 -12   74.43    6.40
  -6   4 -12   67.85    3.85
  -6   4 -12   60.88    5.85
  -4   6 -12   69.50    6.26
  -4   6 -12   67.44    4.34
  -6   4 -12   65.64    5.98
   4  -6 -12   84.00    6.60
  -6   4 -12   68.68    3.35
   6  -4 -12   78.59    6.55
  -6  -4  12   78.85    6.37
  -4   6 -12   70.80    4.28
  -4   6 -14   40.36    3.83
  -4   6 -14   38.49    5.33
   4  -6 -14   50.44    6.02
  -6   4 -14   38.67    5.25
  -4   6 -14   45.35    5.69
   6  -4 -14   50.78    5.83
  -6   4 -14   43.41    3.18
  -6   4 -14   51.91    5.91
  -4  -6  14   44.85    5.57
  -4   6 -16   17.33    3.23
  -6   4 -16   13.78    4.50
  -4   6 -16    8.36    3.78
   6  -4 -16   14.83    4.58
   4  -6 -16   13.16    4.35
  -6   4 -16    7.64    3.86
  -4   6 -16   14.86    4.40
  -6   4 -18    6.33    3.98
  -4   6 -18   -4.97    4.12
  -4   6 -18   -2.57    3.91
   4  -6 -18    6.35    4.53
  -6   4 -18   -1.36    3.81
   6  -4 -18    2.60    4.04
  -6   4 -20   -4.12    3.98
  -6   4 -20    3.56    4.10
  -4   6 -20    5.24    4.48
   6  -4 -20   -1.76    4.11
  -4   6 -20    5.52    4.24
   4  -6 -20   -0.95    4.55
  -5  -6 -21    0.06    3.90
   6   5 -21    8.09    4.95
   5   6 -21   -0.32    4.55
  -6   5  21    6.45    4.25
   5   6 -21   -1.36    3.73
   6   5 -19    6.41    4.82
   5   6 -19    0.71    3.90
   5   6 -19    7.44    3.49
  -6  -5 -19    1.89    3.60
  -5   6  19   10.17    4.62
  -6   5  19    2.79    3.63
   5   6 -19    3.99    3.33
  -5  -6 -19    5.65    3.81
  -6  -5 -19    4.53    3.95
   6   5 -19    4.64    3.57
   6   5 -17    3.74    3.97
   5   6 -17    3.09    3.23
  -5  -6 -17    0.81    3.35
   5   6 -17    6.71    4.00
   5   6 -17    0.39    3.24
  -6   5  17    0.69    3.31
   6   5 -17   -0.26    3.02
  -6  -5 -17    3.93    3.26
   6   5 -17    3.14    2.97
   6   5 -15    8.42    3.68
   5   6 -15   17.72    3.88
   6   5 -15   11.94    3.24
  -6  -5 -15   18.44    3.89
  -6   5  15    6.74    3.52
  -5  -6 -15   18.19    4.02
   6   5 -15   10.02    3.33
   5   6 -15   14.31    3.47
   5   6 -13   40.83    4.40
   6   5 -13   33.42    3.95
  -6  -5 -13   40.61    4.55
  -5  -6 -13   40.22    4.84
   6   5 -13   36.92    4.34
   5   6 -13   40.48    4.68
   5   6 -11    1.36    2.25
   6   5 -11    3.69    2.32
   5   6 -11    2.70    2.84
   6   5 -11    2.03    2.64
  -6  -5 -11    7.92    2.82
  -5   6  11    1.71    0.81
  -5  -6 -11    3.94    2.98
   5   6  -9   77.25    4.35
   6   5  -9   76.68    4.14
  -6  -5  -9   78.63    4.98
  -5  -6  -9   80.37    5.30
   6  -5   7  212.52    7.85
   6   5  -7  217.22    5.34
   5   6  -7  215.43    5.99
  -5  -6  -7  227.36    7.84
  -6  -5  -7  217.23    7.98
  -6  -5  -7  225.72    7.45
   5  -6   5   57.75    3.88
  -5  -6  -5   63.32    4.08
  -6  -5  -5   68.13    4.65
  -5   6   5   61.14    2.42
  -5  -6  -5   59.07    4.49
   6  -5   5   69.81    4.46
   6  -5   3   39.59    3.34
  -5  -6  -3   48.02    4.08
  -6   5   3   42.05    2.26
  -5   6   3   44.65    2.57
   6  -5   3   41.30    3.61
   5  -6   3   38.58    1.75
  -5   6   3   45.28    3.60
   5  -6   3   46.01    3.31
  -6   5   3   41.77    3.48
  -6  -5  -3   45.71    3.98
   6  -5   1  616.41    8.50
   6  -5   1  613.69   10.61
  -6   5   1  603.65    9.17
   6  -5   1  619.68   10.49
   5  -6   1  628.64    9.54
  -5   6   1  617.06    9.68
   5  -6   1  637.13    9.44
  -6  -5  -1  605.58   12.08
  -6   5   1  610.54    9.99
  -5  -6  -1  638.83   12.58
  -5   6   1  617.62   10.40
   5  -6  -1  640.68   10.60
  -6   5  -1  608.29   10.49
  -5   6  -1  618.04   10.94
  -6  -5   1  604.30   12.18
   6  -5  -1  609.12    9.90
  -5   6  -1  639.39    9.55
  -6   5  -1  609.25    8.53
  -5  -6   1  620.37   12.43
   5   6   1  617.31   10.11
  -6   5  -3   48.26    3.85
  -6  -5   3   35.89    1.54
   6  -5  -3   43.28    3.52
  -6  -5   3   39.51    3.95
  -5  -6   3   45.21    4.04
  -5  -6   3   48.61    2.50
  -5   6  -3   43.46    3.88
   5   6   3   44.97    3.37
  -5   6  -3   45.14    2.70
   5  -6  -3   46.83    3.85
  -6   5  -3   38.64    2.06
  -6  -5   3   46.36    2.43
   6   5   3   40.47    3.48
   5  -6  -3   45.72    3.87
  -5  -6   3   42.70    2.06
  -5   6  -5   64.56    4.68
  -6  -5   5   64.05    4.71
  -6   5  -5   65.62    4.71
   6  -5  -5   65.41    4.46
  -6   5  -5   62.76    4.60
   5  -6  -5   61.02    4.48
  -5  -6   5   60.55    4.61
  -5   6  -5   61.27    2.77
  -6  -5   5   69.37    3.51
   6   5   5   67.65    4.61
   5   6   5   61.91    4.24
  -5   6  -5   63.75    3.91
  -5  -6   5   65.33    3.11
   5  -6  -5   64.95    4.62
  -5   6  -5   67.70    3.00
   6   5   7  217.46    8.21
   5  -6  -7  220.72    8.32
  -6  -5   7  233.82    8.72
  -5  -6   7  217.05    8.38
  -6   5  -7  220.85    8.52
  -5   6  -7  224.19    8.64
  -5   6  -7  188.00    3.75
   6  -5  -7  223.50    8.27
   5   6   7  219.31    7.96
   5  -6  -7  223.20    8.51
  -5   6  -7  212.69    4.84
  -5  -6   7  228.66    6.28
  -6   5  -7  213.67    8.51
  -5   6  -9   78.82    5.99
  -5  -6   9   80.33    5.77
  -6   5  -9   61.53    2.40
  -6   5  -9   77.63    5.96
  -5   6  -9   72.39    3.09
  -5   6  -9   76.99    5.95
   5  -6  -9   77.59    5.74
  -6   5  -9   62.40    2.39
  -6  -5   9   78.34    5.86
  -6   5  -9   85.53    6.16
   6  -5  -9   81.02    5.72
  -6   5 -11   -1.54    2.99
  -5   6 -11    4.53    1.74
  -6   5 -11    5.92    1.58
  -6  -5  11    4.03    3.36
  -5   6 -11    5.63    2.98
  -5   6 -11    3.93    3.31
  -6   5 -11    4.21    3.11
   6  -5 -11    1.85    3.20
  -5   6 -11    3.31    1.80
  -5  -6  11    6.67    3.29
  -6   5 -11    4.67    1.53
   5  -6 -11    3.02    3.01
  -6  -5  13   36.36    5.39
  -5   6 -13   37.66    5.30
  -5   6 -13   31.08    4.96
  -6   5 -13   36.88    5.26
   6  -5 -13   41.59    5.19
  -6   5 -13   34.81    2.92
  -5   6 -13   30.97    3.06
  -6   5 -13   37.23    5.25
   5  -6 -13   42.39    5.55
  -5  -6  13   38.89    5.15
  -5   6 -15   16.54    4.58
  -5   6 -15   11.38    2.53
  -6   5 -15   16.42    4.33
   5  -6 -15   15.36    4.19
   6  -5 -15   16.61    4.35
  -5   6 -15    8.11    3.85
  -6   5 -15   19.92    4.95
  -6   5 -17   -2.64    3.63
  -5   6 -17    2.16    4.10
  -5   6 -17    2.88    3.66
   5  -6 -17    1.77    3.76
   6  -5 -17   -1.25    3.79
  -6   5 -17    5.09    3.91
   6  -5 -19   10.00    4.30
  -6   5 -19    4.60    4.16
  -5   6 -19   -1.05    3.96
  -5   6 -19    1.68    3.96
  -6   5 -19   -2.62    4.38
   5  -6 -19    4.38    4.28
  -6   5 -21   -6.17    5.01
  -5   6 -21   -2.69    4.21
  -6  -6 -20    1.92    4.19
  -6   6  20    7.84    4.49
   6   6 -20    4.90    4.48
  -6  -6 -20    3.14    3.84
   6   6 -18   -2.85    3.81
   6   6 -18   -2.16    3.45
  -6   6  18    1.50    3.88
  -6  -6 -18   -4.81    3.80
   6   6 -18   -1.55    3.10
   6   6 -16    0.70    3.78
   6   6 -16    5.09    3.11
  -6  -6 -16    5.72    3.52
   6   6 -16    1.63    2.97
   6   6 -14   12.31    3.14
  -6  -6 -14   14.69    3.76
   6   6 -14   13.30    3.27
   6   6 -12   21.80    3.36
   6   6 -12   23.23    3.90
  -6  -6 -12   25.55    4.08
   6   6 -10    3.45    2.10
  -6  -6 -10    2.11    2.67
  -6  -6  -8  136.72    6.52
   6   6  -8  127.69    4.78
  -6  -6  -6  131.93    6.69
   6  -6   6  127.80    6.13
   6  -6   4   15.71    2.66
  -6   6   4   20.78    1.77
  -6  -6  -4   19.18    3.23
  -6   6   2   69.79    3.37
   6  -6   2   58.25    2.10
   6  -6   2   70.05    4.00
   6  -6   2   76.09    4.57
   6  -6   2   66.24    3.13
  -6   6   2   71.19    4.29
  -6  -6  -2   71.78    4.87
  -6   6   0  295.47    7.42
  -6  -6   0  287.81    8.96
   6  -6   0  294.35    7.01
  -6   6   0  301.27    7.12
  -6  -6   2   70.95    2.55
   6   6   2   71.88    4.16
  -6  -6   2   69.24    4.91
   6  -6  -2   71.56    4.27
  -6   6  -2   66.94    4.25
  -6   6  -2   70.41    3.25
  -6  -6   4   19.28    1.65
   6   6   4   19.67    2.96
   6  -6  -4   16.69    2.90
  -6  -6   4   18.11    3.43
  -6   6  -4   15.66    3.08
  -6   6  -4   15.73    1.39
  -6   6  -4   17.94    1.77
  -6  -6   4   18.67    1.83
  -6  -6   6  142.76    7.08
   6   6   6  138.82    6.51
  -6   6  -6  138.76    6.89
   6  -6  -6  130.35    6.49
  -6   6  -6  128.25    3.32
   6  -6  -6  136.91    6.86
  -6  -6   6  138.83    5.14
  -6  -6   8  133.55    7.13
   6   6   8  141.55    7.15
  -6   6  -8  129.21    7.13
  -6   6  -8  110.85    3.20
   6  -6  -8  127.69    6.99
  -6   6  -8  128.85    7.28
  -6   6 -10    5.49    1.48
  -6  -6  10    4.36    3.02
  -6   6 -10    7.25    3.29
  -6   6 -10   10.37    3.41
  -6   6 -10    3.50    1.25
   6  -6 -10    6.25    3.52
  -6   6 -12   17.91    2.16
  -6   6 -12   19.13    4.09
  -6  -6  12   27.51    4.87
  -6   6 -12   16.06    4.04
   6  -6 -12   15.04    4.25
  -6   6 -14   19.13    4.50
  -6   6 -14   10.05    3.92
  -6  -6  14   12.75    3.93
   6  -6 -14   19.22    4.76
  -6   6 -16    4.71    3.56
  -6   6 -16    4.73    3.51
   6  -6 -16    0.16    3.68
  -6   6 -18   -1.07    3.89
  -6   6 -18   -4.43    4.49
   6  -6 -18    2.27    3.88
  -6   6 -20   10.87    5.25
   6  -6 -20   -3.69    4.30
  -6   6 -20    1.94    4.31
   7   0   1  120.30    3.98
  -7   0  -1  115.60    4.05
   7   0  -1  118.30    4.89
   7   0  -1  119.58    3.38
   0  -7  -1  129.49    4.13
   0  -7  -1  130.63    5.31
  -7   0   1  117.95    4.48
   0   7  -1  121.49    5.31
   0  -7  -1  131.26    5.43
   7   0   1  120.45    4.15
   7   0  -1  122.84    4.53
   0  -7   1  120.55    4.98
   0  -7  -3    1.70    1.00
   7   0  -3    2.61    1.77
   0  -7   3    2.29    2.16
   7   0  -3    1.91    1.87
   0  -7  -3    3.09    2.14
  -7   0  -3    2.93    1.46
   7   0   3    0.01    2.27
   7   0  -3    2.04    1.80
   0   7  -3    3.60    2.11
   7   0   3    2.95    1.87
   0  -7  -3    1.39    1.60
   7   0   3    1.63    1.49
   0  -7   3    1.63    1.86
  -7   0  -3    1.49    1.59
  -7   0   3    3.98    2.21
   0  -7   5   15.31    2.45
   7   0  -5   16.37    3.02
   0   7   5   11.05    2.16
   0   7  -5   14.30    2.38
  -7   0   5   15.67    2.76
  -7   0  -5   15.53    1.94
   7   0  -5   15.43    2.57
   0  -7  -5    9.59    2.47
   0  -7  -5   16.55    2.39
   7   0   5   13.72    1.38
  -7   0  -5   16.15    2.57
   7   0  -5   17.66    2.75
   7   0   7    9.27    1.39
   0   7  -7   11.64    2.47
   7   0  -7    9.48    2.85
   0   7  -7   11.17    2.67
   0   7   7   11.15    2.60
   0  -7   7    7.83    2.21
   0  -7  -7    8.67    2.75
  -7   0  -7    7.10    2.30
   0   7  -7   11.27    3.14
  -7   0  -7   13.56    2.07
   7   0   9    0.51    2.75
   7   0   9    4.42    1.41
   0   7  -9    7.75    2.84
   0  -7   9    5.04    2.16
  -7   0  -9    3.47    1.35
   7   0  -9    5.92    2.81
   0  -7  -9    3.67    2.65
   7   0  -9    4.02    1.51
   0   7  -9    2.83    2.77
  -7   0  -9    4.54    2.67
  -7   0  11   68.23    5.65
   0  -7 -11   74.45    6.02
  -7   0 -11   71.68    3.58
   0  -7  11   65.25    4.99
   7   0  11   54.24    3.35
  -7   0 -11   64.59    5.62
   0   7 -11   71.54    5.98
   0   7 -11   59.20    5.26
   7   0 -11   65.24    3.27
   7   0 -11   67.56    5.93
  -7   0 -13   57.44    3.93
   0   7 -13   60.52    5.98
   0   7 -13   67.09    6.17
  -7   0 -13   52.98    5.82
   0  -7 -13   64.44    5.98
  -7   0  13   59.17    5.93
   7   0 -13   71.88    6.53
   7   0 -13   60.39    3.58
  -7   0  15    5.55    3.47
   7   0 -15   15.53    4.59
  -7   0 -15    7.68    3.68
   0   7 -15    4.97    3.40
   0   7 -15    4.82    3.48
  -7   0 -15   10.37    2.65
   0  -7 -15   16.26    4.13
  -7   0  17    3.97    3.89
   7   0 -17   -0.87    3.56
  -7   0 -17    0.96    3.36
   0   7 -17   -0.99    3.62
   0  -7 -17   -1.21    3.76
   0   7 -17    0.59    3.30
   0   7 -17   -3.24    3.45
   7   0  19    9.92    3.99
  -7   0  19   14.40    4.74
   7   0 -19    9.87    4.27
  -7   0 -19    9.25    4.34
   0   7 -19    7.67    4.00
   0   7 -19    7.51    3.89
   0   7 -19   10.50    4.24
   7   0 -19   -0.26    4.39
   0  -7 -19   19.72    5.09
   7   0 -21    3.62    4.72
   0   7 -21    1.21    3.70
   7   0 -21   10.40    4.48
  -7   0 -21    2.44    4.08
   0   7 -21    0.88    3.78
   0   7 -21    1.11    4.27
   7   0  21    1.72    3.78
   0  -7 -21    8.39    4.85
   7   0  23   -1.40    4.29
   7   0 -23    5.22    4.85
   7  -1  22   -5.53    4.26
   7   1 -22    2.43    4.03
   1   7 -22   -3.39    4.43
  -1  -7 -22   -0.68    4.60
   1   7 -22    0.90    3.90
   1   7 -22   -3.76    4.54
   7   1 -20   11.96    4.39
   1   7 -20    2.61    3.78
  -7  -1 -20   11.31    4.72
   1   7 -20   10.65    4.44
   7   1 -20   13.90    5.12
  -1  -7 -20    8.58    4.64
   7  -1  20   15.82    4.24
  -7   1  20   19.18    5.10
   1   7 -20   11.73    4.31
   7  -1  18    7.09    3.29
   7   1 -18    6.24    3.61
   1   7 -18   11.39    4.03
   7   1 -18    9.56    4.79
  -7   1  18    8.38    3.87
   1   7 -18    8.05    3.87
  -1  -7 -18    4.15    3.90
  -7  -1 -18   19.40    5.24
   1   7 -18   10.57    4.18
   7  -1  16   -0.37    2.57
   7   1 -16   -2.46    4.19
   1   7 -16    2.01    3.02
  -7   1  16    4.18    3.61
   1   7 -16    4.73    3.54
   1   7 -16   -1.38    3.22
  -7  -1 -16    1.84    2.70
  -7  -1 -16    1.98    3.40
  -1  -7 -16   -2.61    3.53
   7   1 -16   -1.93    3.23
  -7   1  14   18.37    4.54
   7   1 -14    8.10    3.76
  -7  -1 -14   16.64    4.44
   1   7 -14   12.67    3.89
   7   1 -14   13.94    2.75
   1   7 -14   18.24    4.26
  -7  -1 -14   15.24    2.79
  -1  -7 -14   15.68    4.13
   7   1 -12   51.18    5.51
  -7   1  12   50.26    5.36
  -7  -1 -12   47.69    3.58
   1   7 -12   45.43    4.87
   7   1 -12   47.40    3.45
  -7  -1 -12   45.79    5.18
   1   7 -12   53.83    5.42
  -1  -7 -12   43.68    4.92
   7   1 -10   -1.17    3.10
   7   1 -10    3.74    1.73
  -7  -1 -10    4.02    3.15
   1   7 -10    0.54    2.47
   1  -7  10    4.71    2.47
   1   7 -10    0.45    2.89
  -7   1  10    4.28    2.81
  -7  -1 -10    4.20    1.80
  -1  -7 -10    1.87    2.87
  -7   1   8   59.98    4.56
   7   1  -8   56.56    4.92
  -1  -7  -8   60.18    4.30
  -1  -7  -8   60.60    4.85
   1   7  -8   57.75    4.73
  -7  -1  -8   55.54    4.50
   1  -7   8   60.63    3.94
   1   7  -8   60.08    4.52
  -7   1   6   82.06    4.54
   1  -7   6   85.14    4.30
  -7  -1  -6   83.33    3.95
  -1   7   6   90.19    4.78
  -1  -7  -6   91.00    4.15
  -7  -1  -6   84.12    4.66
  -1  -7  -6   85.12    5.26
   7   1  -4   84.49    4.45
   7  -1   4   81.43    4.54
  -7  -1  -4   85.43    4.07
  -1   7   4   98.07    4.50
   1  -7   4   84.93    4.16
  -7  -1  -4   84.66    3.80
   1   7  -4   89.80    4.63
  -7   1   4   88.01    4.75
  -1  -7  -4   90.18    5.00
  -1  -7  -4   86.76    3.27
   7   1  -4   83.84    4.39
  -1  -7  -2    4.40    2.25
   7   1  -2    5.74    2.00
  -7  -1  -2    3.83    1.49
   7  -1   2    4.31    1.76
  -1  -7  -2    5.83    2.33
   7  -1   2    4.65    1.38
   7  -1   2    2.21    1.85
  -7  -1  -2    3.43    1.74
   7   1  -2    4.17    0.82
   1  -7   2    6.38    1.91
   1   7  -2    4.67    2.03
   7   1  -2    5.91    1.95
  -1  -7  -2    5.80    1.46
  -7   1   2    5.43    1.83
  -1  -7   0   44.58    3.48
   7   1   0   45.25    2.10
   7  -1   0   42.94    2.99
  -7  -1   0   42.67    3.05
   7  -1   0   44.33    2.74
  -1   7   0   39.79    3.61
  -7   1   0   41.83    2.69
   7   1   0   47.07    3.13
   1  -7   0   41.00    3.11
   7  -1   0   40.82    2.49
   7  -1   0   43.45    2.63
   7  -1   0   44.23    2.09
   7  -1  -2    3.86    1.58
  -7   1  -2    4.33    1.28
   7  -1  -2    6.23    1.87
   1  -7  -2    4.65    1.68
   7  -1  -2    3.54    1.46
  -7   1  -2    5.23    1.89
   7  -1  -2    4.74    2.11
   7   1   2    5.72    1.81
  -1   7  -2    5.39    2.31
  -1  -7   2    5.17    2.22
   1  -7  -2    1.14    2.05
  -7  -1   2    5.99    2.00
  -1   7  -2    4.56    0.70
   7  -1  -2    1.34    1.80
  -7  -1   4   86.27    4.87
   7  -1  -4   86.78    4.42
  -1  -7   4   87.53    4.61
   7  -1  -4   87.98    4.62
  -1  -7   4   88.04    4.63
  -1   7  -4   89.78    3.26
  -7   1  -4   81.19    2.80
   7  -1  -4   91.34    4.90
   1   7   4   88.64    3.69
  -7   1  -4   85.43    4.34
   7   1   4   77.72    3.08
   1  -7  -4   92.22    4.96
  -1   7  -4   92.40    4.23
  -7  -1   4   84.99    4.36
   1  -7  -4   84.30    4.32
  -7  -1   6   91.64    5.35
  -1  -7   6   87.67    4.84
  -1   7  -6   93.46    4.16
  -7   1  -6   85.62    3.12
   1   7   6   87.13    4.32
   7  -1  -6   89.59    5.26
   7  -1  -6   89.36    5.19
  -1   7  -6   87.70    5.38
   1  -7  -6   92.92    5.64
   7   1   6   89.78    3.39
  -7   1  -6   86.15    4.77
  -1   7  -6   84.38    4.28
  -7  -1   8   58.96    4.74
  -1  -7   8   56.95    4.34
  -1   7  -8   56.77    4.58
   7  -1  -8   49.24    1.95
  -1   7  -8   57.67    5.12
  -7   1  -8   57.94    4.65
  -1   7  -8   57.31    3.92
   1  -7  -8   62.70    4.95
   7   1   8   60.23    3.10
   7  -1  -8   61.07    4.92
   7   1  10    3.94    1.94
   7  -1 -10    2.36    1.03
  -7   1 -10    1.54    1.14
  -1   7 -10    2.06    2.76
  -1   7 -10   -0.16    2.86
   1  -7 -10    4.22    2.84
  -1  -7  10   -0.47    2.53
   7  -1 -10   -0.14    2.90
  -7   1 -10    6.36    2.92
  -1  -7  12   50.30    4.92
   7  -1 -12   50.79    5.51
  -7   1 -12   39.04    5.07
   7  -1 -12   43.76    2.49
  -1   7 -12   44.85    5.06
  -7   1 -12   51.69    3.18
  -1   7 -12   46.94    5.30
   7   1  12   39.93    3.42
   1  -7 -12   46.74    5.22
  -1   7 -14   11.04    3.74
   7  -1 -14   12.76    4.51
   7  -1 -14   15.37    2.07
  -1   7 -14    9.67    3.88
  -7   1 -14   15.74    2.63
   1  -7 -14   13.91    4.20
  -7   1 -14    7.01    3.65
  -1   7 -16    1.90    3.30
  -7   1 -16   -2.58    3.70
  -1   7 -16    0.27    2.78
   1  -7 -16    0.69    3.76
  -1   7 -16   -4.62    3.63
   7  -1 -16   -0.91    3.61
  -1   7 -18   11.33    3.99
   7  -1 -18    6.34    3.96
  -1   7 -18   14.39    4.75
  -1   7 -18    8.94    3.91
  -7   1 -18   13.54    4.88
   1  -7 -18    3.13    4.05
   7  -1 -20   16.29    5.29
  -7   1 -20    7.61    4.79
  -1   7 -20   23.51    5.49
  -1   7 -20    7.59    4.38
  -1   7 -20   14.07    4.35
   1  -7 -20    8.29    4.59
   7   1  20   10.23    4.53
   7   1  22    8.22    4.32
   7  -1 -22    2.01    4.47
  -1   7 -22    4.79    4.73
  -1   7 -22    2.25    4.57
   2   7 -23    5.61    4.91
   7  -2  23   -2.38    3.90
   2   7 -23    8.19    4.99
   2   7 -21    3.23    4.06
   7   2 -21   -1.00    3.87
  -7   2  21    5.56    4.56
   2   7 -21   -0.76    3.88
   2   7 -21   -6.17    4.29
  -7  -2 -21    9.16    4.57
   7   2 -21   -0.89    4.71
  -2  -7 -21   10.33    4.95
   7  -2  21    6.50    3.73
   7   2 -19   14.53    5.20
   2   7 -19    7.27    4.02
  -7   2  19    2.83    3.72
   2   7 -19    8.70    4.17
   7   2 -19   12.76    4.56
   2   7 -19    8.08    4.13
  -2  -7 -19   13.50    4.15
   7  -2  19    4.90    3.48
  -7  -2 -19    8.43    4.44
   7  -2  17   -2.15    2.81
   2   7 -17    9.80    3.82
  -7   2  17    3.22    3.72
   7   2 -17    1.72    3.17
  -7  -2 -17   -1.25    4.21
  -7  -2 -17    2.80    2.87
   2   7 -17    0.51    3.50
   7   2 -17   -3.22    4.00
  -2  -7 -17   -2.63    3.52
   2   7 -17    1.55    3.30
   7  -2  15    2.93    2.79
  -7   2  15   10.59    3.71
   7   2 -15   13.53    3.26
  -7  -2 -15    1.91    3.37
   7   2 -15    4.35    3.47
   2   7 -15   15.84    4.01
   2   7 -15    0.38    3.11
   7   2 -15    8.84    2.66
  -7  -2 -15    6.39    2.91
  -2  -7 -15    4.41    3.39
   7  -2  13   41.54    4.24
  -7   2  13   48.94    5.31
  -7  -2 -13   45.60    3.96
   2   7 -13   44.17    5.10
   7   2 -13   43.04    5.46
  -2  -7 -13   49.68    5.44
   2   7 -13   42.77    5.22
   7   2 -13   46.59    3.89
   7   2 -13   42.46    4.49
  -7  -2 -13   44.55    5.35
   7   2 -11   19.93    3.16
  -7  -2 -11   19.88    3.93
  -2   7  11   21.00    2.67
   2   7 -11   19.94    3.75
   7   2 -11   33.10    4.69
  -7  -2 -11   21.00    2.78
  -2  -7 -11   22.45    3.97
   7   2 -11   19.89    2.76
  -7   2  11   28.89    4.09
   2   7 -11   20.88    3.59
   7  -2  11   23.40    3.08
  -7   2   9    8.95    2.77
  -7  -2  -9   10.31    3.13
  -7  -2  -9   10.02    2.04
  -2  -7  -9   12.01    3.15
   2   7  -9   11.09    3.16
   2   7  -9   12.49    2.94
   2  -7   9    7.53    2.11
   7  -2   9    4.26    3.06
   7  -2   7   98.17    5.95
  -7  -2  -7   99.00    4.85
   2  -7   7   93.98    4.33
  -7  -2  -7   99.50    5.32
  -7   2   7   98.61    5.20
  -2  -7  -7  100.20    5.69
  -2  -7  -7  102.68    4.91
  -7  -2  -5   37.62    3.14
   2  -7   5   37.54    2.93
  -2  -7  -5   36.37    2.73
   7  -2   5   36.53    3.82
  -2  -7  -5   36.73    3.76
  -2   7   5   38.33    3.38
  -7  -2  -5   39.16    3.32
  -7   2   5   36.26    3.03
   2  -7   3   -1.24    1.67
   7  -2   3    3.16    2.13
  -2  -7  -3    3.58    2.51
  -7  -2  -3    0.62    1.43
   7  -2   3    2.87    2.36
  -2  -7  -3   -1.70    2.44
   7  -2   3    0.21    1.95
  -7  -2  -3   -2.20    1.95
   7   2  -3    0.60    1.69
  -2   7   1  185.17    6.32
  -7  -2  -1  190.54    3.92
  -2  -7  -1  185.33    6.62
   2  -7   1  187.71    5.57
   7  -2   1  181.62    4.12
  -7  -2  -1  182.08    5.80
   2   7  -1  173.77    6.44
   7  -2   1  176.25    5.79
   7   2  -1  191.90    6.28
   7  -2   1  181.33    4.17
   7   2  -1  182.72    5.36
  -2  -7  -1  172.00    3.43
   7  -2   1  177.03    5.57
  -7   2  -1  183.98    4.29
   2  -7  -1  173.62    6.20
   2  -7  -1  190.20    5.96
  -2  -7   1  186.80    6.50
   2   7   1  189.96    3.74
  -7  -2   1  184.94    6.06
   7   2   1  191.53    6.06
   7  -2  -1  186.44    6.67
  -2   7  -1  181.72    5.97
   7  -2  -1  176.76    4.97
   7  -2  -1  186.46    5.16
   7  -2  -1  190.49    5.14
   7  -2  -3    0.54    1.85
  -2  -7   3   -0.88    1.92
   2  -7  -3    1.81    1.79
  -2   7  -3    0.31    1.12
  -2   7  -3   -0.59    2.27
  -2   7  -3    0.05    1.90
   7  -2  -3    0.40    1.14
  -7   2  -3   -0.45    0.77
  -7   2  -3    0.80    1.90
  -2  -7   3    2.34    2.40
   2   7   3   -0.07    1.15
  -7  -2   3    1.89    2.23
   2  -7  -3    1.79    2.40
   7  -2  -3    0.06    1.82
   7  -2  -5   35.17    3.50
  -2  -7   5   39.55    3.70
  -2  -7   5   37.12    3.21
  -2   7  -5   39.65    2.77
  -7   2  -5   30.99    1.46
  -7  -2   5   36.81    3.11
   2   7   5   40.02    2.81
  -7  -2   5   36.84    3.74
  -7   2  -5   34.70    3.42
   7   2   5   39.44    2.69
   2  -7  -5   42.37    3.96
   7  -2  -5   29.09    1.33
  -7   2  -5   39.02    3.77
   2  -7  -5   40.79    3.65
  -2   7  -5   36.27    2.68
  -2   7  -5   37.64    3.92
  -7  -2   7  106.66    6.01
  -7   2  -7   96.52    5.57
  -2   7  -7  101.43    4.40
   7   2   7  101.31    4.23
  -2   7  -7  101.22    6.05
  -2   7  -7   97.95    5.76
   2  -7  -7  100.72    5.97
   7  -2  -7  100.99    5.66
   2   7   7   99.03    4.83
  -7   2  -7   93.36    2.93
  -2  -7   7   91.45    5.32
  -2   7  -7   99.08    4.75
  -7   2  -7   96.46    5.76
   7  -2  -9   12.56    3.23
  -7  -2   9   10.29    3.08
  -7   2  -9    8.00    2.94
  -2  -7   9    9.02    2.82
  -7   2  -9   15.30    3.51
   7   2   9   12.07    3.66
  -2   7  -9   10.75    3.22
  -7   2  -9    6.85    0.79
  -2   7  -9   10.02    2.30
  -2   7  -9   12.74    3.49
   2  -7  -9   12.18    3.38
   7   2   9   10.30    2.23
   7   2  11   18.11    2.91
  -7   2 -11   15.02    3.56
  -7   2 -11   20.76    4.22
  -2   7 -11   17.93    3.90
   7  -2 -11   19.64    4.22
  -2   7 -11   28.39    4.45
  -7   2 -11   21.06    1.82
  -2  -7  11   26.99    3.80
   2  -7 -11   19.58    4.18
  -2  -7  13   46.49    5.21
  -7   2 -13   41.45    5.27
  -2   7 -13   36.80    5.07
  -7   2 -13   46.18    3.10
  -7   2 -13   38.14    5.33
  -2   7 -13   35.38    5.35
   2  -7 -13   49.23    5.71
   7  -2 -13   54.92    6.13
  -2   7 -15    5.11    3.62
  -7   2 -15    5.69    3.86
  -7   2 -15   10.76    3.82
  -2   7 -15    7.16    3.05
   7  -2 -15    2.52    3.51
  -2   7 -15    9.47    3.33
   2  -7 -15    8.56    3.97
  -7   2 -15    8.60    2.26
  -2   7 -17   -1.26    3.52
   7  -2 -17    2.66    3.68
  -2   7 -17   -1.01    3.56
   2  -7 -17   -3.84    3.83
  -2   7 -17    1.66    2.92
  -7   2 -17   -3.15    3.69
  -7   2 -19   11.12    4.50
  -2   7 -19    1.90    3.80
   7  -2 -19   11.28    5.07
   2  -7 -19   11.60    4.90
  -2   7 -19   10.28    4.08
  -2   7 -19    3.07    3.06
   7  -2 -21   -2.09    4.77
  -2   7 -21    6.57    4.44
   2  -7 -21   -4.71    4.88
  -2   7 -21    1.85    4.27
  -7   2 -21    6.43    4.32
   7  -2 -23    9.54    5.30
   7  -3  22   -2.93    4.08
  -3  -7 -22   -1.17    4.47
   3   7 -22    3.11    4.17
   3   7 -22   -3.18    4.20
   3   7 -22    6.28    4.78
   7  -3  20    8.34    4.03
   7   3 -20   10.74    4.93
   7   3 -20    6.07    3.87
   3   7 -20    2.81    3.47
   3   7 -20    5.31    4.22
  -7   3  20    2.50    4.13
  -3  -7 -20    9.83    4.50
   3   7 -20    1.24    3.82
  -7  -3 -20    2.61    4.36
   7  -3  18    1.28    2.95
   7   3 -18   -0.10    3.80
   3   7 -18   10.51    4.13
   3   7 -18   -0.18    3.36
  -7   3  18    2.68    3.47
   7   3 -18    0.37    3.08
   3   7 -18    1.52    3.46
  -7  -3 -18    1.34    2.90
  -3  -7 -18   -2.29    3.68
  -7  -3 -18   -2.47    4.09
   7   3 -16    3.29    2.48
  -7  -3 -16    0.66    3.75
   7   3 -16    3.70    3.80
  -7   3  16    3.37    3.20
   3   7 -16    9.04    3.60
   7   3 -16    2.99    3.06
   3   7 -16   -1.00    3.36
  -7  -3 -16    3.57    2.73
  -3  -7 -16   12.05    3.84
   7  -3  16    3.34    2.82
  -7  -3 -14   20.90    3.59
   7  -3  14   21.50    3.57
   7   3 -14   29.50    3.99
  -7  -3 -14   24.95    4.59
   7   3 -14   22.47    4.84
   3   7 -14   18.24    3.77
   7   3 -14   21.00    3.29
  -3  -7 -14   19.07    3.91
   3   7 -14   26.14    4.59
  -7   3  14   20.76    4.12
   7   3 -12   47.74    5.45
  -7  -3 -12   39.36    5.24
  -3   7  12   46.54    3.43
  -7  -3 -12   46.94    4.11
   7   3 -12   44.72    4.00
   7   3 -12   45.97    4.11
   7  -3  12   43.28    4.09
  -3  -7 -12   44.96    5.13
   3   7 -12   45.77    4.59
  -7   3  12   52.71    5.33
   3   7 -12   52.17    5.08
   7   3 -10   -1.86    2.03
   3   7 -10   -1.72    2.27
  -7  -3 -10   -1.15    2.68
   7  -3  10    0.30    1.81
   3   7 -10    0.20    2.81
  -7  -3 -10    1.35    1.99
  -3  -7 -10   -2.91    2.73
  -7   3  10   -3.19    2.71
   7  -3   8   71.83    3.51
  -7  -3  -8   77.00    5.04
   3   7  -8   74.79    4.55
   7  -3   8   69.94    5.31
   7   3  -8   70.51    3.35
  -7   3   8   74.17    4.88
  -3  -7  -8   74.61    5.15
   3  -7   8   75.92    3.83
  -7  -3  -8   71.83    4.68
   7  -3   6   56.30    2.41
  -7  -3  -6   64.41    4.15
   3  -7   6   62.41    3.20
  -7   3   6   65.77    4.06
   7  -3   6   55.24    4.33
  -3  -7  -6   65.50    4.70
   7   3  -6   59.45    2.26
  -7  -3  -6   63.80    4.14
  -3  -7  -6   60.82    3.81
  -7  -3  -4    8.27    2.03
  -3  -7  -4   10.03    2.68
  -3  -7  -4    7.03    1.83
  -3  -7  -4    8.49    2.70
  -7   3   4    8.86    1.86
   3  -7   4    6.94    1.67
  -7  -3  -4    9.82    2.32
   7  -3   4    6.06    2.42
  -7   3   2  236.85    4.82
   7  -3   2  238.79    7.06
  -7  -3  -2  234.95    5.16
   7  -3   2  233.23    7.18
   7  -3   2  242.25    7.48
   3  -7   2  220.73    4.56
  -3  -7  -2  227.30    7.68
  -3   7   2  231.48    7.32
   7  -3   2  217.45    3.94
   7  -3   2  222.73    3.57
   7   3  -2  232.83    5.86
   3  -7   2  219.08    5.51
  -7  -3  -2  252.80    7.23
  -3  -7   0  646.86   12.34
   3  -7   0  629.10    6.73
   7  -3   0  653.62    9.94
   7  -3   0  663.35   11.21
   3  -7   0  629.00   10.82
  -7  -3   0  654.30   11.54
   7   3   0  649.75    9.14
  -3   7   0  638.12   11.03
   7  -3   0  655.19    8.77
   7  -3   0  671.21    8.24
   7   3   0  665.84   11.78
   7  -3  -2  243.70    6.11
   7   3   2  235.24    7.04
  -3  -7   2  227.52    7.50
  -7  -3   2  233.88    7.44
   7  -3  -2  245.05    5.20
  -3   7  -2  231.87    6.47
   7   3   2  239.73    7.54
  -7   3  -2  229.26    6.92
   3  -7  -2  233.42    7.17
   3  -7  -2  233.44    7.11
   7  -3  -2  237.63    6.32
  -3   7  -2  234.43    7.36
   3   7   2  233.06    5.32
  -3  -7   4    7.68    2.02
  -3   7  -4    3.91    2.26
   7  -3  -4    3.13    2.01
  -3  -7   4    7.29    2.35
  -7   3  -4    7.29    2.37
  -7  -3   4    9.22    1.95
   3   7   4    8.42    1.46
  -3   7  -4    8.73    1.89
   7   3   4    7.98    2.04
   3   7   4    9.89    2.26
  -7  -3   4    6.68    2.53
   3  -7  -4    5.66    2.41
   7  -3  -4    5.57    0.90
  -3   7  -4    7.35    1.72
   7   3   4    5.54    2.30
  -7   3  -4    7.31    2.22
   7  -3  -4   10.08    2.53
   3  -7  -4    7.39    2.20
  -3  -7   6   63.06    3.82
  -7   3  -6   60.72    4.43
  -7   3  -6   65.16    4.91
  -3   7  -6   65.67    3.82
   7   3   6   58.52    4.70
  -3   7  -6   69.61    5.05
  -7  -3   6   60.82    4.76
  -3   7  -6   61.27    3.08
  -7  -3   6   66.71    4.17
   7   3   6   58.24    3.65
   3  -7  -6   67.87    4.88
   3  -7  -6   69.80    4.78
  -3  -7   6   61.99    4.55
   7  -3  -6   55.63    4.36
  -7   3  -8   57.69    2.15
  -3  -7   8   73.26    5.18
  -7   3  -8   67.82    5.19
  -3   7  -8   78.13    5.48
  -7   3  -8   79.20    5.69
  -3   7  -8   76.17    5.77
   7   3   8   75.17    5.73
   3  -7  -8   77.40    5.68
   7   3   8   78.25    4.34
  -3   7  -8   70.36    3.63
   7  -3  -8   75.90    5.35
  -7  -3   8   74.00    5.43
  -7   3 -10    1.02    1.34
   7  -3 -10   -0.92    2.91
  -7   3 -10   -1.88    2.78
  -7  -3  10    2.29    3.02
  -3  -7  10   -4.58    2.64
  -7   3 -10   -4.86    3.20
  -3   7 -10    1.97    2.65
   3  -7 -10   -6.94    3.27
  -3   7 -10   -1.39    1.87
  -3   7 -10   -0.16    2.89
  -7   3 -10    2.17    0.70
  -3   7 -12   43.39    5.24
   3  -7 -12   53.85    5.72
  -3   7 -12   49.39    5.65
  -3  -7  12   46.16    5.17
  -7   3 -12   46.55    5.64
  -7   3 -12   41.02    3.12
  -7   3 -12   37.72    4.92
  -7   3 -12   41.14    2.46
   7  -3 -12   39.76    5.25
   7  -3 -14   29.80    5.08
  -3   7 -14   22.04    3.49
  -7   3 -14   18.60    4.40
  -3   7 -14   20.29    4.57
   3  -7 -14   15.81    4.29
  -3   7 -14   14.60    3.91
  -7   3 -14   27.43    4.82
  -7   3 -14   20.36    2.45
  -3  -7  14   28.14    4.73
   7  -3 -16   11.74    4.64
  -3   7 -16    3.58    2.85
  -7   3 -16    5.89    3.92
  -7   3 -16    6.69    3.72
  -3   7 -16    3.99    3.77
   3  -7 -16    5.04    3.89
  -3   7 -16    5.58    3.71
   7  -3 -18    6.22    4.47
   3  -7 -18    0.52    3.89
  -3   7 -18    0.49    3.09
  -7   3 -18   -2.32    3.65
  -3   7 -18   -6.03    3.88
  -7   3 -18   -1.05    3.77
  -3   7 -18    6.22    4.26
   7  -3 -20    2.30    4.38
  -3   7 -20   -2.67    4.61
  -3   7 -20    1.02    4.09
   3  -7 -20   -0.82    4.29
  -7   3 -20    4.29    4.09
  -4  -7 -23   -3.83    4.73
  -7   4  21    2.27    4.22
   4   7 -21    1.55    4.10
   4   7 -21    6.19    4.24
   4   7 -21    4.47    3.95
  -4  -7 -21    6.00    4.62
  -7  -4 -19   15.86    5.22
   7  -4  19    7.92    3.62
   7   4 -19    0.63    4.21
   7   4 -19   12.53    4.24
   4   7 -19   15.40    4.45
  -4  -7 -19    3.06    3.85
   4   7 -19   10.44    4.09
   4   7 -19    1.69    3.87
  -7   4  19    7.02    3.84
  -7   4  17   -0.18    3.76
   7  -4  17   -3.64    3.21
   7   4 -17    5.21    4.17
   7   4 -17    0.09    2.94
  -7  -4 -17    0.44    4.05
   4   7 -17   -0.48    3.37
   4   7 -17  -11.28    3.62
   7   4 -17   -1.20    2.78
   4   7 -17    0.68    3.20
  -7  -4 -17    1.06    2.97
  -4  -7 -17   -5.43    3.88
   7   4 -15    4.56    3.54
  -7  -4 -15   10.89    4.19
   4   7 -15    3.66    3.04
  -7  -4 -15    0.33    2.76
   7  -4  15    0.96    2.45
   7   4 -15    8.38    2.80
  -4  -7 -15    5.71    3.39
   4   7 -15    4.66    3.35
  -7   4  15    6.54    3.56
   7   4 -15    6.94    2.88
   7   4 -13   19.55    3.23
   7   4 -13   17.53    4.36
  -7  -4 -13   20.21    3.39
  -7  -4 -13   24.95    4.48
   4   7 -13   20.73    3.73
  -4  -7 -13   20.26    4.01
   7   4 -13   18.94    3.16
   4   7 -13   19.57    3.92
  -7   4  13   27.02    4.50
   7  -4  13   16.46    3.09
  -7   4  11   -0.77    2.64
   7  -4  11    0.48    2.04
   7   4 -11    2.05    2.15
   4   7 -11    2.46    3.09
   4   7 -11    2.28    2.42
  -7  -4 -11   -1.28    2.29
  -4  -7 -11    2.85    3.03
   7   4 -11   -3.23    2.46
  -4   7  11   -0.14    1.44
  -7   4   9  108.22    6.23
  -7  -4  -9  104.47    5.22
   7   4  -9   97.57    4.26
   7  -4   9   95.25    6.39
  -4  -7  -9  113.45    6.45
   4   7  -9  100.90    5.35
   4  -7   7  275.92    5.91
   7   4  -7  281.28    5.35
   7  -4   7  276.89    9.26
  -7   4   7  292.21    8.63
  -7  -4  -7  300.58    9.01
  -4  -7  -7  292.13    9.26
   4  -7   5  168.96    4.37
  -7  -4  -5  172.04    6.77
  -4  -7  -5  163.10    5.73
   7  -4   5  167.10    6.90
  -7   4   5  171.64    5.74
  -4  -7  -5  158.62    7.20
  -4  -7  -5  172.36    6.89
  -7   4   3    9.23    1.63
  -7  -4  -3   14.61    2.80
  -7   4   3    8.57    2.35
   7  -4   3    5.31    0.81
   4  -7   3    7.25    1.77
  -4  -7  -3    5.51    2.71
   7  -4   3    8.99    2.56
   4  -7   3    7.88    1.54
   7  -4   1  202.79    6.96
  -4  -7  -1  199.35    7.45
   7  -4   1  198.08    6.24
   4  -7   1  203.77    4.92
   4  -7   1  210.34    5.35
   7  -4   1  197.96    3.89
  -7  -4  -1  205.91    7.04
   4  -7   1  197.63    6.04
  -4   7   1  205.33    6.65
  -7   4   1  192.24    3.69
   7   4  -1  202.02    4.86
  -7   4   1  199.29    5.72
  -7   4   1  201.38    5.36
   7  -4   1  208.48    4.74
  -4   7   1  203.95    6.16
   4  -7  -1  207.64    6.71
   7  -4  -1  195.13    5.30
  -7  -4   1  199.94    6.97
  -7   4  -1  202.51    4.66
  -4   7  -1  210.79    6.86
  -7   4  -1  198.40    6.14
   7  -4  -1  201.07    5.16
  -4   7  -1  209.46    6.19
   7  -4  -1  194.66    5.55
  -4  -7   1  200.55    7.36
   4   7   1  201.18    5.33
   4  -7  -1  206.45    7.18
  -7  -4   3   12.13    2.59
   7  -4  -3    9.58    2.10
  -4  -7   3    7.36    1.79
   4   7   3    5.94    1.84
  -7   4  -3    9.91    2.37
  -4  -7   3    3.27    2.43
   4  -7  -3    5.00    2.13
  -7  -4   3    7.19    1.62
   7   4   3    8.42    2.16
   7  -4  -3    6.30    2.24
  -4   7  -3    7.55    1.90
   4  -7  -3    5.08    2.41
  -4   7  -3    8.30    2.51
   4   7   3    5.79    0.85
   7   4   3    3.17    2.18
  -4  -7   5  170.30    5.43
  -7   4  -5  166.41    6.85
  -4  -7   5  169.36    7.28
  -7   4  -5  177.91    7.36
  -4   7  -5  169.87    5.57
  -4   7  -5  171.70    7.21
   4   7   5  164.94    6.00
  -7  -4   5  179.78    5.75
  -7  -4   5  168.86    7.24
  -4   7  -5  166.05    5.19
   7   4   5  179.89    6.18
   4  -7  -5  166.22    7.00
   7  -4  -5  172.32    6.68
   4  -7  -5  171.67    7.01
   7   4   5  181.38    7.27
  -4   7  -7  287.27    7.67
  -4   7  -7  278.40    5.85
  -7  -4   7  303.75    9.98
  -4  -7   7  300.23    7.82
  -7   4  -7  273.43    9.28
   7   4   7  291.24    9.68
  -4  -7   7  294.34    9.61
  -7   4  -7  295.83    9.94
   4  -7  -7  305.13    9.93
   7  -4  -7  299.60    9.61
  -4   7  -7  297.27    9.98
  -4  -7   9  102.06    6.33
  -7   4  -9  103.22    6.60
  -4   7  -9   98.29    6.43
  -4   7  -9   97.93    6.62
   7   4   9   92.79    6.60
  -7  -4   9  103.59    6.59
   4  -7  -9  101.91    6.54
  -7   4  -9  105.58    6.89
  -4   7  -9   96.95    4.07
   7  -4  -9  105.14    6.55
   7  -4 -11   -5.64    3.68
  -4   7 -11    2.66    1.95
  -7   4 -11   -0.02    3.23
  -7  -4  11   -0.90    3.32
  -4  -7  11    0.09    2.94
  -7   4 -11   -3.47    3.29
  -7   4 -11    0.23    1.26
  -4   7 -11   -3.01    3.53
   4  -7 -11    0.56    3.20
  -7   4 -11    0.88    0.86
  -4   7 -11   -2.81    3.02
  -4   7 -13   18.48    2.93
   7  -4 -13   24.07    4.61
  -7   4 -13   16.09    4.30
  -7  -4  13   21.88    4.40
  -7   4 -13   20.50    4.53
  -7   4 -13   16.31    1.92
  -4   7 -13   22.33    4.46
   4  -7 -13   19.29    4.14
  -4   7 -13   18.78    4.55
  -4  -7  13   15.32    3.79
  -7   4 -15    4.65    3.55
   4  -7 -15    4.51    3.88
  -7   4 -15    2.46    3.31
  -4  -7  15    3.20    3.75
  -4   7 -15    4.91    3.96
   7  -4 -15    4.58    3.75
  -4   7 -15    6.82    2.55
  -4   7 -15    2.69    3.40
  -7   4 -17   -6.63    3.90
  -4   7 -17    1.04    3.64
  -4   7 -17    5.62    4.00
  -7   4 -17   -3.03    3.50
   4  -7 -17    2.12    4.27
   7  -4 -17   -2.77    4.35
  -4   7 -19    4.31    4.45
  -7   4 -19    7.89    4.21
  -4   7 -19    3.02    4.05
  -7   4 -19    5.08    4.05
   4  -7 -19    6.12    4.56
   7  -4 -19   11.38    4.87
  -4   7 -21    8.32    4.82
  -5  -7 -22   -7.27    4.63
  -7   5  20    0.02    4.08
   5   7 -20    8.09    4.11
  -7  -5 -20   -0.87    4.19
   7   5 -20    4.05    4.08
   5   7 -20    3.65    4.11
   5   7 -20    4.09    3.87
  -5  -7 -20    9.43    4.47
  -5   7  20    8.02    4.53
  -7   5  18    2.35    3.84
   7   5 -18    1.57    3.89
   5   7 -18    5.53    4.12
  -7  -5 -18   10.46    4.50
   7   5 -18    2.25    2.88
   5   7 -18    5.83    3.42
   5   7 -18   -1.29    3.34
  -7  -5 -18   -2.01    3.47
  -5  -7 -18    2.80    3.77
  -7  -5 -16    3.69    4.11
   7   5 -16    6.61    3.89
   5   7 -16    6.26    3.17
   7   5 -16    2.77    2.92
  -5  -7 -16    8.56    3.56
   7   5 -16    1.92    2.92
   5   7 -16    7.34    3.22
  -7  -5 -16    7.28    3.37
  -7   5  16    2.63    3.26
  -7   5  14   33.30    5.06
   7   5 -14   26.19    3.86
   5   7 -14   30.02    4.08
  -7  -5 -14   29.20    4.12
  -5  -7 -14   33.96    4.79
   7   5 -14   27.93    4.17
   5   7 -14   33.70    4.85
   7   5 -12   42.01    4.52
   5   7 -12   48.95    4.57
   5   7 -12   49.61    5.14
  -7  -5 -12   44.88    4.43
  -5  -7 -12   48.66    5.19
   7   5 -12   44.90    3.82
  -7   5  12   34.83    4.67
   5   7 -10   -0.62    2.14
  -5   7  10   -1.02    0.98
  -7  -5 -10    1.06    2.33
  -5  -7 -10   -3.35    2.80
   7   5 -10   -0.59    1.94
   7  -5   8   72.15    5.49
  -5  -7  -8   87.67    5.61
  -7  -5  -8   84.33    5.66
   7   5  -8   81.97    3.50
  -7  -5  -6   95.82    5.63
  -5  -7  -6   94.34    5.94
   7  -5   6   88.82    5.47
   5  -7   6   79.09    2.73
   5  -7   4   13.04    1.43
   5  -7   4   18.57    2.56
  -5  -7  -4   18.52    3.44
   7  -5   4   19.45    3.20
  -7  -5  -4   19.26    3.15
  -5   7   4   18.09    2.08
   5  -7   2   85.51    3.14
  -5   7   2   85.26    4.82
   5  -7   2   78.49    3.82
  -5   7   2   83.20    3.90
  -5  -7  -2   85.04    5.31
   7  -5   2   83.93    3.06
   7  -5   2   82.27    4.67
   7  -5   2   89.69    4.77
  -7   5   2   86.62    3.50
  -7  -5  -2   87.08    5.18
  -7   5   2   85.13    4.31
   7  -5   0  250.57    5.19
   7  -5   0  259.03    6.79
  -7  -5   0  217.14    7.78
  -7   5   0  257.25    6.84
   5  -7   0  253.49    6.94
   7  -5   0  256.65    6.26
  -5   7   0  250.24    7.01
  -5  -7   0  262.42    8.70
  -5   7   0  258.80    7.23
  -7   5   0  261.87    6.26
   7   5   0  250.88    4.62
   5  -7   0  252.35    6.08
  -7  -5   2   85.88    5.14
  -7   5  -2   86.28    3.10
   7   5   2   86.04    4.80
   5   7   2   82.10    4.08
  -5   7  -2   85.38    4.94
  -5  -7   2   83.97    5.31
   5  -7  -2   82.45    4.58
  -5   7  -2   83.64    4.11
   7  -5  -2   84.38    4.41
  -7   5  -2   84.62    4.71
   5  -7  -2   85.18    5.19
   7  -5  -2   84.26    3.93
  -5  -7   4   20.16    2.12
  -7   5  -4   18.26    3.08
   7  -5  -4   21.17    2.94
  -5  -7   4   17.30    3.19
   7   5   4   16.71    2.95
   5   7   4   17.83    2.62
   5  -7  -4   16.56    3.06
  -5   7  -4   15.89    2.74
  -7   5  -4    8.44    0.92
  -5   7  -4   18.52    2.18
  -7  -5   4   15.18    3.12
   5  -7  -4   23.03    3.33
  -7  -5   4   16.90    2.05
  -5  -7   6   97.13    4.16
  -7  -5   6   97.22    6.05
  -5  -7   6   96.54    6.02
  -5   7  -6   98.70    6.00
   5   7   6   95.49    5.20
   5  -7  -6   93.58    5.82
  -7  -5   6  100.87    4.70
  -5   7  -6  100.62    3.84
   5  -7  -6   99.63    5.84
   7  -5  -6  100.44    5.63
   7   5   6   95.75    5.71
  -5   7  -6   92.48    3.99
  -7   5  -6   96.11    5.86
  -7   5  -6   91.25    5.58
  -7  -5   8   82.29    5.91
  -5  -7   8   82.14    4.52
  -5  -7   8   80.05    5.82
  -5   7  -8   83.68    5.87
  -7   5  -8   81.65    6.05
  -5   7  -8   78.03    5.97
   7   5   8   84.68    5.92
   5  -7  -8   85.57    5.98
   7  -5  -8   89.56    6.19
  -7   5  -8   83.13    5.90
  -5   7  -8   75.34    2.93
  -5   7  -8   77.78    4.32
  -7  -5  10   -3.84    3.11
  -7   5 -10    2.17    3.22
  -7   5 -10    0.60    2.94
  -5  -7  10   -2.10    3.07
  -7   5 -10   -0.76    0.55
  -7   5 -10    0.85    0.55
  -5   7 -10    0.46    2.99
  -7   5 -10   -1.46    0.88
   5  -7 -10   -2.61    3.18
   7  -5 -10    1.28    3.07
  -5   7 -10    1.76    1.52
  -5   7 -10    2.42    2.90
  -5   7 -12   37.98    3.26
  -7   5 -12   39.19    5.40
  -5   7 -12   33.61    4.89
  -7   5 -12   35.75    5.04
   5  -7 -12   46.07    5.62
   7  -5 -12   44.02    5.38
  -5   7 -12   42.46    5.49
  -7   5 -12   30.67    2.03
  -5  -7  12   56.97    6.04
  -7  -5  12   39.53    5.14
  -5   7 -14   24.99    2.99
  -5   7 -14   25.95    5.00
  -5   7 -14   34.34    5.39
  -5  -7  14   30.14    5.07
   7  -5 -14   27.16    5.02
  -7   5 -14   26.69    4.98
  -7   5 -14   21.78    4.79
   5  -7 -14   24.17    4.78
  -7  -5  14   28.47    4.96
  -5   7 -16    6.42    3.88
  -7   5 -16    5.66    3.72
  -7   5 -16    2.71    3.51
  -5   7 -16    3.77    3.84
   5  -7 -16    6.88    4.22
   7  -5 -16    8.71    4.26
  -7   5 -18    1.43    3.89
   5  -7 -18    9.16    4.57
  -5   7 -18    0.39    3.80
  -5   7 -18    1.61    3.50
  -7   5 -18    7.81    4.00
  -7   5 -20    8.12    4.90
  -5   7 -20   -1.96    4.50
  -7   5 -20    3.82    4.84
  -5   7 -20    8.65    4.81
   5  -7 -20    3.00    4.46
   7  -5 -20    7.47    4.49
  -6  -7 -21   -1.05    4.46
  -7   6  19    3.89    4.09
   7   6 -19    8.45    4.82
   6   7 -19    6.98    5.01
   6   7 -19    5.49    3.57
  -7  -6 -19    2.54    3.80
  -6  -7 -19    3.41    3.86
  -7  -6 -19    7.28    4.77
  -6   7  19    8.40    4.56
  -7   6  17   -0.99    3.45
  -6  -7 -17    1.99    3.42
   7   6 -17    2.06    3.92
   7   6 -17    0.49    2.79
   6   7 -17   -1.00    3.20
   7   6 -17   -2.76    3.42
  -7  -6 -17    2.48    3.19
   6   7 -17    2.16    3.17
   6   7 -17   -2.99    4.19
   7   6 -15    7.04    2.69
   6   7 -15    6.20    2.99
  -7  -6 -15   12.15    3.74
  -6  -7 -15    9.78    3.51
   7   6 -15   11.33    3.63
   6   7 -15   14.40    4.05
  -7   6  15   12.55    3.97
   6   7 -13   26.87    3.71
   7   6 -13   32.13    3.91
   7   6 -13   31.62    4.39
  -7  -6 -13   30.19    4.15
  -6  -7 -13   23.95    4.31
   6   7 -13   29.95    4.48
   7   6 -11   11.74    2.75
   6   7 -11   10.88    2.82
  -7  -6 -11   16.62    3.64
  -6  -7 -11   14.06    3.65
  -7  -6  -9   29.57    4.02
  -6  -7  -9   25.11    3.79
   7   6  -9   20.97    2.51
  -6   7   7   75.66    2.36
  -7  -6  -7   93.12    5.94
   7  -6   7   91.63    5.60
  -6  -7  -7   99.23    6.27
  -6   7   5   44.87    2.39
  -7  -6  -5   47.34    4.43
  -7   6   5   40.19    1.71
   7  -6   5   43.50    4.04
   6  -7   5   39.67    3.63
  -6  -7  -5   41.50    4.43
  -7   6   3    8.55    1.65
   7  -6   3   10.08    2.46
   6  -7   3    7.08    2.05
  -7  -6  -3    8.92    2.65
   6  -7   3    6.01    1.06
  -6   7   3    9.71    1.72
  -6  -7  -3    9.69    2.93
   7  -6   1  222.00    7.05
  -6   7   1  225.14    6.61
  -7   6   1  223.57    6.29
   6  -7   1  217.81    6.39
   7  -6   1  214.27    6.93
   6  -7   1  220.07    6.18
   7  -6   1  214.72    5.65
  -7  -6  -1  215.23    7.93
  -6   7   1  222.91    6.99
  -6  -7  -1  213.50    8.14
  -7   6   1  218.75    6.49
   7   6   1  217.08    7.22
   6   7   1  207.51    6.55
  -6   7  -1  224.26    7.18
  -7  -6   1  225.22    8.32
  -6  -7   1  225.23    8.34
   7  -6  -1  213.66    6.40
   6  -7  -1  221.49    8.31
  -6   7  -1  217.21    6.27
  -7   6  -1  215.54    5.74
  -7   6  -1  206.86    6.90
   6  -7  -1  215.82    6.81
  -7  -6   3    6.05    2.68
  -6  -7   3    5.85    2.64
  -6   7  -3    8.10    1.81
   6   7   3    6.82    2.26
   6  -7  -3    7.77    2.52
   7  -6  -3    9.89    2.53
  -7   6  -3    5.20    1.32
   7   6   3   10.87    2.62
  -7   6  -3    8.06    2.64
  -6   7  -3    3.46    2.27
  -6  -7   3    5.85    0.97
   6  -7  -3    9.24    2.64
  -6  -7   3    8.80    1.53
  -7  -6   3    7.59    0.90
  -6   7  -5   44.23    2.50
  -6  -7   5   45.65    2.69
  -6   7  -5   43.70    4.36
   6  -7  -5   40.78    4.08
   7   6   5   45.52    4.16
   6   7   5   43.42    3.87
  -7   6  -5   48.34    4.39
  -6   7  -5   48.20    2.69
   7  -6  -5   46.25    4.14
  -7   6  -5   31.65    1.71
  -7  -6   5   49.69    4.73
  -7  -6   5   46.32    2.97
   7  -6  -5   41.90    4.22
   6  -7  -5   43.56    4.43
  -6  -7   5   45.35    2.83
  -6  -7   5   45.29    4.76
  -6  -7   7   97.54    4.31
  -7  -6   7   99.77    6.48
  -7  -6   7   94.19    4.83
  -7   6  -7   92.97    6.07
  -6   7  -7   92.47    6.18
   7  -6  -7   96.82    6.41
   6  -7  -7   91.58    6.08
   6   7   7  100.80    5.96
   6  -7  -7  100.97    6.40
   7   6   7  104.38    6.33
  -7   6  -7   91.74    6.23
  -6   7  -7   90.30    3.42
   7  -6  -7   96.18    6.01
  -6  -7   7   96.10    6.35
  -6   7  -9   22.09    2.12
  -6   7  -9   19.30    1.54
   7  -6  -9   16.74    3.84
  -7   6  -9   27.13    4.40
   6  -7  -9   22.00    4.07
  -7  -6   9   24.33    4.16
   7   6   9   27.54    4.66
  -7   6  -9   25.22    4.43
  -6  -7   9   20.10    3.80
  -6   7  -9   25.83    4.48
  -6   7  -9   28.83    4.22
  -7  -6  11   10.67    3.75
  -7   6 -11    8.53    3.38
  -6   7 -11   12.15    3.89
  -6  -7  11   10.32    3.86
  -7   6 -11    2.95    3.38
   6  -7 -11   10.13    3.83
  -6   7 -11   10.26    3.92
  -7   6 -11    7.41    1.27
  -6   7 -11   11.72    2.00
   7  -6 -11    5.40    3.55
  -7   6 -13   28.09    4.81
  -6   7 -13   28.29    4.73
  -6  -7  13   31.96    4.99
   7  -6 -13   27.09    5.13
  -7   6 -13   26.07    4.85
  -6   7 -13   31.20    5.47
  -7  -6  13   27.67    4.97
  -6   7 -13   25.18    2.60
   6  -7 -13   32.19    5.25
  -7   6 -15   14.15    5.05
  -6   7 -15    9.11    4.23
  -7  -6  15   12.46    4.37
  -7   6 -15    8.47    4.12
  -6   7 -15    5.42    3.77
   6  -7 -15   11.60    4.36
   7  -6 -15    9.15    4.22
  -6  -7  15    4.21    3.69
   6  -7 -17   -4.81    4.60
  -6   7 -17    0.37    3.82
  -6   7 -17   -0.49    3.62
   7  -6 -17  -13.27    5.13
  -7   6 -17    2.80    3.76
  -7   6 -17   14.25    4.85
  -7   6 -19    5.68    3.79
  -6   7 -19    3.26    4.36
  -6   7 -19    5.26    4.47
   6  -7 -19   -0.51    4.22
   7  -6 -19    8.44    5.08
  -7   6 -19   11.24    5.01
  -7   7  20   -3.58    4.62
  -7   7  18   -2.51    3.56
  -7  -7 -18    0.92    3.62
   7   7 -18    1.68    3.91
   7   7 -18    4.71    3.67
  -7  -7 -16    6.85    3.59
   7   7 -16    2.85    3.41
   7   7 -14    6.45    3.49
  -7  -7 -14   14.74    3.82
   7   7 -14    9.57    3.19
   7   7 -12    7.45    2.68
  -7  -7 -12    9.66    3.34
   7   7 -12    7.39    3.31
  -7  -7 -10   14.96    3.80
  -7  -7 -10   20.55    3.70
   7   7 -10   18.59    2.73
  -7  -7  -8  160.72    8.08
  -7   7   6  137.38    3.07
  -7  -7  -6  173.84    7.97
   7  -7   6  169.64    7.19
  -7   7   4   32.51    2.33
   7  -7   4   32.72    3.56
  -7  -7  -4   35.85    4.16
   7  -7   2   82.61    4.63
  -7   7   2   82.02    3.98
   7  -7   2   81.38    3.70
   7  -7   2   70.76    2.53
  -7  -7  -2   85.43    5.80
  -7   7   0  280.99    7.43
  -7   7   0  276.13    7.83
   7  -7   0  261.65    7.12
  -7  -7   0  266.74    9.34
  -7  -7   2   82.84    2.87
   7  -7  -2   77.77    5.55
  -7  -7   2   79.17    5.43
   7  -7  -2   77.86    4.61
  -7   7  -2   78.27    4.85
  -7   7  -2   82.42    3.87
   7   7   2   84.81    4.89
   7  -7  -4   31.43    3.59
  -7  -7   4   31.64    1.96
   7   7   4   31.38    3.71
  -7  -7   4   29.41    3.93
  -7   7  -4   31.14    3.85
  -7   7  -4   29.71    2.29
  -7   7  -4   24.46    1.61
  -7  -7   4   36.43    2.33
   7  -7  -4   32.08    4.04
  -7   7  -6  172.97    8.15
  -7  -7   6  168.02    8.16
  -7  -7   6  162.44    5.49
   7  -7  -6  167.12    8.06
  -7   7  -6  146.60    3.83
   7  -7  -6  180.44    7.86
   7   7   6  169.94    7.46
  -7  -7   8  162.31    8.42
  -7   7  -8  162.26    8.49
   7   7   8  152.08    7.70
   7  -7  -8  159.91    8.18
   7  -7  -8  166.57    8.69
   7  -7 -10   19.85    4.21
  -7   7 -10   11.60    1.44
  -7   7 -10   18.53    4.47
  -7   7 -10   21.84    4.54
  -7  -7  10    8.38    3.46
  -7   7 -12   11.90    4.08
  -7  -7  12   12.33    4.02
  -7   7 -12   10.22    3.75
   7  -7 -12    3.78    3.71
  -7  -7  14   15.01    4.32
  -7   7 -14    3.54    3.86
  -7   7 -14    5.10    3.57
   7  -7 -14   12.16    4.22
  -7   7 -16    5.98    3.90
  -7   7 -16    8.15    4.13
   7  -7 -16    4.40    4.04
  -7   7 -18    2.17    4.16
  -7   7 -18    6.17    4.19
   7  -7 -18   -5.24    4.74
  -8   0   0  124.41    4.64
   8   0   0  117.71    3.89
   0  -8   0  113.44    5.30
   8   0   0  117.16    4.59
   0  -8  -2    6.95    2.23
   8   0   2    8.74    1.96
   8   0  -2   11.59    2.03
  -8   0  -2    9.15    1.86
   8   0   2    7.18    1.94
   0  -8   2    6.32    2.08
   8   0  -2   10.61    2.27
   8   0   2    9.34    2.45
  -8   0   2   10.52    2.37
   0  -8  -2    9.34    2.61
  -8   0  -2    6.14    1.58
   8   0  -2    8.88    2.40
   8   0  -2    8.11    1.48
   0  -8  -2    6.90    1.70
   8   0  -4   56.44    3.65
  -8   0   4   50.32    3.92
   8   0  -4   53.85    4.07
   0   8  -4   51.77    3.79
   0  -8  -4   53.44    2.43
   0  -8   4   54.70    3.81
  -8   0  -4   50.85    2.84
  -8   0  -4   49.65    3.46
   0  -8  -4   57.28    4.34
   8   0   4   48.17    2.29
   8   0   4   50.46    3.83
  -8   0   6   81.17    5.20
  -8   0  -6   87.99    4.97
   0  -8   6   88.83    5.01
   0  -8  -6   92.40    4.16
   8   0  -6   97.39    5.69
   0  -8  -6   88.70    5.56
   8   0   6   76.61    2.65
  -8   0  -6   88.79    3.81
   0   8   6   87.99    4.59
   8   0   8   75.53    5.79
   0  -8   8   88.51    5.09
  -8   0  -8   83.99    4.03
   0   8  -8   88.47    6.05
   0  -8  -8   93.95    6.10
   8   0   8   74.09    2.77
   8   0  -8   95.72    6.42
  -8   0  -8   86.18    5.60
  -8   0 -10    4.31    2.79
   0   8 -10   -0.04    2.66
   0  -8  10   -4.04    2.57
   8   0  10   -5.09    3.48
   8   0 -10    0.99    1.41
   0  -8 -10   -1.53    3.01
   0   8 -10    4.20    3.20
   8   0 -10    1.70    3.23
   8   0  10    1.60    1.54
   0   8 -12   36.73    4.78
   8   0 -12   39.10    4.97
  -8   0 -12   33.69    4.94
   8   0 -12   33.91    2.61
   0  -8  12   35.46    4.35
  -8   0 -12   35.22    2.80
   0   8 -12   43.49    5.41
   0  -8 -12   46.24    5.31
   8   0 -14    3.59    3.60
   0   8 -14   11.25    3.83
  -8   0 -14   13.66    3.88
  -8   0 -14    9.32    2.33
   0   8 -14    7.17    3.34
   0  -8 -14    9.36    4.28
   8   0 -16    1.28    3.71
   0   8 -16    3.59    3.40
  -8   0 -16   -0.41    3.18
   0   8 -16    1.04    3.57
   0  -8 -16    2.39    3.45
   8   0 -18   15.07    4.77
   0   8 -18    4.46    3.39
   0   8 -18    6.89    4.11
  -8   0 -18   12.63    4.76
   0   8 -18    7.82    3.94
   0  -8 -18   11.19    4.64
   8   0  18    4.92    3.28
   8   0 -20    4.73    5.13
   8   0 -20    6.18    4.08
   0   8 -20    7.64    4.37
   8   0  20    4.70    3.56
   0   8 -20    7.90    3.86
   0   8 -20    8.46    4.60
   0  -8 -20    9.01    4.72
  -8   0 -20   14.16    5.40
   8   0  22    0.91    4.03
   0   8 -22   -4.11    4.73
   1   8 -21    0.54    3.85
   1   8 -21    0.30    4.16
   1   8 -21   -3.17    4.48
  -1  -8 -21    2.40    4.66
   8  -1  21   -4.41    3.83
  -8   1  19   -1.53    4.06
   8   1 -19   -3.22    4.36
  -8  -1 -19    1.52    3.86
   8   1 -19    3.55    3.67
   1   8 -19   -1.37    3.75
   8  -1  19   12.21    3.90
  -1  -8 -19    6.16    4.49
   1   8 -19    4.83    3.75
   1   8 -19   -1.21    4.04
  -8   1  17    2.60    3.46
   8   1 -17   -0.46    3.96
   8   1 -17    4.56    3.41
  -8  -1 -17    9.97    4.13
   1   8 -17   -3.21    3.50
   1   8 -17    0.27    3.44
   1   8 -17    1.71    3.60
   8  -1  17    0.71    3.04
  -1  -8 -17    1.02    3.84
   8   1 -15   14.38    4.14
  -8  -1 -15   10.98    3.89
   1   8 -15   12.75    3.94
  -8  -1 -15    8.30    2.66
   1   8 -15   15.38    4.19
  -1  -8 -15   16.42    4.37
  -8   1  15   14.52    4.08
   8   1 -13   47.51    6.14
  -8  -1 -13   45.35    5.44
   1   8 -13   46.76    5.29
  -8   1  13   53.53    5.56
  -8  -1 -13   51.35    3.76
  -1  -8 -13   55.09    6.01
   1   8 -13   55.44    5.79
   8   1 -13   48.72    3.52
  -8   1  11   43.45    4.91
   8   1 -11   40.87    5.20
  -8  -1 -11   37.52    2.93
   8   1 -11   38.63    3.16
   1   8 -11   38.16    4.61
  -1  -8 -11   40.05    5.03
  -8  -1 -11   33.27    4.73
   1   8 -11   38.69    5.01
   1  -8  11   42.20    4.25
  -8   1   9    7.23    2.80
  -8  -1  -9    9.57    2.97
   8   1  -9    9.46    3.47
  -8  -1  -9    6.86    2.31
   1   8  -9    2.75    2.50
   1  -8   9    5.17    2.09
   8  -1   9   10.21    3.27
   1   8  -9    2.76    2.98
  -1  -8  -9    7.20    3.08
  -8  -1  -7   51.23    4.16
   1  -8   7   44.30    3.63
  -8  -1  -7   51.76    3.48
   8   1  -7   48.69    4.50
   8  -1   7   48.76    4.94
  -1  -8  -7   51.70    3.64
  -1  -8  -7   46.56    4.65
  -8  -1  -5   10.88    2.33
   1  -8   5    9.98    2.17
  -1  -8  -5    8.21    1.76
  -8  -1  -5    9.38    2.08
  -1  -8  -5    9.84    2.86
   8   1  -5   12.81    2.67
  -1   8   5    9.16    2.28
  -8   1   3    6.59    2.22
   8   1  -3    6.07    0.99
   8  -1   3    5.17    1.51
  -1  -8  -3    5.60    1.12
   8  -1   3    7.58    2.12
   8   1  -3    6.18    2.00
  -1  -8  -3    5.29    2.26
  -1  -8  -3    8.12    2.80
   8   1  -3    5.15    2.10
  -8  -1  -3    6.15    1.89
  -8  -1  -3    7.13    1.74
   1  -8   3    5.52    2.16
  -8   1   1  272.90    6.85
   8  -1   1  267.93    6.55
  -8  -1  -1  265.81    5.31
  -8  -1  -1  256.92    6.67
  -1  -8  -1  270.32    8.15
   8  -1   1  273.24    7.44
   8   1  -1  274.98    7.44
   8   1  -1  269.45    7.48
   8  -1   1  274.40    6.09
  -1  -8  -1  275.43    5.58
   8   1  -1  258.38    4.43
   1  -8   1  263.28    7.31
   8  -1  -1  268.16    5.50
   8   1   1  268.95    5.58
  -8   1  -1  260.58    5.91
   8  -1  -1  267.32    6.68
  -8  -1   1  255.23    7.25
   1  -8  -1  274.18    6.87
   8  -1  -1  269.11    6.79
   8  -1  -1  280.36    6.86
   8  -1  -1  261.72    7.92
   1  -8  -1  250.92    7.97
   1  -8  -1  284.50    7.84
  -1  -8   1  261.88    7.83
   8   1   1  275.94    7.05
   8  -1  -1  261.05    6.00
   8  -1  -3    5.15    1.75
  -1   8  -3    7.54    2.12
   8  -1  -3    6.61    2.09
   8  -1  -3    6.81    2.21
  -8   1  -3    6.08    1.92
  -1   8  -3    6.35    0.98
  -8  -1   3    6.18    2.30
   1  -8  -3    5.12    1.87
  -1  -8   3    8.14    2.42
   1  -8  -3    5.97    2.24
   8  -1  -3    7.69    2.23
   8   1   3    3.13    1.79
  -8   1  -3    5.16    1.30
  -8   1  -5   12.41    2.49
  -1   8  -5    8.71    2.14
   8  -1  -5    9.93    2.75
  -1   8  -5    8.86    2.95
   8  -1  -5    6.51    2.42
   1   8   5    7.74    1.85
  -1   8  -5    7.13    1.62
  -1  -8   5    9.18    2.43
  -8   1  -5    8.05    1.39
   8   1   5    9.85    1.71
   1  -8  -5    9.56    2.89
  -8  -1   5   11.28    2.75
  -1  -8   7   50.49    4.27
  -8   1  -7   51.25    4.28
  -1   8  -7   48.52    3.56
   8   1   7   48.60    2.77
  -8  -1   7   48.99    4.40
  -1   8  -7   51.13    4.78
   1  -8  -7   47.03    4.46
  -1   8  -7   49.56    3.73
  -8   1  -7   50.08    2.67
   8  -1  -7   51.03    4.55
   1   8   7   50.01    3.88
   8  -1  -9    9.36    3.53
  -8   1  -9    9.23    2.93
   8   1   9    2.55    3.28
  -1  -8   9    6.32    2.70
  -1   8  -9    5.91    3.01
   8  -1  -9    5.82    1.00
  -8   1  -9    8.81    1.89
   1  -8  -9    7.15    3.27
  -1   8  -9    6.98    3.12
   8   1   9    2.57    1.65
   8   1  11   32.81    3.01
  -1  -8  11   38.47    4.43
   8  -1 -11   44.59    5.14
  -8   1 -11   36.25    4.73
   8  -1 -11   33.01    1.91
  -8   1 -11   31.48    2.02
   8   1  11   49.49    5.89
  -1   8 -11   37.88    4.81
  -1   8 -11   36.94    5.06
   1  -8 -11   35.03    4.82
   8  -1 -13   57.11    6.01
  -8   1 -13   59.26    6.00
  -1   8 -13   57.05    6.10
  -1  -8  13   52.90    5.26
  -8   1 -13   51.90    3.14
  -1   8 -13   57.84    6.11
   1  -8 -13   51.15    5.73
   8  -1 -15   14.73    4.26
  -8   1 -15    7.68    3.67
  -1   8 -15    8.65    3.82
   1  -8 -15   11.51    4.01
  -1   8 -15    9.84    4.01
  -8   1 -17   -1.26    4.05
  -1   8 -17    1.92    3.61
  -1   8 -17    4.30    3.79
   1  -8 -17    1.09    3.69
  -1   8 -17    5.21    3.35
   8  -1 -17   -3.31    3.86
   8  -1 -19   13.80    5.10
  -1   8 -19    3.53    3.53
  -1   8 -19    1.93    3.78
  -1   8 -19    8.12    4.48
  -8   1 -19    9.00    4.11
   1  -8 -19    8.87    4.43
  -1   8 -21   -2.97    4.92
   8  -1 -21    8.61    4.84
  -1   8 -21    2.14    4.23
   8   1  21    1.42    3.73
   1  -8 -21    3.76    4.30
   8   1  23    3.02    4.57
   2   8 -22   -1.25    4.40
   2   8 -22    4.00    4.44
   2   8 -22   -9.10    4.80
   8  -2  20    3.02    3.50
  -8   2  20   12.18    4.97
   8   2 -20    6.08    4.61
   2   8 -20    4.66    3.77
   2   8 -20   11.23    4.40
   2   8 -20    1.62    4.03
  -8  -2 -20    9.53    4.68
  -2  -8 -20   11.45    4.60
   8  -2  18    8.13    3.75
   8   2 -18    1.82    4.02
   8   2 -18    4.37    3.52
  -8  -2 -18    3.73    4.24
   2   8 -18   -1.96    3.45
   2   8 -18    5.46    3.63
  -8   2  18    5.65    4.14
   2   8 -18   -0.03    3.65
  -2  -8 -18   -1.20    3.67
   8  -2  16    2.08    2.68
   8   2 -16    5.82    3.66
  -8  -2 -16    0.56    3.78
   2   8 -16    6.09    3.76
  -8   2  16   -1.29    3.33
   8   2 -16    4.74    3.22
  -8  -2 -16    3.90    2.50
   2   8 -16    2.08    3.38
  -2  -8 -16    1.32    3.58
   8  -2  14   13.00    2.98
  -8   2  14   24.51    4.47
   8   2 -14   21.38    3.62
   8   2 -14   23.62    4.88
   2   8 -14   18.45    4.07
  -8  -2 -14   14.43    4.25
  -8  -2 -14   21.67    3.32
   8   2 -14   21.04    3.03
  -2  -8 -14   27.54    4.98
   2   8 -14   15.47    4.19
   8   2 -12   46.36    4.25
  -8  -2 -12   46.97    5.40
   2   8 -12   42.76    4.92
   8   2 -12   39.32    3.63
  -8  -2 -12   43.81    3.60
   8  -2  12   44.61    4.21
  -2  -8 -12   40.67    5.00
  -8   2  12   50.87    5.45
   2   8 -12   46.19    5.45
   8   2 -12   42.88    5.38
  -8   2  10    0.74    2.55
   8   2 -10    1.26    2.10
  -8  -2 -10   -1.01    2.68
   8   2 -10   -1.82    3.42
   2   8 -10    0.21    2.57
   2  -8  10   -0.29    2.24
   8  -2  10    4.36    3.50
  -2  -8 -10    2.73    2.97
   2   8 -10    3.78    3.24
  -8   2   8   93.66    5.48
   2  -8   8   85.46    4.58
  -8  -2  -8   84.51    5.43
  -8  -2  -8   86.76    4.88
   8  -2   8   79.23    6.12
  -2  -8  -8   82.32    5.61
  -8   2   6   85.95    4.68
   8  -2   6   90.79    5.84
  -8  -2  -6   89.09    4.94
   2  -8   6   84.40    4.26
  -2  -8  -6   85.20    4.15
  -2  -8  -6   90.87    5.39
  -8  -2  -6   90.47    4.56
   8   2  -4    7.53    2.31
  -8  -2  -4    6.25    1.98
  -8  -2  -4    8.92    1.93
  -2  -8  -4    9.81    1.68
   8  -2   4    9.43    2.71
  -2  -8  -4    9.23    2.77
   2  -8   4    7.28    2.02
  -2  -8  -4   11.39    2.87
   8  -2   2   61.41    4.15
  -2  -8  -2   60.21    4.48
  -8  -2  -2   64.88    3.98
  -8  -2  -2   66.49    2.95
   8   2  -2   68.10    3.86
   8  -2   2   57.37    2.39
   8  -2   2   69.02    2.76
   8  -2   2   58.44    3.80
   8  -2   2   59.33    4.49
   2  -8   2   55.59    3.58
   8   2   0  303.91    7.42
  -8   2   0  306.94    6.47
   8  -2   0  314.11    7.45
  -8  -2   0  303.39    7.84
   8  -2   0  319.64    6.51
   2  -8   0  311.37    7.72
  -2  -8   0  307.19    8.79
   2   8   0  290.73    4.33
   2  -8   0  291.69    8.17
   8  -2   0  293.53    7.38
   8   2   0  304.40    8.09
   8  -2   0  302.37    6.37
  -2  -8   0  303.25    4.91
  -2  -8   2   58.36    4.28
  -8   2  -2   60.73    2.68
   2  -8  -2   62.90    3.87
  -8  -2   2   61.45    4.08
   8  -2  -2   66.21    3.69
   8  -2  -2   66.64    4.55
   2  -8  -2   62.64    4.37
  -2   8  -2   57.02    4.08
   8  -2  -2   64.22    3.81
   8   2   2   63.36    3.91
   8  -2  -2   63.65    3.20
   8  -2  -4    9.45    2.55
  -8  -2   4    7.70    2.15
  -2   8  -4    8.44    1.56
   8  -2  -4    7.96    1.29
  -2   8  -4    8.15    2.56
  -2  -8   4    9.12    2.57
  -2   8  -4    7.65    2.00
   8  -2  -4    6.88    2.47
  -8  -2   4    4.14    2.32
  -2   8  -4    6.77    2.14
   8   2   4    5.71    1.76
  -8   2  -4    6.88    1.01
   2  -8  -4    7.78    2.78
  -8   2  -4    8.00    2.20
  -2  -8   4    7.22    2.14
   2   8   4    9.72    1.65
   2  -8  -4    8.04    2.25
  -2   8  -6   89.68    4.32
  -8   2  -6   85.55    5.08
  -8  -2   6   94.32    5.80
   8  -2  -6   91.20    5.71
  -8   2  -6   68.17    2.33
  -2   8  -6   90.22    4.10
  -2   8  -6   90.22    5.86
   2  -8  -6   85.01    5.64
   8   2   6   87.24    3.90
  -2  -8   6   83.39    5.15
   8  -2  -6   82.56    5.37
   2   8   6   86.34    4.21
  -8  -2   8   90.01    6.00
  -8   2  -8   83.88    3.03
  -2  -8   8   87.63    5.57
  -8   2  -8   91.46    6.26
   8   2   8   88.65    6.19
  -2   8  -8   94.71    6.45
   2  -8  -8   93.79    6.25
   8   2   8   91.28    4.18
  -2   8  -8   90.65    4.68
   8  -2  -8   94.11    6.03
  -8   2  -8   94.74    6.06
   8   2  10   -0.75    2.02
   8  -2 -10    2.17    3.43
  -2   8 -10   -4.26    2.95
  -2   8 -10   -4.39    3.32
  -8   2 -10    0.24    3.06
  -2  -8  10   -3.02    2.75
   8   2  10    3.75    3.38
  -8  -2  10   -3.70    3.19
   2  -8 -10   -1.62    3.28
  -8   2 -10    0.40    2.77
  -2  -8  12   39.43    4.81
  -8   2 -12   43.25    5.59
  -8   2 -12   32.50    1.97
  -2   8 -12   43.45    5.48
  -2   8 -12   45.84    5.33
   2  -8 -12   43.20    5.21
   8  -2 -12   48.46    5.69
   8  -2 -14   27.20    4.93
  -2  -8  14   28.99    4.51
  -2   8 -14   17.23    4.24
  -2   8 -14   19.69    4.70
  -8   2 -14   18.37    4.63
   2  -8 -14   27.90    5.09
  -2   8 -16   -2.01    3.27
   8  -2 -16    4.06    3.74
  -8   2 -16    1.44    3.58
  -2   8 -16    3.46    2.75
  -2   8 -16    6.96    3.89
   2  -8 -16    4.64    4.06
   8  -2 -18    9.14    4.55
  -2   8 -18    1.37    3.05
  -8   2 -18    0.29    3.74
  -2   8 -18    6.95    4.11
  -2   8 -18    0.80    3.85
   2  -8 -18    5.01    3.89
   8  -2 -20    2.73    4.46
  -8   2 -20   14.20    5.20
  -2   8 -20    8.99    4.54
  -2   8 -20    8.18    4.88
   2  -8 -20    4.65    4.56
   8   2  22    3.96    4.41
   3   8 -21    0.59    4.26
   3   8 -21    5.00    4.08
   3   8 -21   -0.65    4.16
  -3  -8 -21    2.09    4.44
   8  -3  19    4.69    3.54
  -8   3  19    9.11    4.22
   3   8 -19    2.73    3.53
   8   3 -19    6.54    4.47
   3   8 -19   12.85    4.96
   3   8 -19   14.80    4.65
  -3  -8 -19    4.51    4.25
  -8  -3 -19   16.54    5.37
  -8   3  17   -0.67    3.46
   8   3 -17   -1.86    4.11
  -8  -3 -17    0.87    3.43
   8   3 -17    0.16    2.81
   3   8 -17   -1.45    3.37
   3   8 -17    2.36    3.52
  -3  -8 -17   -1.65    3.71
   8  -3  17    6.59    3.19
   8  -3  15    1.98    2.64
  -8  -3 -15    8.99    3.91
   8   3 -15    3.87    2.88
   8   3 -15   10.32    4.17
   3   8 -15    6.81    3.17
  -8  -3 -15    1.11    2.45
  -8   3  15   13.02    4.32
   8   3 -15    5.12    2.50
  -3  -8 -15    8.49    4.05
   3   8 -15   11.09    3.90
   8  -3  13   29.13    3.61
  -8   3  13   36.62    4.91
  -8  -3 -13   25.33    4.35
   8   3 -13   27.50    3.64
   8   3 -13   21.58    4.64
   3   8 -13   30.13    4.42
  -8  -3 -13   36.47    3.88
  -3  -8 -13   27.20    4.44
   8   3 -13   27.37    3.52
   3   8 -13   31.30    4.93
  -8   3  11   13.13    3.45
  -8  -3 -11   13.09    3.71
   3   8 -11   10.57    3.10
   8   3 -11    9.34    2.42
  -8  -3 -11   13.23    2.74
   8   3 -11   12.76    2.75
  -3  -8 -11   11.10    3.40
   8  -3  11   10.12    2.42
   3   8 -11    9.31    3.61
   3  -8   9   36.40    3.33
  -8   3   9   39.54    4.23
   8   3  -9   40.34    3.02
   8  -3   9   29.12    2.72
   8  -3   9   30.81    4.54
  -8  -3  -9   42.36    4.07
  -8  -3  -9   31.43    4.20
  -3  -8  -9   42.50    4.73
   8  -3   7  102.02    3.44
  -8   3   7  114.29    5.54
  -8  -3  -7  109.44    5.69
   3  -8   7  104.47    4.48
   8   3  -7  106.41    3.19
  -8  -3  -7  111.13    5.54
  -3  -8  -7  100.89    5.03
   8  -3   7  100.05    6.22
  -3  -8  -7  119.05    6.55
  -8   3   5   52.41    3.47
  -8  -3  -5   57.47    3.71
  -3  -8  -5   54.25    4.74
   3  -8   5   49.69    3.21
  -3  -8  -5   51.43    3.26
  -8  -3  -5   52.88    3.96
  -3  -8  -5   52.18    4.41
   8  -3   5   55.58    4.60
  -8  -3  -3   -0.16    1.96
   3  -8   3    0.44    1.64
  -8  -3  -3   -1.69    1.51
  -3  -8  -3   -1.84    2.36
   8  -3   3   -4.43    2.48
   8  -3   3   -0.16    0.54
   8   3  -3    0.91    1.88
  -8  -3  -1  177.40    3.83
   8  -3   1  177.78    6.27
   3  -8   1  178.14    5.68
   8  -3   1  178.31    6.13
   8  -3   1  180.46    4.25
   3  -8   1  165.51    3.53
  -3  -8  -1  182.65    7.37
  -8  -3  -1  194.71    6.63
   8  -3   1  173.93    4.43
   8   3  -1  175.84    5.43
  -8  -3   1  172.06    6.61
   8  -3  -1  182.19    5.21
   8  -3  -1  186.59    6.29
   8  -3  -1  174.26    5.30
   3   8   1  182.98    4.46
   3  -8  -1  176.37    6.61
  -3   8  -1  184.44    6.46
  -3  -8   1  187.30    7.35
   8  -3  -1  187.38    5.58
   3  -8  -1  191.80    6.79
   8  -3  -3   -1.01    2.00
  -8   3  -3   -0.16    1.96
  -3  -8   3    2.16    1.83
  -3   8  -3   -1.86    2.31
   3   8   3   -0.39    1.52
   8  -3  -3    0.73    1.80
   3  -8  -3    1.31    1.95
   8   3   3   -0.09    2.26
   8  -3  -3   -0.70    1.24
  -3  -8   3   -1.80    2.25
  -3   8  -3   -0.45    1.86
   3  -8  -3    1.44    2.44
  -8  -3   3    0.07    2.19
  -8  -3   5   56.64    4.55
  -3  -8   5   53.84    3.79
  -8   3  -5   51.78    4.42
  -3  -8   5   55.15    4.41
  -3   8  -5   55.76    3.21
  -3   8  -5   57.26    4.71
   3  -8  -5   56.54    4.38
  -3   8  -5   52.02    3.59
  -3   8  -5   58.20    3.30
   8   3   5   52.31    3.43
   3  -8  -5   55.08    4.62
   8   3   5   49.08    4.34
   8  -3  -5   54.06    4.20
  -8  -3   5   61.19    4.04
  -8   3  -5   56.73    4.35
   3   8   5   51.25    2.83
   8  -3  -5   54.81    4.55
   8  -3  -7  107.07    6.46
  -8  -3   7  109.49    6.51
  -8   3  -7  116.65    6.34
  -8   3  -7  112.37    6.55
  -3  -8   7  106.26    6.22
  -3   8  -7  109.60    5.11
  -3   8  -7  113.18    6.77
   3  -8  -7  101.75    6.42
   8   3   7  111.70    4.93
   8  -3  -7  108.64    6.27
   3   8   7  103.12    4.81
   8   3   7   99.67    6.29
  -3   8  -7  111.65    4.51
   8   3   9   38.80    3.55
   8  -3  -9   40.18    4.94
   8   3   9   38.60    4.84
  -8  -3   9   39.35    4.84
  -8   3  -9   28.19    1.77
  -8   3  -9   37.03    4.53
  -3   8  -9   35.22    4.38
  -8   3  -9   39.07    4.84
  -3  -8   9   35.98    4.22
  -3   8  -9   39.72    3.28
  -3   8  -9   33.55    4.56
   3  -8  -9   36.98    4.79
  -8   3  -9   25.09    1.65
   8  -3 -11   17.36    4.20
  -8  -3  11    6.93    3.40
  -8   3 -11   20.72    4.23
  -3   8 -11   14.28    3.99
  -8   3 -11   13.88    3.76
  -3  -8  11    9.45    3.24
  -8   3 -11    9.83    1.70
  -3   8 -11   11.23    3.99
   3  -8 -11    6.80    3.34
   8  -3 -13   28.46    5.13
  -8   3 -13   23.50    4.52
  -8   3 -13   31.32    5.20
  -3  -8  13   31.32    4.62
  -3   8 -13   29.76    5.06
  -3   8 -13   31.50    5.02
   3  -8 -13   28.45    4.86
  -3  -8  15   10.66    3.86
   8  -3 -15    7.84    4.31
  -8   3 -15    7.06    3.82
  -3   8 -15    5.71    2.84
  -8   3 -15    6.94    3.96
  -3   8 -15    6.47    3.52
   3  -8 -15   11.72    4.27
  -3   8 -15   12.11    4.26
   8  -3 -17   -4.14    4.13
  -3   8 -17    0.04    2.86
  -8   3 -17   -5.51    3.86
  -8   3 -17    4.46    3.52
  -3   8 -17   -7.37    4.37
  -3   8 -17   -4.08    3.73
   3  -8 -17   -1.15    3.74
   8  -3 -19    7.90    4.95
   3  -8 -19    6.62    4.51
  -8   3 -19    1.81    3.55
  -3   8 -19    6.94    4.38
  -3   8 -19    2.64    4.20
   4   8 -22    4.78    4.84
  -4  -8 -22   -2.72    4.61
  -8   4  20    3.89    3.99
   4   8 -20    9.53    4.62
  -8  -4 -20    9.64    4.66
   4   8 -20   17.50    5.38
   8   4 -20   11.33    5.43
   4   8 -20    7.01    4.51
  -4  -8 -20    5.18    4.47
  -8   4  18    3.43    3.55
  -8  -4 -18    3.79    3.73
   8   4 -18    9.12    4.38
   4   8 -18   -1.21    3.39
   8  -4  18    3.37    3.15
   4   8 -18    7.86    3.87
  -4  -8 -18   -4.60    3.50
   4   8 -18    5.06    4.24
  -8   4  16   -3.87    3.59
   8  -4  16    1.36    2.72
  -8  -4 -16    5.91    3.87
   8   4 -16   -0.45    3.63
   8   4 -16    1.96    2.81
   4   8 -16    1.88    3.25
  -8  -4 -16    2.73    2.80
   8   4 -16    3.80    2.73
  -4  -8 -16    1.03    3.20
   4   8 -16   -1.96    3.29
   8  -4  14   15.33    3.24
  -8  -4 -14   11.52    4.02
   8   4 -14   15.56    3.23
   8   4 -14   14.53    4.25
   4   8 -14   17.86    3.71
  -8   4  14    8.34    3.42
  -8  -4 -14   16.92    3.34
  -4  -8 -14   18.61    4.31
   8   4 -14   13.68    3.46
   4   8 -14   14.45    4.20
   8  -4  12   35.10    3.68
   4   8 -12   36.50    4.32
   8   4 -12   37.22    3.73
  -8  -4 -12   33.99    3.85
  -4  -8 -12   34.51    4.80
  -8   4  12   28.57    4.25
  -8  -4 -12   36.06    4.94
   4   8 -12   35.99    5.01
   8   4 -12   35.66    3.97
  -8   4  10    0.74    2.47
   8  -4  10    0.46    1.75
  -8  -4 -10    3.56    2.81
   8   4 -10    0.62    1.74
   4   8 -10   -0.90    2.37
  -8  -4 -10   -0.20    2.53
   8  -4  10   10.01    3.96
  -4  -8 -10    3.55    3.02
  -8   4   8   66.61    4.71
   4  -8   8   62.39    3.50
  -8  -4  -8   66.99    5.04
   8   4  -8   63.92    2.83
  -8  -4  -8   69.08    5.04
   8  -4   8   60.52    5.36
  -4  -8  -8   64.94    5.14
  -8  -4  -6   64.54    4.64
  -8  -4  -6   65.63    4.32
   4  -8   6   59.82    3.13
  -4  -8  -6   59.27    3.88
   8  -4   6   65.38    5.12
  -4  -8  -6   65.64    5.03
  -8   4   6   65.54    4.12
  -4  -8  -6   63.58    5.28
  -4  -8  -4   13.28    3.11
  -8   4   4   11.29    1.81
  -8  -4  -4   12.34    2.21
  -8  -4  -4   12.86    2.63
   8  -4   4   15.05    3.00
   4  -8   4   11.98    1.98
  -4  -8  -2   45.34    4.19
  -8  -4  -2   45.88    2.62
   4  -8   2   47.14    2.73
   8  -4   2   51.97    4.12
   8   4  -2   49.52    3.10
   8  -4   2   40.16    1.66
  -8  -4  -2   54.41    4.12
   8  -4   2   43.11    2.17
  -8   4   2   47.06    2.31
   8  -4   2   47.89    3.71
   4  -8   2   48.32    2.96
   4   8   0  175.19    4.96
   8  -4   0  194.01    4.80
  -8  -4   0  156.22    2.69
  -8   4   0  184.65    5.91
   4  -8   0  188.27    4.47
   8  -4   0  182.77    5.85
  -8  -4   0  195.80    7.19
  -4   8   0  180.99    6.50
   4  -8   0  176.53    6.40
  -4   8   0  191.94    6.69
   8  -4   0  180.11    5.14
   8   4   0  185.49    5.11
  -4  -8   0  185.00    7.44
   8  -4  -2   45.68    2.99
  -8  -4   2   45.45    4.07
  -8   4  -2   45.77    3.73
   8   4   2   43.04    4.00
   4   8   2   46.88    3.01
   8  -4  -2   46.67    2.84
  -4  -8   2   47.79    4.37
  -4   8  -2   44.48    3.93
  -4   8  -2   48.14    3.43
   8  -4  -2   49.38    3.55
   4  -8  -2   51.26    4.02
   4  -8  -2   49.76    4.14
   8  -4  -4   10.38    2.54
  -4  -8   4   12.42    2.15
  -4  -8   4   15.19    3.20
   8   4   4    9.77    2.75
  -8   4  -4   13.00    2.85
   4   8   4   11.97    2.39
   8   4   4   13.46    2.39
   4   8   4   12.69    1.36
  -4   8  -4   11.55    2.23
   4  -8  -4    9.82    2.73
  -4   8  -4   14.06    3.03
  -8  -4   4   15.61    3.11
   4  -8  -4   14.95    2.94
  -8  -4   4    9.90    1.97
  -8  -4   6   64.16    5.29
  -4  -8   6   69.79    4.12
  -8   4  -6   65.06    4.89
  -4  -8   6   58.20    4.80
  -4   8  -6   67.41    5.31
  -8   4  -6   56.84    4.86
  -4   8  -6   61.02    3.85
   8   4   6   62.16    5.14
  -4   8  -6   65.19    3.74
   4  -8  -6   67.66    5.21
   8  -4  -6   63.23    4.72
   8  -4  -6   67.03    5.21
   4   8   6   65.26    3.42
   4  -8  -6   64.85    5.00
  -8   4  -8   67.62    5.47
  -8  -4   8   75.87    5.95
  -4  -8   8   74.12    5.60
  -8   4  -8   62.70    5.38
  -4   8  -8   70.88    5.76
   8   4   8   61.61    5.53
   8  -4  -8   66.73    5.49
  -4   8  -8   65.33    3.44
   4  -8  -8   70.31    5.75
   8  -4 -10    1.85    3.14
  -4   8 -10    1.59    1.72
  -8  -4  10   -5.15    3.10
  -8   4 -10   -4.20    3.53
  -4   8 -10   -1.60    3.19
  -8   4 -10   -0.70    3.23
  -8   4 -10    0.20    0.74
   8   4  10   12.04    4.04
  -4  -8  10    5.67    3.16
  -4   8 -10    3.86    3.56
  -8   4 -10   -0.12    0.71
   4  -8 -10    0.26    3.32
  -8  -4  12   39.97    5.24
  -8   4 -12   37.89    5.42
  -4   8 -12   32.63    4.89
  -4  -8  12   32.96    4.97
  -8   4 -12   30.69    5.01
  -4   8 -12   28.52    4.88
   8  -4 -12   34.40    5.12
   4  -8 -12   34.46    5.10
  -4   8 -14    7.54    2.67
  -8   4 -14   13.75    4.08
  -4  -8  14   20.31    4.50
  -4   8 -14   11.39    4.10
  -8   4 -14   15.51    4.48
   8  -4 -14   10.86    4.19
  -4   8 -14   14.61    4.43
   4  -8 -14   10.83    4.14
   8  -4 -16    1.98    4.07
  -8   4 -16   -2.59    3.59
  -4   8 -16    3.01    3.58
  -8   4 -16    2.66    4.15
  -4   8 -16    6.79    4.22
   4  -8 -16    4.26    3.93
  -8   4 -18    0.52    3.53
  -8   4 -18   13.17    4.78
   4  -8 -18   10.12    4.35
  -4   8 -18   -2.03    3.90
  -4   8 -18    1.15    4.00
   8  -4 -18    3.77    4.26
  -4   8 -20    3.32    3.85
  -4   8 -20   12.73    5.38
  -8   4 -20   -2.58    4.07
   4  -8 -20    4.37    4.27
   5   8 -21    7.87    5.03
  -5  -8 -21    5.25    4.32
  -8   5  19   11.90    4.68
  -8  -5 -19    3.22    4.35
   8   5 -19   13.24    5.06
   5   8 -19   13.69    5.10
   5   8 -19    3.77    3.63
   5   8 -19    5.88    4.24
  -5  -8 -19    5.37    4.33
  -8   5  17   -0.07    3.50
  -8  -5 -17    6.28    4.35
   8   5 -17   -0.84    4.03
   5   8 -17    0.91    3.09
  -8  -5 -17   -0.07    3.05
  -5  -8 -17    3.71    3.58
   5   8 -17   -1.73    3.65
  -8   5  15    2.87    3.19
  -8  -5 -15    4.79    3.71
   8   5 -15    0.13    2.55
   8   5 -15    3.26    3.65
   5   8 -15    1.81    2.79
  -8  -5 -15    8.11    3.20
  -5  -8 -15   -3.08    3.59
   8   5 -15    5.68    2.84
   5   8 -15    4.23    3.29
  -8   5  13   23.27    4.17
  -8  -5 -13   23.56    4.68
   8   5 -13   16.44    3.11
   5   8 -13   20.16    3.64
  -8  -5 -13   14.69    3.23
  -5  -8 -13   20.18    4.32
   5   8 -13   22.46    4.40
   8   5 -13   19.35    3.74
  -8   5  11    3.61    3.16
   5   8 -11    5.72    3.32
   8   5 -11    0.35    2.08
  -5  -8 -11   -0.11    3.11
  -8  -5 -11    1.66    2.62
   5   8 -11    6.98    2.61
   8   5  -9   54.39    3.03
  -8  -5  -9   59.05    5.22
  -8   5   9   54.39    4.85
   8  -5   9   48.33    5.10
  -5  -8  -9   54.48    5.14
   5  -8   7  155.35    4.34
  -8  -5  -7  185.68    7.79
   8  -5   7  164.18    7.79
  -5  -8  -7  176.80    7.81
  -5  -8  -7  162.75    8.00
  -8   5   7  163.64    6.74
  -8  -5  -5  104.17    5.84
   5  -8   5   95.08    3.35
  -5  -8  -5   96.86    6.07
   8  -5   5   98.01    5.86
  -8   5   5  105.32    4.74
  -8   5   3   16.86    1.87
  -5  -8  -3   19.71    3.55
   5  -8   3   16.36    1.91
  -8  -5  -3   18.85    3.05
   8  -5   3   20.44    3.14
   5  -8   3   14.13    2.30
   8  -5   3   13.26    1.27
  -5   8   3   16.00    2.37
  -8   5   1   47.72    1.99
   8  -5   1   54.07    2.33
  -8   5   1   54.38    3.43
  -8   5   1   54.35    3.28
   5  -8   1   52.79    3.11
   8  -5   1   52.20    3.67
  -5   8   1   58.26    3.94
  -8  -5  -1   62.97    4.52
   8  -5   1   54.33    4.16
   5  -8   1   56.32    3.89
   8  -5   1   54.43    2.92
   8   5  -1   57.72    2.92
  -5  -8  -1   56.27    4.58
   5  -8   1   51.68    3.10
   8  -5  -1   56.37    3.06
  -8   5  -1   55.95    3.88
   5   8   1   52.74    3.32
  -8  -5   1   56.19    4.45
   5  -8  -1   56.03    4.43
  -5   8  -1   51.86    4.05
   8  -5  -1   53.88    3.20
   5  -8  -1   59.76    4.19
   8   5   1   52.73    2.65
  -5  -8   1   55.77    4.62
  -5   8  -1   51.06    3.61
   8  -5  -1   55.38    3.55
  -8   5  -1   55.60    2.93
   8  -5  -3   17.54    2.44
   8   5   3   19.37    3.29
  -5  -8   3   17.20    3.32
   5  -8  -3   14.80    2.86
   5   8   3   14.31    2.40
  -5  -8   3   19.79    2.20
  -8   5  -3   21.61    3.21
  -8  -5   3   17.97    3.26
   5  -8  -3   15.08    2.84
  -5   8  -3   16.21    3.11
   8  -5  -3   18.28    2.68
  -5   8  -3   15.34    2.25
  -5  -8   3    9.62    1.10
  -5  -8   5  106.24    4.53
  -8  -5   5  102.26    6.20
  -5  -8   5  105.67    6.52
  -8   5  -5  100.66    5.92
  -5   8  -5   97.77    5.96
   8   5   5  100.18    5.96
   5   8   5  103.17    5.28
  -5   8  -5  106.61    4.46
   5  -8  -5   96.91    5.89
   8  -5  -5  101.72    5.74
  -8  -5   5  111.67    4.84
   8  -5  -5  107.15    6.30
   5  -8  -5  104.77    6.20
   5   8   5   94.94    3.35
  -5   8  -7  162.83    5.88
  -8  -5   7  180.04    8.35
  -5  -8   7  158.75    5.99
  -8   5  -7  166.12    7.98
  -5  -8   7  174.00    8.17
  -8   5  -7  165.30    8.06
  -5   8  -7  167.21    8.16
   8   5   7  166.97    7.99
   5  -8  -7  167.44    7.91
   8  -5  -7  169.31    8.14
  -5   8  -7  154.63    5.30
   5  -8  -7  168.76    8.14
   8  -5  -7  163.40    7.46
  -8  -5   9   59.32    5.54
  -5  -8   9   50.79    5.23
  -8   5  -9   57.88    5.63
  -8   5  -9   56.02    5.53
   5  -8  -9   55.78    5.49
  -5   8  -9   44.21    5.23
   8  -5  -9   56.44    5.59
   8   5   9   55.75    5.69
  -5   8  -9   67.17    5.97
  -5   8  -9   48.58    2.85
  -8   5 -11    3.24    3.37
  -5   8 -11    5.89    3.69
  -8  -5  11    0.64    3.13
  -8   5 -11    2.64    3.40
  -5  -8  11    0.81    3.32
  -5   8 -11    0.08    3.30
   5  -8 -11   -4.01    3.65
   8  -5 -11    3.45    3.48
  -5   8 -13   18.98    4.70
  -5   8 -13   13.54    2.55
  -8  -5  13   17.82    4.34
  -8   5 -13   16.46    4.59
  -5   8 -13   22.57    4.60
  -5  -8  13   14.68    3.90
  -8   5 -13   16.06    4.38
   5  -8 -13   26.90    4.99
   8  -5 -13   19.21    4.50
   8  -5 -15    7.98    4.37
  -5  -8  15    2.51    3.40
  -8   5 -15    1.24    3.48
  -5   8 -15   -2.24    3.70
  -8   5 -15    1.19    3.79
  -5   8 -15   10.66    4.53
   5  -8 -15    9.49    4.27
  -8   5 -17    6.71    4.19
  -5   8 -17   -1.28    3.85
  -5   8 -17    2.07    4.06
   5  -8 -17    0.07    4.28
  -8   5 -17    0.33    3.95
   8  -5 -17   -4.91    4.00
  -8   5 -19   11.30    4.78
  -5   8 -19    5.41    4.23
  -8   5 -19   16.25    5.74
  -5   8 -19    7.71    4.65
   8  -5 -19    7.31    4.94
   5  -8 -19    9.93    4.81
  -8  -6 -20    9.29    4.89
   6   8 -20    3.29    5.19
  -8   6  20    3.57    4.61
   6   8 -20   11.78    4.86
  -6  -8 -20    5.53    4.03
  -8   6  18    3.60    3.72
  -8  -6 -18    8.84    4.39
   8   6 -18    7.27    4.43
   6   8 -18    3.90    4.26
  -6  -8 -18    0.73    3.77
   6   8 -18    1.79    3.54
  -8   6  16    5.42    4.03
  -8  -6 -16    2.07    3.74
   8   6 -16    1.14    3.94
   6   8 -16    3.42    3.15
  -8  -6 -16    7.40    3.62
  -6  -8 -16    5.60    3.84
   8   6 -16   -0.20    3.18
   6   8 -16   -1.98    3.42
  -8   6  14   14.55    3.91
   8   6 -14   12.30    3.09
   8   6 -14   13.63    3.55
  -8  -6 -14   18.34    3.89
  -6  -8 -14   15.50    4.13
   6   8 -14   11.89    3.83
   6   8 -14   12.02    3.18
   8   6 -12   22.70    3.03
   6   8 -12   21.40    3.28
  -8  -6 -12   26.18    4.19
  -6  -8 -12   24.71    4.19
  -8   6  12   15.05    3.81
   6   8 -12   25.82    4.25
  -8  -6 -10    6.79    3.29
   8   6 -10    2.09    1.77
  -6  -8 -10    3.59    2.92
  -8  -6  -8  111.03    6.76
   8  -6   8  104.74    6.66
  -6   8   8   83.91    2.83
  -6  -8  -8  107.48    7.03
  -6  -8  -6  108.52    6.81
  -8  -6  -6  123.41    6.77
   8  -6   6  115.00    6.45
  -6   8   6  116.22    3.89
   6  -8   4   16.54    1.60
  -6  -8  -4   17.09    3.46
   8  -6   4   24.39    3.46
  -8  -6  -4   30.50    3.88
   6  -8   4   19.20    2.92
  -8   6   4   26.38    1.89
  -6   8   4   22.85    2.31
   6  -8   2   46.53    2.61
   8  -6   2   36.93    1.61
   6  -8   2   55.78    3.69
  -6   8   2   50.75    3.54
   8  -6   2   49.61    2.81
  -8  -6  -2   54.39    4.51
  -8   6   2   49.54    3.05
  -6  -8  -2   50.86    4.67
   8  -6   2   53.59    4.30
  -8   6   2   53.91    4.01
  -8   6   0  194.19    6.52
   6  -8   0  201.76    5.99
  -8  -6   0  201.29    8.14
   8  -6   0  199.79    6.54
   6  -8   0  196.17    6.61
   8  -6   0  206.69    6.11
   8  -6   0  197.51    5.03
  -6  -8   0  194.20    8.19
  -6   8   0  202.78    6.89
  -6   8   0  204.17    7.07
  -8   6   0  200.36    6.00
   8  -6  -2   55.10    3.45
   8   6   2   51.22    4.37
   6   8   2   52.48    3.77
  -6   8  -2   48.27    4.09
  -6  -8   2   49.94    4.86
   6  -8  -2   55.02    4.23
   8  -6  -2   50.79    3.91
  -6   8  -2   53.49    3.57
  -8  -6   2   50.35    4.59
   6  -8  -2   48.27    4.59
  -8   6  -2   52.23    2.82
   8   6   2   43.24    2.17
   8  -6  -2   53.02    4.64
  -8   6  -2   56.38    4.33
  -8  -6   4   25.50    3.90
  -6  -8   4   27.66    2.46
  -6  -8   4   24.20    3.69
  -6   8  -4   25.64    3.77
   8   6   4   26.17    3.54
   6   8   4   24.96    3.11
  -8  -6   4   24.42    2.19
   8  -6  -4   22.28    3.05
  -8   6  -4   26.60    3.63
   6  -8  -4   20.60    3.33
  -6   8  -4   22.80    2.57
  -8   6  -4   18.82    1.38
  -6  -8   4   21.20    1.71
   8  -6  -4   25.68    3.72
   6  -8  -4   23.65    3.66
  -6   8  -6  109.53    4.35
  -8  -6   6  120.75    7.07
  -6  -8   6  110.98    6.79
   6  -8  -6  113.23    6.78
  -8   6  -6  124.10    7.10
  -6   8  -6  117.35    6.83
   8   6   6  122.97    6.77
   6   8   6  110.89    6.14
  -6  -8   6  120.07    4.70
  -6   8  -6  111.06    4.29
   6  -8  -6  118.29    6.79
   8  -6  -6  116.68    6.43
  -8  -6   6  117.26    5.01
   8  -6  -6  115.44    6.97
  -6   8  -8   88.88    4.47
  -8  -6   8  116.89    7.35
  -6  -8   8  100.22    4.98
  -6  -8   8  101.52    6.75
  -8   6  -8  114.15    7.34
  -6   8  -8   93.43    6.66
   8   6   8   93.86    6.63
  -6   8  -8   97.30    4.00
   6  -8  -8  110.78    6.93
  -8   6  -8  101.58    6.75
   8  -6  -8   99.91    6.50
   8  -6  -8  104.06    7.05
   6  -8  -8  111.06    7.35
  -8   6 -10    0.85    3.09
   8  -6 -10    0.54    3.13
  -8  -6  10    0.10    3.15
   8   6  10   13.20    4.25
  -6  -8  10    7.83    3.62
  -6   8 -10    4.36    3.28
  -6   8 -10    2.54    3.35
  -8   6 -10    2.40    3.78
   6  -8 -10    1.27    3.34
   6  -8 -12   24.53    4.51
  -6   8 -12   21.02    2.53
  -8   6 -12   18.73    4.52
  -6   8 -12   15.67    4.08
  -8  -6  12   23.87    4.68
  -6  -8  12   27.01    4.76
  -8   6 -12   22.87    4.76
  -6   8 -12   17.16    4.52
   8  -6 -12   29.80    5.11
  -8  -6  14   17.94    4.32
  -8   6 -14   10.64    4.15
  -6  -8  14   10.43    3.90
  -6   8 -14   12.97    4.44
  -8   6 -14   14.51    4.38
   6  -8 -14   14.56    4.44
  -6   8 -14   19.95    4.99
   8  -6 -14   10.22    3.87
  -6  -8  16   -1.63    3.64
  -8   6 -16   -1.56    3.89
  -6   8 -16    3.33    3.98
   6  -8 -16    0.61    3.95
  -8   6 -16   -1.90    3.80
  -6   8 -16    1.68    4.06
   8  -6 -16    3.12    3.91
  -8   6 -18    3.29    3.91
  -6   8 -18    3.23    4.44
  -8   6 -18    4.83    4.46
   6  -8 -18    3.28    4.36
  -6   8 -18    1.98    4.21
   8  -6 -18    6.82    4.83
  -7   8  19    3.79    4.28
  -8   7  19    0.32    3.99
  -8  -7 -19   13.45    5.12
   8   7 -19    6.73    4.82
   7   8 -19   -3.66    4.67
  -7  -8 -19    9.61    4.15
   7   8 -19   11.32    4.59
  -8   7  17    4.33    3.99
   8   7 -17   -8.72    4.81
  -8  -7 -17   -2.10    3.40
  -7  -8 -17   -0.43    3.52
   8   7 -17   -2.00    3.41
   7   8 -17   -1.03    3.55
  -8  -7 -15    4.37    3.24
  -7  -8 -15    4.75    3.42
   8   7 -15    4.93    3.17
   7   8 -15    7.70    3.78
  -8   7  15    3.86    3.43
   7   8 -13   17.11    3.32
  -8  -7 -13   28.39    4.56
  -7  -8 -13   24.88    4.42
   8   7 -13   26.95    4.39
   7   8 -13   25.14    4.24
   8   7 -11    6.44    2.05
  -8  -7 -11   11.24    3.71
  -7  -8 -11    0.11    3.02
  -7  -8 -11    8.49    3.59
  -8  -7  -9   20.81    4.20
  -7  -8  -9   25.95    4.61
  -7  -8  -7   94.30    6.60
  -7   8   7   73.75    2.47
   8  -7   7   96.36    6.39
   7  -8   7  104.00    6.31
  -8  -7  -7   98.43    6.56
  -7  -8  -5   52.76    5.14
  -8   7   5   47.46    2.24
   7  -8   5   49.15    4.27
   8  -7   5   53.51    4.59
  -7   8   5   54.49    2.90
  -8  -7  -5   50.78    4.93
  -8   7   3    0.19    1.62
  -8  -7  -3   -1.73    2.66
   8  -7   3    1.63    2.37
   7  -8   3    1.06    0.94
   7  -8   3    1.35    2.36
  -7  -8  -3    4.16    3.24
  -7   8   3   -0.46    1.75
   8  -7   1  106.81    3.49
  -8   7   1  115.02    5.07
   8  -7   1  114.20    5.66
  -7   8   1  115.83    5.30
   7  -8   1  113.08    5.19
   7  -8   1  114.43    5.05
  -8  -7  -1  120.03    6.90
   8  -7   1  107.53    4.58
  -7  -8  -1  113.31    6.61
  -8   7   1  117.85    5.36
  -8   7  -1  114.12    5.64
   8   7   1  110.91    5.71
  -7   8  -1  114.07    5.85
   7   8   1  112.21    5.45
   7  -8  -1  104.56    6.42
  -7  -8   1   99.01    6.45
  -8  -7   1  118.65    6.82
   7  -8  -1  114.06    5.51
   8  -7  -1  110.72    5.20
  -7   8  -1  120.68    5.25
  -8   7  -1  108.37    4.59
   8  -7  -1  110.53    6.72
  -8   7  -3    0.80    1.45
  -8  -7   3   -0.23    0.61
  -8   7  -3   -0.56    2.35
  -7  -8   3   -1.47    1.40
  -7  -8   3   -0.81    2.77
  -8  -7   3    3.24    3.05
   8  -7  -3   -2.82    2.60
   8   7   3    3.37    2.72
   7   8   3    0.03    2.18
   7  -8  -3   -1.23    2.62
  -7   8  -3    0.47    2.41
   7  -8  -3    1.93    2.39
   8  -7  -3    0.89    2.37
  -7   8  -3   -0.24    1.84
  -7   8  -5   44.95    2.57
  -7  -8   5   50.84    5.03
  -7  -8   5   56.88    2.98
  -7  -8   5   49.11    2.80
  -8  -7   5   44.72    4.83
   7   8   5   54.16    4.64
   8   7   5   52.49    4.61
  -8   7  -5   45.08    4.58
  -7   8  -5   48.29    2.95
   8  -7  -5   53.80    4.71
  -7   8  -5   45.85    4.78
  -8   7  -5   36.30    2.01
   7  -8  -5   44.41    4.34
  -8  -7   5   52.79    3.21
   7  -8  -5   46.69    4.89
   8  -7  -5   43.93    4.59
  -8  -7   7   96.55    6.77
  -7  -8   7   87.54    6.47
  -8   7  -7   90.38    6.52
  -7   8  -7   91.87    6.57
   8   7   7   87.39    6.28
   7   8   7   79.62    5.70
  -8  -7   7   80.65    4.53
   8  -7  -7   90.89    6.63
  -7   8  -7   79.50    3.37
   7  -8  -7   89.53    6.31
   8  -7  -7   98.06    6.48
  -7  -8   7   78.97    4.38
   7  -8  -7   85.59    6.45
  -7  -8   7   90.22    4.24
  -8   7  -9   26.14    4.58
  -8   7  -9   28.78    4.68
   8  -7  -9   22.96    4.28
   8   7   9   20.80    4.42
  -8  -7   9   26.15    4.66
  -7   8  -9   21.99    4.41
  -7  -8   9   20.32    4.05
   7  -8  -9   20.52    4.28
  -8   7 -11   10.05    3.68
  -8   7 -11    2.92    3.38
  -8  -7  11    7.46    3.42
  -7  -8  11   10.26    3.64
  -7   8 -11    7.21    3.61
  -7   8 -11   13.73    4.26
   8  -7 -11    7.43    4.02
   7  -8 -11   12.18    3.74
  -7  -8  13   23.45    4.79
  -8   7 -13   21.51    4.78
  -7   8 -13   19.92    4.74
  -8  -7  13   11.40    4.21
  -7   8 -13   24.03    4.91
  -8   7 -13   20.05    4.59
   8  -7 -13   20.71    4.83
   7  -8 -13   24.07    5.25
  -8  -7  15   -2.72    3.94
  -7  -8  15    6.73    3.93
  -8   7 -15    0.53    3.76
  -7   8 -15    4.48    4.14
  -8   7 -15    4.81    3.88
  -7   8 -15    6.83    4.37
   7  -8 -15    3.06    3.78
   8  -7 -15    5.82    4.19
   7  -8 -17    2.34    4.29
  -7   8 -17    1.60    3.58
  -8   7 -17    6.63    4.66
  -7   8 -17    1.27    3.89
  -8   7 -17   -0.48    3.51
   8  -7 -17    5.10    4.19
  -8   8  18   -0.50    4.09
  -8  -8 -18   -0.49    3.85
   8   8 -18   -5.28    4.71
  -8  -8 -16    1.71    3.45
   8   8 -16    3.05    3.69
  -8   8  16   -0.81    3.56
  -8  -8 -14   12.19    3.97
   8   8 -14    9.49    3.32
  -8  -8 -12   37.14    5.22
  -8  -8 -10   11.55    4.00
  -8  -8  -8    5.20    3.15
   8  -8   8   12.02    3.97
   8  -8   6    8.05    3.28
  -8  -8  -6   10.45    3.43
  -8   8   6    9.20    1.21
  -8  -8  -4    0.40    2.91
   8  -8   4    2.20    2.76
  -8   8   4   -0.24    1.55
   8  -8   2   29.73    1.94
  -8  -8  -2   36.99    4.62
  -8   8   2   37.94    3.29
   8  -8   2   36.12    3.69
   8  -8   2   32.81    2.94
  -8   8   0  111.66    5.59
   8  -8   0  106.91    5.41
  -8  -8   0  101.06    6.52
   8  -8   0   99.36    5.12
  -8   8   0  104.04    5.23
  -8   8  -2   33.50    2.97
  -8  -8   2   32.65    2.10
   8  -8  -2   33.67    4.33
   8   8   2   41.50    3.88
  -8  -8   2   33.06    4.19
  -8   8  -2   37.05    4.06
   8  -8  -2   34.48    3.83
  -8   8  -4    0.41    0.66
  -8  -8   4    3.24    3.03
  -8  -8   4   -0.26    1.02
  -8   8  -4    0.16    1.63
   8   8   4    1.17    2.46
  -8   8  -4   -1.56    2.72
   8  -8  -4   -2.67    2.87
   8  -8  -4    2.96    3.01
  -8  -8   6    9.21    3.40
   8  -8  -6    8.08    3.22
   8  -8  -6    6.69    2.96
  -8   8  -6    8.99    3.26
  -8   8  -6    5.71    1.44
   8   8   6    5.77    3.16
  -8  -8   6    9.29    1.99
   8  -8  -8    4.07    3.18
  -8   8  -8   -0.34    3.16
  -8  -8   8    5.69    3.19
   8  -8  -8    8.67    3.95
   8   8   8    5.50    3.40
   8  -8 -10   18.85    4.46
  -8  -8  10    8.49    3.73
  -8   8 -10   11.61    4.14
  -8   8 -12   45.47    6.22
  -8   8 -12   38.63    5.69
  -8  -8  12   41.35    6.06
   8  -8 -12   34.68    5.24
  -8   8 -14   21.37    5.18
  -8  -8  14    8.92    4.32
  -8   8 -14   14.72    4.79
   8  -8 -14   11.00    4.65
  -8  -8  16    7.04    4.45
  -8   8 -16    0.34    3.40
   8  -8 -16   -1.49    4.09
  -8   8 -16   -1.16    4.19
  -8   8 -18   10.13    4.78
  -8   8 -18    1.64    4.09
   8  -8 -18    6.01    4.71
  -9   0   1  396.87    8.94
   9   0   1  393.96    7.74
  -9   0  -1  388.39    8.18
   0  -9  -1  387.22   10.00
   9   0  -1  340.67    8.41
   9   0  -1  386.63    6.73
   9   0   1  398.58    8.35
   9   0  -1  387.96    9.85
   0  -9   1  385.62    9.67
   0  -9  -1  386.51    7.83
  -9   0  -3   37.34    2.68
   9   0   3   37.56    3.16
  -9   0  -3   37.12    2.97
   9   0  -3   38.78    2.32
   0  -9   3   36.86    3.51
   9   0   3   34.56    2.78
  -9   0   3   41.20    3.78
   0  -9  -3   36.34    3.94
   9   0  -3   39.67    3.16
   0   9  -3   31.95    1.53
   9   0  -3   33.47    3.35
   0  -9  -3   38.22    2.93
   0  -9  -3   25.29    1.27
   9   0  -5   28.06    3.71
  -9   0   5   30.23    3.78
  -9   0  -5   26.94    3.04
   0  -9   5   29.66    3.49
   0  -9  -5   28.30    2.21
  -9   0  -5   32.92    2.61
   9   0   5   29.19    1.93
   0  -9  -5   30.50    3.96
   0   9   5   31.54    2.97
   9   0  -5   34.68    3.71
   0  -9   7   78.81    5.10
  -9   0   7   80.25    5.65
   9   0  -7   85.37    5.79
   0  -9  -7   80.58    4.21
   0   9  -7   80.50    6.07
   0  -9  -7   78.53    5.79
   9   0   7   60.22    2.45
  -9   0  -7   83.34    3.96
   9   0   7   78.81    5.78
  -9   0  -7   74.38    5.08
   9   0   9   16.97    1.66
  -9   0  -9   22.13    3.63
  -9   0  -9   21.87    2.73
   9   0   9   25.70    4.41
   0  -9   9   24.70    3.47
   0  -9  -9   18.03    3.63
   0   9  -9   22.20    4.27
   9   0  -9   26.12    4.50
  -9   0 -11   36.03    4.70
   9   0 -11   41.02    5.60
   9   0 -11   28.22    2.34
   0  -9  11   22.27    3.72
   9   0  11   34.65    5.49
  -9   0 -11   37.56    3.49
   0   9 -11   31.55    4.66
   0  -9 -11   29.29    4.89
   0   9 -11   33.49    5.10
   9   0 -13   35.11    5.20
  -9   0 -13   36.29    5.33
   0  -9  13   34.99    4.54
   0   9 -13   33.64    4.98
   0   9 -13   35.24    5.40
   0  -9 -13   35.53    5.31
   9   0 -15   27.20    5.53
  -9   0 -15   20.63    4.72
   0   9 -15   11.37    3.79
   0   9 -15   31.17    5.29
   0  -9 -15   26.88    4.87
   9   0 -17   -8.59    5.02
  -9   0 -17    5.34    3.88
   0   9 -17   -3.37    3.48
   0   9 -17   -0.21    3.58
   0  -9 -17   -4.04    4.07
   0   9 -17   -1.35    3.55
   9   0  19    5.10    3.69
   9   0 -19   -1.84    4.38
   0   9 -19    1.57    3.68
  -9   0 -19   -3.05    3.97
   0   9 -19    3.91    3.91
   0   9 -19   10.08    4.48
   0  -9 -19    2.51    4.03
   0   9 -21   -1.05    4.21
   0   9 -21    5.71    4.66
   1   9 -20    6.81    4.02
  -9  -1 -20    5.34    4.56
   1   9 -20    3.95    3.84
   1   9 -20    2.00    3.98
  -1  -9 -20    3.52    4.48
   9  -1  18    6.95    3.35
   9   1 -18    4.52    4.08
  -9  -1 -18    9.73    4.41
   1   9 -18   -0.50    3.32
   1   9 -18    5.04    3.81
   1   9 -18    2.79    3.86
  -1  -9 -18    8.29    4.53
   9   1 -16    8.38    4.26
   9   1 -16    6.91    3.21
  -9  -1 -16    4.02    3.85
   1   9 -16    5.30    3.61
  -9   1  16    3.98    3.69
   1   9 -16    4.94    3.61
  -1  -9 -16   -2.21    3.78
   9  -1  16    4.22    2.93
  -9   1  14    9.45    3.56
   9   1 -14   13.40    4.20
  -9  -1 -14   16.38    3.92
   1   9 -14   13.27    3.72
   1   9 -14   15.10    4.43
  -1  -9 -14   20.24    4.22
   9   1 -12   24.38    4.95
  -9  -1 -12   23.82    4.42
   1  -9  12   25.29    3.92
   1   9 -12   26.36    4.39
   9   1 -12   29.51    2.88
  -1  -9 -12   31.20    4.98
   1   9 -12   25.09    4.89
  -9  -1 -10   -1.55    2.16
  -9  -1 -10   -0.43    2.92
   9   1 -10    3.74    3.38
   1  -9  10    2.14    2.46
   9  -1  10   -6.88    3.71
  -1  -9 -10    1.30    3.24
   1   9 -10    2.83    3.44
  -9  -1  -8   92.85    4.79
  -9  -1  -8   96.65    5.86
   1  -9   8   90.42    5.21
   9  -1   8   92.83    6.76
  -1  -9  -8   94.26    5.01
   9   1  -8   86.98    6.43
   1   9  -8  104.70    6.99
  -1  -9  -8   91.33    6.41
  -9  -1  -6   95.53    5.18
   9  -1   6  105.32    6.41
  -1  -9  -6   89.97    4.01
   1  -9   6   94.87    5.09
  -1  -9  -6   89.93    6.02
  -9  -1  -6  100.91    4.62
  -9   1   4   12.10    2.75
  -9  -1  -4    6.26    1.89
   9   1  -4    8.04    1.15
   9   1  -4    5.36    2.21
   9  -1   4    8.49    1.05
  -1  -9  -4    7.68    2.77
   1  -9   4    8.53    2.22
  -9  -1  -4    8.06    2.01
  -1  -9  -4    9.70    1.45
  -9   1   2   67.67    4.02
   9   1  -2   65.98    4.29
   9   1  -2   66.53    2.33
  -1  -9  -2   69.12    3.31
  -9  -1  -2   65.86    3.29
  -9  -1  -2   77.57    4.05
  -1  -9  -2   67.65    4.76
   9  -1   2   72.96    4.06
   9  -1   2   65.45    3.29
   1  -9   2   71.56    4.36
   9  -1   0  313.04    5.78
  -9   1   0  323.05    7.49
   9   1   0  317.33    5.83
  -9  -1   0  313.66    8.05
   1  -9   0  302.15    8.52
   9  -1   0  316.57    8.19
   9  -1   0  305.74    7.04
   9  -1   0  321.30    7.40
   9   1   0  330.88    8.36
  -1  -9   0  319.02    6.41
   9   1   0  308.61    8.41
   9  -1   0  313.48    7.04
  -1  -9   0  322.81    9.29
  -9  -1   2   71.37    4.34
  -9   1  -2   66.66    3.23
   9  -1  -2   66.32    3.36
   9   1   2   66.60    3.97
   1  -9  -2   70.64    3.95
   9  -1  -2   81.64    4.44
   9  -1  -2   70.72    3.72
   1  -9  -2   67.61    4.52
   9  -1  -2   72.62    4.78
   1  -9  -2   64.95    4.91
  -1  -9   2   69.69    4.64
   9  -1  -2   71.75    4.23
   9  -1  -2   72.37    3.49
  -9   1  -4    8.77    1.53
   9  -1  -4   11.27    2.72
  -9   1  -4    7.97    2.17
  -9  -1   4   11.71    2.77
  -1   9  -4    8.39    1.37
   1  -9  -4    9.10    1.43
   1  -9  -4   10.23    2.47
  -1  -9   4    6.74    2.73
   9   1   4    9.14    1.76
   1  -9  -4   10.41    2.85
   9  -1  -4    8.70    2.58
  -9  -1   6   95.18    5.92
   9   1   6   90.39    6.18
  -9   1  -6   92.73    5.37
  -1  -9   6   96.86    5.73
  -1   9  -6   96.07    4.06
   9  -1  -6   90.91    5.84
  -9   1  -6   94.92    3.55
  -1   9  -6  101.57    6.41
   1  -9  -6   89.11    6.01
   9   1   6   90.80    3.55
   1   9   6  104.31    4.96
   9  -1  -6  101.84    5.99
  -9  -1   8   99.96    6.61
  -9   1  -8   96.67    6.09
  -1  -9   8   90.25    5.58
   9   1   8   92.22    6.49
  -1   9  -8   88.71    4.82
  -1   9  -8   86.20    6.37
   1  -9  -8  106.83    6.63
   9   1   8   87.15    3.59
  -9   1  -8   92.74    3.80
   9  -1  -8   98.34    6.46
   9   1  10    2.92    1.87
   9  -1 -10   -0.96    3.20
  -9   1 -10    3.82    3.08
  -1   9 -10   -5.01    3.50
   9   1  10    2.92    3.44
  -1  -9  10    1.37    2.64
  -9   1 -10    0.60    1.66
   9  -1 -10    0.20    0.80
   1  -9 -10    1.26    3.29
  -1   9 -10    2.79    3.53
   9  -1 -12   28.12    5.03
  -9   1 -12   22.60    4.31
  -1   9 -12   27.61    4.67
  -1  -9  12   27.58    4.23
  -1   9 -12   24.67    5.06
   1  -9 -12   27.24    4.94
   9  -1 -14   10.80    4.14
  -9   1 -14   20.06    4.34
  -1   9 -14   10.92    3.87
  -1   9 -14   11.75    4.30
  -1  -9  14   23.20    4.20
   1  -9 -14   13.98    4.22
   9  -1 -16   -1.10    4.00
  -1   9 -16   -6.96    4.05
  -9   1 -16    3.29    3.56
  -1   9 -16    3.63    3.61
   1  -9 -16    1.78    4.11
  -9   1 -18    5.73    3.99
  -1   9 -18   -4.64    4.08
  -1   9 -18    3.81    3.24
   9  -1 -18    9.97    5.17
  -1   9 -18    1.71    3.80
   1  -9 -18   -0.47    4.09
  -9   1 -20   13.90    5.15
  -1   9 -20    3.18    3.80
  -1   9 -20   21.89    6.19
   1  -9 -20    1.09    4.12
   2   9 -21    0.92    4.37
   2   9 -21    3.14    4.51
   2   9 -21   -5.09    4.38
  -2  -9 -21    3.47    4.98
  -9   2  19    4.79    4.09
   9   2 -19    9.40    5.44
  -9  -2 -19    3.99    4.57
   2   9 -19    7.30    4.14
   2   9 -19    1.15    3.55
   2   9 -19    0.56    4.05
  -2  -9 -19    1.38    3.95
   9  -2  17   -3.33    2.74
   9   2 -17    3.02    3.96
   2   9 -17   -0.38    3.41
  -9  -2 -17    1.49    3.76
  -9   2  17   -1.56    3.66
   2   9 -17    3.18    3.71
  -2  -9 -17   -1.63    3.94
   9  -2  15    9.43    3.04
  -9   2  15    7.91    3.52
   9   2 -15   15.74    3.44
   9   2 -15    9.98    4.47
  -9  -2 -15    7.98    3.79
   2   9 -15   14.44    3.94
  -2  -9 -15   14.35    4.23
   2   9 -15   13.38    4.18
   9  -2  13   22.12    3.37
  -9   2  13   30.55    4.74
  -9  -2 -13   28.15    4.88
   9   2 -13   33.28    5.15
   2   9 -13   19.86    4.04
  -9  -2 -13   23.88    2.95
  -2  -9 -13   33.08    5.05
   9   2 -13   29.74    3.34
   2   9 -13   28.45    4.97
   9   2 -13   23.19    3.46
   9   2 -11   17.93    2.89
  -9  -2 -11   21.10    4.35
  -9  -2 -11   17.81    3.24
   9   2 -11   22.09    4.63
   2   9 -11   15.89    3.67
   9   2 -11   20.75    2.89
   2  -9  11   23.96    3.41
   9  -2  11   35.81    5.72
  -2  -9 -11   25.61    4.47
  -9   2  11   24.96    4.14
   2   9 -11   17.46    4.15
  -9   2   9   23.76    3.70
  -9  -2  -9   18.51    3.70
   9   2  -9   20.39    3.97
   9  -2   9   33.06    5.05
   2  -9   9   22.43    3.18
  -9  -2  -9   23.73    3.24
  -2  -9  -9   20.18    3.96
   2   9  -9   28.90    4.70
  -9  -2  -7   76.73    4.95
  -2  -9  -7   72.20    4.21
   9  -2   7   71.68    5.71
  -2  -9  -7   76.27    5.68
  -9  -2  -7   75.36    4.53
   2  -9   7   76.68    4.43
  -9  -2  -5   33.57    3.16
  -9  -2  -5   32.89    3.28
  -2  -9  -5   30.84    2.47
   2  -9   5   32.99    3.13
   9  -2   5   30.52    3.99
  -2  -9  -5   36.30    4.22
   9  -2   3    6.26    1.05
   9  -2   3    7.83    1.46
  -2  -9  -3    9.49    2.91
   9  -2   3   10.92    2.77
   9   2  -3    7.81    2.15
  -9  -2  -3    9.51    2.39
  -9  -2  -3    8.34    1.88
   2  -9   3    9.36    2.24
   2  -9   1  194.89    6.57
   9   2  -1  181.80    6.25
  -2  -9  -1  196.58    7.75
   9  -2   1  191.22    6.29
  -9  -2  -1  193.64    4.40
  -9  -2  -1  203.67    6.70
   9  -2   1  201.05    6.80
   9  -2   1  194.01    5.11
   2   9  -1  164.82    3.30
   9  -2   1  197.43    5.03
  -2  -9  -1  200.37    4.44
  -9   2   1  197.49    6.04
  -9   2  -1  192.72    5.22
  -9  -2   1  195.96    7.00
   9  -2  -1  192.77    6.06
   9  -2  -1  195.73    5.92
   9  -2  -1  192.41    6.03
   2  -9  -1  187.42    7.24
   2  -9  -1  193.54    6.95
  -2  -9   1  197.78    7.57
   9  -2  -1  189.60    5.89
   9  -2  -1  199.41    7.71
   2  -9  -1  191.49    6.62
   9  -2  -3    6.04    2.25
   9  -2  -3    7.77    2.33
   9   2   3    9.11    2.27
   2  -9  -3    9.95    2.50
  -9   2  -3    7.54    1.40
   9  -2  -3    6.42    1.62
   9  -2  -3    8.21    2.57
  -9  -2   3    9.08    2.48
   2  -9  -3   11.11    2.80
  -2  -9   3    8.16    2.60
   9  -2  -5   31.73    3.67
  -9   2  -5   31.83    1.77
   9  -2  -5   34.61    3.97
   9  -2  -5   34.77    2.05
  -9   2  -5   35.30    3.59
  -2  -9   5   32.41    3.69
  -2   9  -5   35.13    2.50
   9   2   5   28.85    3.89
  -2   9  -5   32.22    3.91
  -9  -2   5   33.56    3.90
   2  -9  -5   32.37    3.57
   9   2   5   34.55    2.81
   2  -9  -5   29.75    4.01
  -2   9  -5   30.42    2.99
   2   9   5   35.38    2.81
  -9  -2   7   83.25    5.76
  -2   9  -7   75.17    4.34
  -9   2  -7   79.17    5.35
  -2  -9   7   74.74    5.41
   9   2   7   81.61    6.00
  -2   9  -7   75.81    4.13
  -9   2  -7   59.78    2.45
   2   9   7   80.93    4.55
  -2   9  -7   82.50    6.10
   2  -9  -7   72.12    5.84
   9   2   7   71.13    3.85
   9  -2  -7   81.78    5.62
   9  -2  -7   81.55    5.96
  -9  -2   9   19.13    3.95
   9   2   9   18.64    3.99
  -9   2  -9   20.36    1.97
  -9   2  -9   26.20    4.06
  -2  -9   9   19.88    3.56
   2  -9  -9   23.32    4.41
  -2   9  -9   24.84    4.46
   9  -2  -9   21.47    4.05
   9   2   9   22.17    2.69
   9  -2 -11   14.52    4.37
  -9   2 -11   18.88    2.26
  -9   2 -11   21.63    4.48
  -2   9 -11   28.84    4.85
  -2  -9  11   17.19    3.69
   9   2  11   26.76    5.23
  -2   9 -11   19.12    4.67
   2  -9 -11   19.11    4.20
  -9   2 -13   16.23    4.39
  -2   9 -13   21.89    4.71
  -2  -9  13   36.47    4.93
   9  -2 -13   31.08    5.32
  -2   9 -13   23.18    4.74
   2  -9 -13   25.43    4.94
   9  -2 -15   16.03    4.89
  -2  -9  15   11.97    3.83
  -9   2 -15   19.34    4.61
  -2   9 -15    1.10    3.25
  -2   9 -15   12.12    4.41
   2  -9 -15   14.66    4.64
   9  -2 -17    3.63    4.60
  -2   9 -17   -1.18    2.95
  -2   9 -17   -4.88    3.88
  -2   9 -17   -3.30    4.09
  -9   2 -17    3.75    4.08
   2  -9 -17    1.96    4.11
   9  -2 -19    7.87    4.96
  -9   2 -19    5.39    4.16
  -2   9 -19    5.46    4.55
  -2   9 -19    6.23    4.51
   2  -9 -19    9.06    4.59
   3   9 -22    0.62    4.35
  -9   3  20    2.27    4.45
  -9  -3 -20    2.80    4.91
   3   9 -20    7.27    4.20
   3   9 -20    9.51    4.67
   3   9 -20    9.01    4.75
  -3  -9 -20    9.20    4.47
   9   3 -18   -2.30    4.06
  -9  -3 -18    8.04    4.21
   3   9 -18    1.87    3.69
   3   9 -18    1.39    3.51
  -9   3  18   -5.47    4.08
   3   9 -18    3.06    3.96
  -3  -9 -18    4.43    4.30
   9  -3  16    1.79    2.56
  -9  -3 -16    9.91    3.95
   3   9 -16   -5.24    3.36
  -9   3  16    4.28    3.78
   9   3 -16    0.84    3.79
  -3  -9 -16    3.24    3.57
   3   9 -16   -2.53    3.34
   9  -3  14   16.64    3.25
  -9  -3 -14   16.95    4.29
   9   3 -14   15.67    3.21
   9   3 -14   11.34    4.51
   3   9 -14   21.95    4.25
  -9   3  14   20.46    4.35
  -9  -3 -14   15.41    2.96
  -3  -9 -14   21.15    4.74
   9   3 -14   16.48    3.04
   3   9 -14   19.01    4.47
   9  -3  12   32.94    3.55
  -9   3  12   31.25    4.46
  -9  -3 -12   28.02    4.52
   9   3 -12   31.84    3.38
   9   3 -12   35.06    5.46
   3   9 -12   39.04    4.70
   9   3 -12   36.19    3.63
  -9  -3 -12   41.24    4.56
  -3  -9 -12   38.78    5.22
   3   9 -12   35.31    4.96
  -9   3  10    4.76    3.07
  -9  -3 -10    3.94    2.96
   9   3 -10   -0.31    1.77
   3  -9  10    0.73    2.36
  -9  -3 -10   -1.55    2.66
   9  -3  10    3.93    1.96
   9  -3  10   -1.06    3.62
  -3  -9 -10   -0.93    3.12
   3   9 -10   -2.17    3.25
   9  -3   8   53.72    2.85
  -9   3   8   59.05    4.72
   3  -9   8   58.11    3.86
  -9  -3  -8   61.62    4.84
   9   3  -8   59.07    2.69
  -9  -3  -8   68.46    4.75
   9  -3   8   55.26    5.38
  -3  -9  -8   62.71    5.46
  -9   3   6   91.67    4.89
   3  -9   6   80.88    4.20
  -9  -3  -6   90.48    5.12
  -3  -9  -6   86.54    4.31
   9  -3   6   82.05    5.88
  -9  -3  -6   89.65    4.94
  -3  -9  -6   89.72    6.00
  -9  -3  -4   28.96    3.22
  -9  -3  -4   21.79    2.51
  -3  -9  -4   19.59    3.56
   9  -3   4   25.35    3.68
   3  -9   4   23.35    2.73
  -9  -3  -2   21.24    1.91
   9  -3   2   18.48    1.62
   9  -3   2   25.05    3.49
  -3  -9  -2   24.53    3.60
   3  -9   2   19.06    2.57
  -9  -3  -2   20.54    2.90
   9  -3   2   18.58    1.69
   9   3  -2   23.15    2.74
   9  -3   0  163.90    6.18
   9  -3   0  167.62    4.96
   9  -3   0  167.48    5.85
   3   9   0  162.97    4.02
   3  -9   0  165.68    6.11
   3  -9   0  163.05    6.57
  -9  -3   0  162.14    6.56
   9  -3   0  154.97    4.96
  -3  -9   0  154.42    7.14
   9   3   0  164.09    5.65
   9  -3  -2   19.88    2.63
   9   3   2   18.85    3.43
   3  -9  -2   21.35    3.08
   3   9   2   23.22    2.06
   9  -3  -2   20.55    2.34
   9  -3  -2   20.22    3.29
   3  -9  -2   19.86    3.28
   9  -3  -2   18.32    2.36
  -9  -3   2   20.72    3.32
  -3   9  -2   25.91    3.48
  -3  -9   2   22.45    3.54
   9  -3  -4   25.64    3.07
   9   3   4   21.55    3.58
  -3  -9   4   21.51    3.21
   9   3   4   23.20    2.74
   9  -3  -4   23.65    1.82
  -9  -3   4   19.98    3.27
  -3   9  -4   21.94    3.42
   3  -9  -4   20.75    3.32
   3  -9  -4   18.89    2.88
   9  -3  -4   17.35    3.23
  -9  -3   6   88.19    5.81
  -9   3  -6   95.85    5.70
  -3  -9   6   84.95    5.70
  -9   3  -6   93.18    5.89
   3  -9  -6   94.61    5.68
  -3   9  -6   91.77    4.28
   9   3   6   84.34    6.01
   3   9   6   92.51    4.16
   9  -3  -6   81.33    5.75
  -3   9  -6   81.34    5.89
  -3   9  -6   83.83    4.27
   9   3   6   85.52    4.30
   3  -9  -6   80.23    5.69
   9  -3  -6   86.39    5.67
  -9  -3   8   67.23    5.63
  -3   9  -8   61.54    3.93
  -9   3  -8   61.14    5.36
  -3  -9   8   56.02    5.05
  -9   3  -8   58.92    5.50
  -3   9  -8   64.56    5.78
   9   3   8   59.08    5.83
   3  -9  -8   59.24    5.48
   9   3   8   51.12    3.80
   9  -3  -8   69.19    5.75
   3   9   8   55.61    4.13
   9  -3 -10    4.31    3.78
  -9   3 -10   -0.37    0.94
  -9   3 -10    0.13    3.16
  -9  -3  10    1.55    3.11
  -9   3 -10    0.31    3.16
   9   3  10   -1.41    3.50
  -3  -9  10    2.53    2.98
  -3   9 -10   -2.10    3.56
  -9   3 -10    0.25    0.96
   3  -9 -10   -0.66    3.36
   9  -3 -12   33.59    5.21
  -9   3 -12   32.19    4.87
  -9   3 -12   27.64    4.79
  -3   9 -12   29.35    4.71
  -3  -9  12   34.90    4.94
  -3   9 -12   33.59    5.34
   3  -9 -12   34.19    5.14
  -9  -3  12   35.44    5.33
  -9   3 -14   15.40    4.59
  -3  -9  14   19.50    4.25
  -3   9 -14   14.94    4.42
   9  -3 -14   21.67    4.82
  -3   9 -14   13.67    4.34
   3  -9 -14   17.31    4.74
   9  -3 -16   -1.37    4.10
  -3   9 -16    0.34    2.72
  -9   3 -16   -2.61    3.83
  -3   9 -16   -1.27    3.84
  -3  -9  16    4.69    3.38
  -3   9 -16   -1.11    3.68
   3  -9 -16   -1.83    4.01
  -9   3 -18    1.34    3.75
  -3   9 -18    3.42    3.82
  -3   9 -18    9.91    5.18
   9  -3 -18    6.08    4.60
   3  -9 -18   -0.30    4.13
  -3   9 -20    6.23    4.92
  -3   9 -20    6.64    5.11
   4   9 -21    1.41    4.61
   4   9 -21    6.37    5.12
  -4  -9 -21    1.93    4.46
  -9   4  19    3.11    3.89
   9   4 -19    7.14    4.84
  -9  -4 -19    3.16    4.63
   4   9 -19    7.94    4.62
   4   9 -19   13.55    4.92
   4   9 -19    2.59    3.94
  -4  -9 -19    5.99    4.44
  -9   4  17    3.11    3.42
   9   4 -17   -4.26    4.43
  -4  -9 -17    1.85    3.69
   4   9 -17    6.21    3.70
   4   9 -17   -0.71    3.32
  -9  -4 -17   -3.18    3.78
  -9   4  15    1.83    3.30
   9  -4  15    6.77    3.10
  -9  -4 -15    3.56    3.63
   4   9 -15    1.61    3.15
   9   4 -15    3.71    4.03
  -9  -4 -15    3.83    2.72
  -4  -9 -15   -0.67    3.42
   4   9 -15    8.38    3.78
  -9   4  13   22.71    4.56
   9  -4  13   16.32    3.00
  -9  -4 -13   22.29    4.44
   9   4 -13   23.26    3.51
   9   4 -13   10.95    4.02
   4   9 -13   12.55    3.56
  -4  -9 -13   13.22    3.95
   9   4 -13   18.52    2.79
   4   9 -13   19.68    4.08
  -9   4  11   10.07    3.25
   9  -4  11   10.85    2.38
  -9  -4 -11   13.29    3.68
   4   9 -11    9.22    4.01
   9   4 -11    7.44    2.24
  -4  -9 -11    2.01    3.33
  -9  -4 -11   10.74    3.40
  -9   4   9   29.31    3.72
   9   4  -9   31.02    2.29
  -9  -4  -9   24.06    3.82
   4  -9   9   29.33    3.02
   9  -4   9   25.08    4.46
  -9  -4  -9   26.59    3.72
  -4  -9  -9   25.66    4.18
  -9   4   7  104.09    5.42
  -9  -4  -7   94.63    5.40
   4  -9   7   99.58    4.33
   9  -4   7  108.02    6.64
  -4  -9  -7  108.60    6.70
  -4  -9  -7  102.47    6.82
  -9  -4  -7  109.79    6.12
  -9   4   5   74.77    4.09
  -9  -4  -5   75.33    4.26
   4  -9   5   72.09    3.79
   9  -4   5   70.44    5.41
  -4  -9  -5   64.49    5.40
  -9  -4  -5   84.85    5.21
   4  -9   3    4.07    1.91
  -9  -4  -3    1.80    1.62
  -4  -9  -3    8.06    2.78
   9  -4   3    4.31    2.78
   9  -4   3    0.77    0.66
  -9  -4  -3    3.26    2.26
  -9  -4  -1   62.64    2.35
   4  -9   1   65.52    3.87
   9  -4   1   63.96    2.77
   9  -4   1   69.50    4.25
   4  -9   1   63.21    2.69
  -9  -4  -1   69.26    4.77
  -4  -9  -1   67.90    5.06
   9  -4   1   64.30    3.06
   9   4  -1   66.18    3.58
   9  -4  -1   66.21    3.45
  -9  -4   1   66.63    4.84
   4  -9  -1   63.11    2.58
   4   9   1   59.18    3.12
  -4   9  -1   66.94    4.60
   4  -9  -1   68.31    4.53
   9  -4  -1   65.12    3.63
  -4  -9   1   61.60    4.89
   9  -4  -1   61.77    3.68
   9   4   1   69.02    3.67
   9  -4  -1   63.45    4.97
   4  -9  -1   66.02    4.70
   9  -4  -3    5.36    2.13
  -4   9  -3    2.64    2.40
  -4  -9   3    5.24    2.19
  -9   4  -3   -1.63    2.26
   9   4   3    0.53    2.51
   4   9   3    1.64    1.78
   9  -4  -3    4.15    1.87
  -4  -9   3    7.33    3.07
   4  -9  -3    0.58    2.15
   4  -9  -3   -1.07    2.46
   9  -4  -3    4.37    1.47
  -9  -4   3    2.63    2.59
   9  -4  -3    1.45    2.23
  -9  -4   5   74.78    5.54
  -9   4  -5   70.23    5.26
  -4  -9   5   73.46    5.51
   4  -9  -5   66.48    5.04
   9   4   5   69.60    5.40
  -4   9  -5   80.76    5.71
  -4   9  -5   68.49    4.28
   4  -9  -5   72.37    5.31
   9  -4  -5   67.64    4.83
   4   9   5   72.35    3.10
   9  -4  -5   68.64    5.41
  -9   4  -7  100.60    6.26
  -4  -9   7   91.89    6.30
  -4   9  -7  104.25    5.06
  -4   9  -7   98.76    6.74
   9   4   7   97.80    6.54
  -9  -4   7   98.65    6.46
  -4   9  -7  101.42    4.35
  -4   9  -7  100.22    4.97
   4  -9  -7   96.65    6.67
  -9   4  -7  106.64    6.74
   9  -4  -7  109.69    6.43
   4   9   7   92.75    4.37
   9  -4  -7   94.34    6.43
   4  -9  -7  110.94    6.77
   9  -4  -9   28.02    4.33
  -9   4  -9   35.37    4.82
  -9  -4   9   32.31    4.45
  -9   4  -9   30.64    4.66
   9   4   9   28.21    4.60
  -4  -9   9   36.85    4.54
  -4   9  -9   34.11    4.71
   4  -9  -9   32.12    4.63
  -4   9  -9   28.64    2.88
   9  -4 -11   10.15    3.89
  -9   4 -11    3.28    3.22
  -9  -4  11   10.43    3.47
  -4   9 -11   11.74    4.16
  -9   4 -11   16.49    4.13
  -4  -9  11   13.64    3.70
   9   4  11   10.96    4.51
  -4   9 -11   10.89    3.99
   4  -9 -11   16.14    4.42
   9  -4 -13   23.18    4.68
  -9   4 -13   13.07    4.17
  -4  -9  13   24.96    4.72
  -9   4 -13   18.80    4.39
  -4   9 -13   19.47    4.53
  -4   9 -13   16.89    4.63
   4  -9 -13   15.41    4.52
  -9  -4  13   21.75    4.47
   9  -4 -15    9.23    4.66
  -4  -9  15    5.64    3.66
  -9   4 -15    8.66    3.85
  -9   4 -15    1.54    3.72
  -4   9 -15    6.24    4.01
   4  -9 -15    8.45    4.13
  -4   9 -15    3.57    3.63
   9  -4 -17    6.66    4.37
  -9   4 -17    3.85    4.25
  -9   4 -17    0.62    3.85
  -4   9 -17    1.23    4.13
  -4   9 -17   -7.64    4.42
   4  -9 -17    7.86    4.12
  -9   4 -19    5.87    4.27
  -4   9 -19    2.03    4.47
  -4   9 -19    7.08    4.36
   4  -9 -19    6.83    5.20
   9  -4 -19    1.15    4.47
  -9   5  20    1.54    4.37
   5   9 -20    0.76    4.60
   5   9 -20   17.46    5.12
  -5  -9 -20   13.46    5.20
  -9   5  18    4.64    4.16
  -9  -5 -18    1.01    3.84
   5   9 -18    3.61    3.39
   9   5 -18   -0.60    4.12
  -5  -9 -18   -0.46    3.75
   5   9 -18    0.96    3.65
  -9   5  16    6.57    3.90
  -9  -5 -16   -0.10    3.75
   9   5 -16   -5.38    4.20
   5   9 -16   -2.57    3.24
  -5  -9 -16    3.72    3.48
   5   9 -16    1.31    3.72
  -9   5  14    9.10    3.59
   9   5 -14   13.59    4.52
   5   9 -14    4.39    2.90
   5   9 -14    7.05    3.66
  -9  -5 -14    7.14    4.00
  -9  -5 -14    9.61    3.23
  -5  -9 -14    3.29    3.40
   9   5 -14    7.44    3.05
  -9  -5 -12   13.32    3.87
  -9  -5 -12   10.62    3.34
  -5  -9 -12   10.25    3.73
   5   9 -12    3.23    3.29
  -9   5  12    9.56    3.50
  -9  -5 -10   11.60    3.20
  -9   5  10    3.09    3.02
  -9  -5 -10    4.46    2.94
   9   5 -10    5.40    1.60
   9  -5  10   11.95    4.32
  -5  -9 -10    3.11    3.01
  -9   5   8  109.16    6.06
   5  -9   8  105.47    4.23
  -9  -5  -8  104.65    6.08
   9  -5   8  105.00    7.14
  -9  -5  -8  116.58    6.68
  -5  -9  -8  118.31    7.07
  -5  -9  -8  105.51    7.24
  -9   5   6  125.88    5.63
   5  -9   6  121.04    4.17
   9  -5   6  122.74    7.02
  -5  -9  -6  127.99    7.35
  -9  -5  -6  126.00    5.76
  -9  -5  -6  128.07    6.71
  -9   5   4   27.09    2.55
  -9  -5  -4   29.51    2.81
  -9  -5  -4   31.72    3.83
  -5  -9  -4   24.70    3.90
   9  -5   4   34.09    4.22
   5  -9   4   25.68    2.42
  -9  -5  -2   20.93    2.12
   9  -5   2   22.58    3.44
   9  -5   2   14.23    1.15
   5  -9   2   21.08    2.38
  -5  -9  -2   17.75    3.44
   5  -9   2   16.71    2.17
   9  -5   2   20.73    1.94
  -9  -5  -2   23.32    3.47
  -5   9   2   20.14    2.92
   9  -5   0  150.83    4.54
  -9   5   0  142.98    5.62
   5   9   0  135.33    4.94
   5  -9   0  147.91    4.55
  -9  -5   0  152.84    7.04
   9  -5   0  142.95    5.69
  -5   9   0  143.54    6.34
   9   5   0  146.32    4.66
   5  -9   0  141.29    6.13
   9  -5   0  140.74    5.02
  -5  -9   0  145.48    7.36
  -9  -5   2   23.16    3.63
   9   5   2   19.02    3.45
  -9   5  -2   18.17    2.93
   5   9   2   21.69    2.59
   9  -5  -2   19.08    2.32
   9  -5  -2   21.99    2.87
   5  -9  -2   21.64    3.47
   5  -9  -2   15.35    3.09
  -5  -9   2   15.50    3.39
  -5   9  -2   17.45    3.12
   9  -5  -2   18.31    3.14
   9  -5  -2   16.87    2.24
   9  -5  -4   27.17    3.26
  -5  -9   4   27.91    2.93
  -5  -9   4   28.98    4.09
   9   5   4   28.60    4.18
  -9   5  -4   27.40    3.77
   5   9   4   24.42    3.15
   5  -9  -4   26.58    3.86
  -5   9  -4   27.91    3.08
  -5   9  -4   31.56    4.01
   5  -9  -4   25.36    3.74
  -9  -5   4   21.82    3.67
   9  -5  -4   27.16    3.87
  -9  -5   6  122.03    7.07
  -5  -9   6  121.34    5.37
  -5  -9   6  128.66    7.31
  -9   5  -6  126.27    7.08
  -5   9  -6  118.46    5.30
  -5   9  -6  135.25    7.45
   9   5   6  126.62    7.30
  -5   9  -6  124.86    5.34
   5  -9  -6  119.04    6.88
   9  -5  -6  127.28    6.88
   5   9   6  120.29    4.15
   9  -5  -6  126.98    7.34
   5  -9  -6  126.50    7.00
  -9  -5   8  116.32    7.50
  -9   5  -8  110.52    7.07
  -5  -9   8  109.63    7.01
  -9   5  -8  106.85    7.11
  -5   9  -8  116.61    7.54
   9   5   8  108.24    7.23
  -5   9  -8   99.01    4.79
   5  -9  -8  109.64    7.19
   9  -5  -8  114.95    7.12
   5   9   8  104.34    5.10
   9  -5  -8  105.82    7.23
   9  -5 -10   19.86    4.32
  -9  -5  10   11.43    3.64
  -9   5 -10    6.56    3.65
  -9   5 -10    7.65    3.83
   9   5  10   12.23    4.56
  -5  -9  10    4.40    3.22
  -5   9 -10    6.64    3.87
   5  -9 -10    7.51    3.64
   9  -5 -12   16.44    4.18
  -5   9 -12   10.23    3.94
  -9  -5  12    3.15    3.29
  -9   5 -12    8.56    3.58
  -9   5 -12    8.15    3.30
  -5  -9  12    5.02    3.16
  -5   9 -12    6.93    3.86
   5  -9 -12    6.86    3.81
  -9  -5  14    4.12    3.46
  -9   5 -14   12.08    4.46
  -5   9 -14    8.74    3.64
  -5  -9  14    3.36    3.76
  -9   5 -14   -0.56    3.82
   5  -9 -14    9.52    4.41
  -5   9 -14   -1.43    3.67
   9  -5 -14    6.29    3.96
  -5  -9  16   -2.15    3.82
  -9   5 -16   -2.52    4.06
  -5   9 -16    1.08    3.45
  -9   5 -16    1.92    3.72
  -5   9 -16    1.72    4.38
   5  -9 -16   -3.56    4.24
   9  -5 -16    5.68    4.21
  -9   5 -18    1.46    3.58
  -5   9 -18    5.95    4.20
  -9   5 -18    5.72    4.48
   5  -9 -18   -0.43    4.22
   9  -5 -18    5.48    4.31
  -5   9 -18    0.63    4.07
  -6  -9 -21    1.98    4.61
  -9   6  19    3.73    4.26
  -9  -6 -19    3.03    4.77
   6   9 -19   -0.06    4.15
  -6  -9 -19    6.87    4.27
   6   9 -19    2.00    4.17
  -9   6  17    1.06    3.51
  -9  -6 -17    0.54    3.77
   9   6 -17    1.43    4.18
  -6  -9 -17    0.16    3.69
   6   9 -17    2.41    3.83
  -9   6  15   -0.12    3.07
  -9  -6 -15    3.07    3.82
   6   9 -15    7.04    3.03
  -9  -6 -15   -0.39    3.07
  -6  -9 -15   -0.78    3.49
   9   6 -15    1.66    3.10
   6   9 -15   -1.53    3.71
  -9   6  13   15.87    3.89
  -9  -6 -13   20.78    4.30
  -6  -9 -13   11.72    4.03
   9   6 -13   23.20    4.06
  -9  -6 -13   20.41    4.11
   6   9 -13   18.56    4.37
  -9   6  11    7.82    3.16
  -9  -6 -11    8.36    3.36
  -6  -9 -11   10.28    3.63
  -9   6   9   22.71    3.84
  -9  -6  -9   21.61    3.95
   9  -6   9   17.45    4.10
  -6  -9  -9   17.08    3.99
  -6  -9  -9   17.99    4.32
  -9   6   7   91.11    5.37
  -9  -6  -7   91.53    6.08
   9  -6   7   84.55    6.30
  -6  -9  -7   86.27    6.60
  -6   9   7   86.21    3.69
   6  -9   7   66.62    2.79
  -9   6   5   62.32    3.95
   6  -9   5   50.06    2.54
   9  -6   5   53.90    4.92
   6  -9   5   59.79    4.43
  -6  -9  -5   58.24    5.33
  -6   9   5   56.34    3.48
  -9  -6  -5   71.83    5.52
  -9   6   3    0.59    1.45
   6  -9   3    1.69    1.60
  -9  -6  -3    1.20    2.88
   9  -6   3    1.18    2.59
   6  -9   3   -0.63    2.05
   9  -6   3    2.67    1.25
  -6  -9  -3    0.99    2.93
  -6   9   3    3.02    1.99
  -9   6   1   48.32    2.00
   9  -6   1   56.05    2.58
  -9   6   1   61.94    3.80
   9  -6   1   59.16    4.67
  -9  -6  -1   59.22    5.06
   6  -9   1   60.36    3.60
  -6   9   1   60.55    4.20
   6  -9   1   64.49    3.61
   6  -9   1   61.50    4.30
   9  -6   1   57.36    3.41
  -6  -9  -1   63.83    5.47
  -9   6   1   62.39    3.95
   9  -6  -1   64.31    3.47
   9   6   1   59.86    2.80
   9  -6  -1   56.84    5.11
  -9   6  -1   66.71    4.45
  -9  -6   1   58.10    4.97
   9   6   1   61.62    4.82
   6   9   1   59.18    3.85
  -6   9  -1   60.13    4.55
   9  -6  -1   62.79    3.88
  -6  -9   1   54.07    5.10
   6  -9  -1   56.42    4.55
   9  -6  -1   56.95    3.83
  -9   6  -1   60.26    3.33
   6  -9  -1   64.65    5.18
  -9  -6   3   -1.33    3.01
   9  -6  -3    4.20    2.66
   9  -6  -3   -0.55    1.96
   9   6   3    2.98    2.67
   6   9   3    4.64    2.19
  -9   6  -3    0.69    2.60
  -6  -9   3    2.47    1.84
  -6  -9   3    1.48    2.67
  -6   9  -3    0.41    1.99
   9  -6  -3    1.08    2.34
  -6   9  -3   -0.61    2.50
   6  -9  -3   -1.96    2.76
   6  -9  -3    3.03    2.83
  -6  -9   5   58.15    3.65
  -9  -6   5   58.89    5.44
  -9   6  -5   55.53    5.13
  -6  -9   5   57.38    5.40
  -6   9  -5   65.43    5.44
   9   6   5   61.12    5.34
   6   9   5   52.26    4.15
   6  -9  -5   63.07    5.44
   6  -9  -5   56.83    5.17
  -6   9  -5   52.95    3.63
   9  -6  -5   65.06    4.96
   6   9   5   39.53    1.97
  -9  -6   5   52.52    3.59
   9  -6  -5   47.17    4.98
  -6   9  -7   74.13    4.22
  -9  -6   7   88.10    6.40
  -6  -9   7   89.39    4.68
  -6  -9   7   87.40    6.53
  -9   6  -7   86.79    6.49
  -6   9  -7   90.17    6.66
   9   6   7   85.12    6.44
  -6   9  -7   84.98    4.26
   6  -9  -7   93.65    6.53
   9  -6  -7   82.30    5.85
   9  -6  -7   90.43    6.72
   6  -9  -7   93.34    6.71
  -9   6  -9   17.34    4.03
  -9  -6   9   12.68    4.14
   9   6   9   12.57    4.07
  -6   9  -9   19.96    4.34
  -6  -9   9   17.82    4.16
  -9   6  -9   17.71    4.07
   6  -9  -9   16.34    3.98
   9  -6  -9   17.67    4.08
   9  -6 -11    8.26    3.41
  -9   6 -11    7.85    3.88
  -6  -9  11   14.25    3.69
   9   6  11   19.41    5.05
  -9  -6  11   -0.13    3.33
  -6   9 -11   11.10    3.90
   6  -9 -11    7.67    3.57
  -9   6 -11    7.96    4.00
  -9  -6  13   22.92    4.87
  -9   6 -13   13.72    4.49
  -6   9 -13   10.25    3.99
   6  -9 -13   22.09    4.89
  -6  -9  13   27.16    5.09
   9  -6 -13   17.62    4.65
  -9   6 -13   20.67    4.64
  -6   9 -13   18.02    5.08
  -9  -6  15    0.24    3.61
   9  -6 -15    5.48    3.68
  -6  -9  15   -3.16    3.74
  -9   6 -15   15.82    4.39
  -6   9 -15   11.40    4.30
  -9   6 -15    7.31    4.09
   6  -9 -15    5.99    4.29
  -6   9 -15   12.26    4.36
  -9   6 -17   -0.09    3.99
  -6   9 -17   -6.78    4.24
  -9   6 -17    1.48    3.91
  -6   9 -17    0.64    3.82
   9  -6 -17   -0.28    4.32
   6  -9 -17   -4.80    4.63
  -6  -9  17    0.79    4.46
  -7  -9 -20    1.20    4.16
  -9   7  18    3.72    3.85
  -9  -7 -18    3.14    4.58
   9   7 -18    4.03    4.55
  -7  -9 -18    4.58    4.46
   7   9 -18    3.24    4.09
  -9   7  16    1.82    3.61
  -9  -7 -16   -1.55    3.52
  -9  -7 -16    0.92    3.26
  -7  -9 -16    7.64    4.04
   9   7 -16    4.95    3.57
   7   9 -16   -4.58    3.89
  -9   7  14   17.44    3.87
   9   7 -14   12.03    3.79
  -9  -7 -14   14.13    4.13
   7   9 -14   12.99    4.15
  -7  -9 -14   19.54    4.67
  -9   7  12   43.85    5.43
  -9  -7 -12   45.19    5.41
  -7  -9 -12   50.82    5.73
  -7  -9 -12   61.74    6.54
  -7  -9 -10   34.05    4.99
  -9  -7 -10   26.44    4.58
  -9  -7  -8    3.92    3.52
  -7  -9  -8    1.14    3.39
   9  -7   8    3.42    3.26
  -7   9   8    2.22    1.03
  -7  -9  -6   11.08    3.68
   9  -7   6   14.77    3.78
   7  -9   6   19.28    3.75
  -9  -7  -6    9.63    3.50
  -7   9   6    6.81    1.74
  -9   7   4    8.38    1.56
   7  -9   4    3.45    1.09
  -9  -7  -4    0.05    2.79
   9  -7   4    3.88    3.00
   7  -9   4    8.25    2.64
  -7  -9  -4    8.56    3.50
  -7   9   4    2.95    1.79
  -7  -9  -2    3.88    3.09
   9  -7   2    7.08    2.81
  -9   7   2   10.73    2.14
   7  -9   2    6.21    2.37
   9  -7   2    4.40    0.85
   9  -7   2    7.41    1.86
  -7   9   2    8.56    2.52
   9  -7   2    2.99    0.81
   7  -9   2    7.08    1.74
  -9  -7  -2    6.23    2.92
   9  -7   0   38.23    2.68
   7   9   0   41.31    3.61
   7  -9   0   47.05    3.54
  -7  -9   0   39.44    4.73
  -9   7   0   38.38    3.57
   9  -7   0   43.41    3.52
  -9  -7   0   45.95    4.92
   7  -9   0   40.68    3.78
  -7   9   0   40.19    3.82
  -9   7   0   38.51    3.30
   9  -7  -2    8.16    1.98
  -9   7  -2    6.42    1.86
  -7  -9   2    5.03    1.76
  -7   9  -2    5.16    2.22
   9   7   2   11.32    2.84
   7   9   2    9.08    2.43
  -9   7  -2    3.99    2.36
  -7  -9   2    5.13    3.08
   9   7   2    5.60    1.09
  -9  -7   2   10.20    3.49
  -7   9  -2    6.75    2.82
   7  -9  -2    9.02    3.00
   9  -7  -2    4.74    2.41
   9  -7  -2    7.75    3.07
   7  -9  -2   10.65    3.39
  -9  -7   4    7.80    3.22
  -9   7  -4    3.92    1.11
  -7  -9   4    7.04    1.89
  -7  -9   4    5.57    3.44
   9   7   4    4.18    2.97
   7   9   4    3.23    2.55
   9  -7  -4    4.17    2.72
  -9   7  -4    3.10    2.87
  -7  -9   4    4.69    1.00
  -7   9  -4    3.04    2.97
   7  -9  -4    8.94    3.10
   9  -7  -4   -1.39    3.18
   7  -9  -4    0.09    2.75
  -7   9  -4    2.82    1.97
  -7  -9   6   10.77    3.61
  -7   9  -6   11.01    2.06
  -7  -9   6   10.25    2.11
  -7  -9   6    8.86    2.00
   9   7   6    7.79    3.33
   7   9   6   12.77    3.16
  -9   7  -6    2.89    3.09
  -7   9  -6   12.45    3.79
  -9  -7   6    5.01    3.44
   7  -9  -6    9.24    3.14
  -9  -7   6    8.60    2.30
  -7   9  -6    9.08    2.11
   9  -7  -6   12.26    3.52
   9  -7  -6   13.77    3.93
   7  -9  -6    8.79    3.49
   9  -7  -8    2.66    3.16
   9   7   8   -2.05    3.42
  -9   7  -8   -0.63    3.23
  -7   9  -8   -0.04    3.25
  -9  -7   8    1.56    3.29
  -7  -9   8   -1.78    3.12
   7  -9  -8    2.49    3.10
   9  -7  -8    3.45    3.57
   7  -9  -8    4.41    4.34
   7  -9 -10   24.00    4.52
  -9   7 -10   25.98    4.77
  -9   7 -10   27.39    4.58
  -9  -7  10   21.78    4.39
   9   7  10   28.76    5.04
  -7   9 -10   24.42    4.61
  -7  -9  10   28.46    4.80
   9  -7 -10   26.69    4.46
  -9   7 -12   53.76    6.38
  -7   9 -12   51.78    6.44
  -9  -7  12   54.82    6.43
  -7  -9  12   48.35    6.01
  -9   7 -12   44.40    5.84
  -7   9 -12   46.32    6.06
   9  -7 -12   50.44    6.20
   7  -9 -12   57.03    6.57
  -7  -9  14   18.18    5.19
  -9  -7  14   16.98    4.94
  -9   7 -14   14.70    4.50
  -7   9 -14   21.40    5.03
  -9   7 -14   14.67    4.87
  -7   9 -14   21.27    5.07
   9  -7 -14   19.54    5.06
   7  -9 -14   18.41    4.84
  -7  -9  16    0.51    3.74
  -9   7 -16   -7.31    4.14
  -7   9 -16    3.85    3.96
  -9   7 -16    3.54    4.44
   9  -7 -16    4.14    4.24
  -7   9 -16    2.80    4.02
   7  -9 -16   -1.84    4.17
  -9  -7  16   -1.97    4.26
  -9   7 -18    7.25    4.53
  -9   7 -18   14.06    4.59
  -7   9 -18    7.87    5.34
   9  -7 -18    8.02    5.04
  -7   9 -18    7.79    4.47
   7  -9 -18    6.37    4.99
  -8   9  19    6.11    4.86
  -9   8  19    2.48    4.27
  -9   8  17   -0.83    3.87
  -9  -8 -17   -1.42    3.85
  -9  -8 -17    1.65    3.81
  -8  -9 -17   -0.61    3.74
   8   9 -17    1.74    3.61
  -9   8  15    4.62    3.56
   8   9 -15    2.98    3.44
  -8  -9 -15    5.15    3.90
  -8  -9 -15    3.85    3.71
  -9  -8 -15    6.69    4.16
   9   8 -15   10.58    3.76
  -8  -9 -13   27.02    5.21
  -9  -8 -13   18.27    4.75
   8   9 -13   21.24    4.44
  -8  -9 -11   32.35    5.04
  -9  -8 -11   32.35    4.96
  -9  -8  -9    7.69    3.51
  -8  -9  -9    4.38    3.50
  -8  -9  -7   11.25    3.90
  -9  -8  -7   16.47    4.16
   9  -8   7   11.31    3.66
   8  -9   7   23.56    4.30
  -9   8   5    6.41    1.35
  -9  -8  -5    5.45    3.47
   9  -8   5    7.44    3.19
   8  -9   5   12.70    3.29
  -8   9   5    8.73    2.00
  -8  -9  -5    4.82    3.22
  -9  -8  -3    7.04    3.23
  -8  -9  -3    3.19    3.22
   9  -8   3    5.05    2.87
   8  -9   3   -1.20    2.64
  -9   8   3    0.50    1.70
  -8   9   3    0.55    1.89
   8  -9   3   -0.40    0.93
   9  -8   1   36.22    2.40
  -9   8   1   40.65    3.75
  -8   9   1   43.91    3.88
   8  -9   1   44.73    3.85
   9  -8   1   34.98    3.81
   8  -9   1   40.38    2.87
   9  -8   1   43.19    3.49
   8  -9   1   36.78    3.46
  -9  -8  -1   39.16    4.85
  -8  -9  -1   41.96    4.98
   8   9   1   42.60    4.10
   9   8   1   41.08    4.22
  -9  -8   1   43.16    4.90
  -9   8  -1   44.43    4.24
  -8   9  -1   40.86    4.11
  -8  -9   1   48.45    5.39
   8  -9  -1   43.87    3.99
   9  -8  -1   41.94    3.82
  -9   8  -1   38.11    3.33
   8  -9  -1   42.24    5.03
   9  -8  -1   42.15    5.03
   9  -8  -1   34.02    2.91
  -9   8  -3    2.66    1.74
  -9  -8   3    4.83    3.03
  -8  -9   3    0.41    1.35
  -9  -8   3    0.08    0.51
  -8  -9   3    2.58    3.08
   9   8   3   -3.65    2.65
   8   9   3    2.50    2.42
  -9   8  -3   -0.36    2.68
  -8   9  -3    1.58    2.73
   8  -9  -3   -0.70    2.81
   9  -8  -3    6.38    2.80
   9  -8  -3   -2.70    2.95
   8  -9  -3   -0.13    2.91
  -8   9  -3   -0.74    1.99
  -8  -9   5    7.78    3.55
   9  -8  -5    7.71    2.95
   9   8   5   10.27    3.36
   8   9   5    4.88    2.88
  -9   8  -5    1.94    2.94
  -8   9  -5    8.16    3.05
   8  -9  -5    2.93    2.86
   8  -9  -5    9.78    3.46
  -8   9  -5    5.44    1.94
   9  -8  -5    3.38    3.05
  -9  -8   5   11.37    3.88
   9   8   7    6.02    3.34
   8   9   7    3.66    3.30
  -9   8  -7    6.19    3.30
  -8   9  -7    7.47    3.39
  -9  -8   7    9.32    3.87
   8  -9  -7   10.83    3.76
  -8  -9   7    4.95    3.52
   9  -8  -7    7.37    3.38
   9  -8  -7    9.55    3.89
   8  -9  -7    3.17    3.42
   9   8   9    0.14    3.36
   9  -8  -9   -3.01    3.62
  -9   8  -9    2.57    3.39
  -8   9  -9    0.12    3.25
  -9  -8   9   -0.80    3.21
  -8  -9   9   -0.38    3.54
   8  -9  -9    2.88    3.60
   9  -8  -9    9.84    4.24
   9  -8 -11   34.14    5.20
  -9  -8  11   21.04    4.53
  -9   8 -11   25.27    5.03
  -8  -9  11   28.94    5.28
  -8   9 -11   29.99    5.25
   8  -9 -11   26.07    4.87
  -9   8 -13   21.27    5.33
  -8   9 -13   24.78    5.34
  -9  -8  13   26.60    5.23
  -8  -9  13   22.21    4.90
   9  -8 -13   30.23    5.43
  -9   8 -13   21.21    5.01
  -8   9 -13   17.53    4.64
   8  -9 -13   33.06    5.45
  -9  -8  15    3.71    3.97
  -8  -9  15    4.92    4.28
  -9   8 -15    6.84    4.13
  -8   9 -15    9.83    4.26
   9  -8 -15    6.17    4.36
  -9   8 -15    4.72    3.93
  -8   9 -15    5.38    4.40
   8  -9 -15    6.68    4.59
  -8  -9  17   -0.45    4.11
   9  -8 -17   -3.70    4.65
  -9   8 -17   -0.25    4.02
  -8   9 -17    0.12    3.99
  -9   8 -17    1.15    4.23
  -8   9 -17   -5.88    4.52
   8  -9 -17    1.81    4.20
  -9   9  18    1.38    3.88
  -9  -9 -18    3.81    4.86
  -9  -9 -16   -8.69    4.43
   9   9 -16   -1.82    3.81
  -9   9  16   -1.16    3.57
  -9  -9 -14    8.25    4.07
   9   9 -14   13.19    4.15
  -9  -9 -12   12.28    4.00
  -9  -9 -10    3.96    3.62
  -9  -9  -8   45.80    5.70
   9  -9   8   42.74    5.12
   9  -9   6   33.40    4.41
  -9  -9  -6   46.19    5.39
  -9  -9  -4   -1.19    3.39
   9  -9   4    0.40    2.81
  -9   9   4   -1.10    1.77
  -9   9   2   46.16    3.82
   9  -9   2   46.34    4.47
  -9  -9  -2   58.48    5.75
   9  -9   2   39.02    2.22
   9   9   0  161.88    7.38
   9  -9   0  164.95    7.00
  -9  -9   0  173.16    8.82
   9  -9   0  159.19    6.63
  -9   9   0  167.80    7.18
   9  -9   0  152.04    8.74
   9  -9  -2   46.56    5.37
  -9  -9   2   54.22    5.65
   9   9   2   46.52    4.46
  -9   9  -2   48.27    4.73
   9  -9  -2   46.95    4.42
  -9   9  -2   38.16    3.53
  -9  -9   4    3.63    3.03
   9   9   4    3.04    3.03
  -9   9  -4    1.40    2.86
   9  -9  -4    2.40    3.25
   9  -9  -4   -0.75    2.84
   9  -9  -6   44.83    5.65
   9   9   6   37.85    4.77
  -9   9  -6   38.40    4.94
   9  -9  -6   41.66    4.80
  -9  -9   6   39.70    5.56
   9  -9  -8   28.77    4.59
   9  -9  -8   34.44    5.00
   9   9   8   39.08    5.11
  -9   9  -8   32.69    5.00
  -9  -9   8   36.05    5.09
   9  -9 -10    0.77    3.66
  -9   9 -10    5.59    3.47
  -9  -9  12   11.66    4.28
  -9   9 -12   10.82    4.33
   9  -9 -12    9.95    4.04
  -9   9 -14    6.16    4.19
  -9  -9  14   13.68    5.31
  -9   9 -14   12.41    4.83
   9  -9 -14    6.01    4.21
  -9  -9  16    6.44    4.19
  -9   9 -16    6.47    4.59
  -9   9 -16    0.38    4.06
   9  -9 -16   -4.38    4.22
   0 -10   0  383.26   10.45
  10   0   0  385.34    7.51
  10   0   0  399.42    9.18
 -10   0   0  395.59    9.03
  10   0   0  386.42   10.35
   0 -10   0  379.74    8.19
  10   0  -2  111.55    4.74
 -10   0   2  116.96    5.55
  10   0   2  115.25    4.98
  10   0   2  120.32    5.07
  10   0  -2  115.39    3.89
 -10   0  -2  123.38    4.85
  10   0   2  118.37    6.55
   0 -10  -2  121.11    6.29
   0 -10   2  110.94    5.89
  10   0  -2  111.41    5.90
   0 -10  -2  114.04    4.77
  10   0  -4    6.70    2.34
 -10   0  -4    4.23    1.62
  10   0  -4    6.52    2.60
 -10   0  -4    3.38    2.00
  10   0  -4    3.24    1.44
 -10   0   4    5.99    2.42
   0 -10  -4    4.23    1.01
  10   0  -4    2.45    2.33
  10   0   4    3.65    2.90
   0  10  -4    5.81    1.19
  10   0   4    5.12    1.58
   0 -10  -4    4.78    2.87
   0 -10   4    5.84    2.58
 -10   0   6   89.92    5.94
 -10   0  -6   89.24    5.22
   0 -10   6   87.32    5.52
  10   0   6   82.32    6.11
   0 -10  -6   84.67    3.77
   0  10  -6   91.27    4.01
 -10   0  -6   87.52    4.07
  10   0  -6   99.35    6.15
   0 -10  -6   84.77    6.00
  10   0   6   69.33    2.70
  10   0  -6   98.82    6.18
 -10   0  -8   99.78    6.12
   0 -10   8   91.36    5.77
  10   0   8   82.04    6.72
   0 -10  -8   88.46    4.77
  10   0  -8   87.69    6.29
   0  10  -8   85.50    6.55
   0 -10  -8   83.21    6.41
 -10   0  -8   90.88    4.36
  10   0 -10   -4.17    3.81
 -10   0 -10   -1.45    2.91
  10   0  10    1.90    3.43
   0 -10  10   -1.32    2.71
   0 -10 -10    6.30    3.29
  10   0 -10    1.10    1.49
 -10   0 -10    3.62    2.21
   0  10 -10    3.65    3.32
  10   0 -12   16.90    4.40
 -10   0 -12   11.72    3.52
   0 -10  12   14.66    3.62
  10   0  12   10.95    4.74
   0 -10 -12   19.72    4.54
   0  10 -12   17.20    4.44
 -10   0 -12   12.74    2.60
  10   0 -14   22.25    4.76
 -10   0 -14   19.85    4.62
   0 -10  14   24.13    4.38
   0  10 -14    8.93    3.72
 -10   0 -14   20.97    3.22
   0  10 -14   24.82    5.33
   0 -10 -14   13.52    4.37
  10   0 -16   15.20    5.09
 -10   0 -16    4.23    3.39
   0  10 -16    4.91    3.52
   0  10 -16    5.18    4.20
   0 -10 -16    0.64    3.82
  10   0 -18    0.74    4.15
 -10   0 -18    5.37    3.91
   0  10 -18    6.85    3.86
   0  10 -18    0.86    3.84
   0  10 -18   -4.75    4.64
   0 -10 -18    4.88    3.98
   0  10 -20    2.86    4.10
   0  10 -20   -1.98    4.40
   1  10 -21   -1.62    4.42
  10   1 -19    1.61    4.39
 -10  -1 -19    1.79    4.09
   1  10 -19    4.56    3.81
   1  10 -19   -2.36    4.05
   1  10 -19    9.60    4.73
  -1 -10 -19    3.16    4.28
  10   1 -17    0.14    4.02
 -10  -1 -17   -7.95    3.95
   1  10 -17    0.52    3.48
   1  10 -17    2.04    3.75
  -1 -10 -17    2.88    3.91
  10   1 -15   12.20    4.44
   1  10 -15   15.76    4.03
 -10  -1 -15    9.34    3.90
  -1 -10 -15    7.67    4.25
   1  10 -15   12.78    4.70
  10   1 -13   11.04    3.90
 -10  -1 -13   26.12    4.59
   1 -10  13   22.70    3.95
 -10  -1 -13   21.80    3.60
  -1 -10 -13   27.40    4.83
   1  10 -13   24.47    4.44
   1  10 -13   26.55    5.00
  10   1 -11   10.96    2.26
  10   1 -11    6.80    3.77
 -10  -1 -11   12.46    3.67
   1 -10  11   12.21    3.36
 -10  -1 -11   10.60    2.85
  10  -1  11    2.46    3.73
  -1 -10 -11   10.47    4.24
   1  10 -11   17.60    4.58
  10   1  -9   18.30    4.06
 -10  -1  -9   19.13    3.47
  10  -1   9   13.66    4.08
   1 -10   9   18.47    3.24
  -1 -10  -9   22.19    4.53
   1  10  -9   25.03    4.48
 -10  -1  -9   19.78    2.84
 -10  -1  -7   93.07    5.65
  10   1  -7   89.78    6.30
   1 -10   7   87.72    5.32
  -1 -10  -7   85.27    4.28
  10  -1   7   86.21    6.61
  -1 -10  -7   84.38    6.13
 -10  -1  -7   99.72    4.83
 -10  -1  -5   44.32    3.69
  -1 -10  -5   33.42    2.31
   1 -10   5   33.78    3.77
  10  -1   5   26.88    4.12
  -1 -10  -5   35.39    4.52
 -10  -1  -5   30.66    3.05
  10   1  -5   35.62    3.98
  10   1  -3   13.10    2.64
   1 -10   3   12.00    2.73
  10  -1   3   12.63    2.55
  10  -1   3   15.20    2.15
  10  -1   3   11.17    1.69
 -10   1   3   10.99    2.56
 -10  -1  -3   15.68    2.43
 -10  -1  -3   12.13    2.07
  10  -1   3   14.62    3.39
  -1 -10  -3   16.91    3.37
  10   1  -3   12.80    1.30
  10   1  -3   17.33    3.01
 -10   1   1  254.12    7.41
  10   1  -1  233.80    4.89
  10  -1   1  238.76    6.85
  -1 -10  -1  237.89    8.71
 -10  -1  -1  243.06    7.32
  10  -1   1  238.39    6.15
  10  -1   1  243.03    6.65
  10   1  -1  238.81    8.01
  -1 -10  -1  245.96    6.07
   1 -10   1  231.09    7.91
  10  -1  -1  231.28    5.75
 -10   1  -1  234.83    6.46
 -10  -1   1  240.58    7.72
  10  -1  -1  245.25    6.37
  10  -1  -1  247.95    7.35
   1 -10  -1  247.03    8.43
  10  -1  -1  254.39    7.44
  -1 -10   1  247.02    8.59
  10  -1  -1  229.25    8.29
   1 -10  -1  241.78    7.20
  10  -1  -1  245.99    7.18
  10  -1  -3   19.52    3.17
  10  -1  -3   13.28    2.05
  10  -1  -3   11.96    2.24
  10   1   3   12.22    3.10
 -10  -1   3   12.78    2.89
   1 -10  -3   14.06    3.45
   1 -10  -3   18.96    2.77
 -10   1  -3   14.47    1.96
  10   1   3   13.63    2.44
  -1 -10   3   10.30    2.85
  10  -1  -3   14.44    2.84
  10  -1  -3   16.90    2.42
  10  -1  -5   38.91    4.35
 -10   1  -5   37.07    2.50
 -10   1  -5   36.15    3.56
  -1  10  -5   35.29    2.37
 -10  -1   5   37.09    4.34
   1 -10  -5   32.48    2.24
  10  -1  -5   38.98    4.06
  -1 -10   5   32.88    3.94
  10   1   5   31.54    4.26
  10   1   5   32.66    2.61
   1 -10  -5   34.97    4.38
 -10  -1   7  105.83    6.64
 -10   1  -7   84.27    5.62
  -1 -10   7   94.76    6.07
  10   1   7   88.45    6.65
  -1  10  -7   91.98    4.44
   1 -10  -7   93.78    4.59
 -10   1  -7   80.92    3.60
  -1  10  -7   86.54    6.53
   1 -10  -7   87.96    6.41
  10  -1  -7  109.55    6.82
  10   1   7   81.40    3.56
  10  -1  -7   97.29    6.30
  10  -1  -9   23.73    4.53
 -10   1  -9   22.74    4.16
 -10   1  -9   18.15    2.28
 -10  -1   9   17.32    3.72
  10   1   9   13.55    4.06
  -1 -10   9   18.24    3.56
   1 -10  -9   15.99    3.88
  10  -1  -9   12.42    1.28
  -1  10  -9   26.88    4.73
  10   1   9   16.58    2.19
 -10   1 -11   13.12    2.31
  10  -1 -11   16.31    4.34
 -10   1 -11    2.75    2.95
  -1 -10  11   14.63    3.53
  10   1  11   12.51    3.96
   1 -10 -11   10.86    4.18
  -1  10 -11   14.65    4.50
  10  -1 -13   36.78    5.45
 -10   1 -13   23.09    4.57
  -1  10 -13   23.07    4.55
  -1 -10  13   29.14    4.60
  -1  10 -13   32.40    5.45
   1 -10 -13   19.71    4.78
  -1 -10  15   11.84    3.80
 -10   1 -15   10.69    4.31
  -1  10 -15    8.02    3.69
  -1  10 -15    7.33    3.74
  10  -1 -15   12.61    4.51
   1 -10 -15   10.44    4.48
  10  -1 -17    5.43    4.42
 -10   1 -17    2.37    3.57
  -1  10 -17    5.75    4.05
  -1  10 -17    0.64    4.05
   1 -10 -17    0.98    4.07
  10  -1 -19   -2.65    4.32
 -10   1 -19    1.72    3.85
  -1  10 -19    2.79    3.91
  -1  10 -19   11.73    5.10
   1 -10 -19   13.89    5.25
   2  10 -20    5.79    4.36
   2  10 -20    4.20    3.92
   2  10 -20    0.03    4.59
  -2 -10 -20    9.63    5.18
  10   2 -18    4.74    4.57
   2  10 -18   -3.04    3.86
   2  10 -18    3.48    4.07
  -2 -10 -18   -0.13    4.08
 -10  -2 -18    3.09    3.98
 -10   2  16   -2.25    3.41
  10   2 -16    1.80    3.94
 -10  -2 -16   -3.32    3.44
   2  10 -16    0.81    3.36
  -2 -10 -16    6.47    4.29
   2  10 -16    3.74    3.91
  10  -2  14   16.70    3.28
 -10   2  14   16.45    4.15
  10   2 -14   28.81    5.30
 -10  -2 -14   14.37    4.29
   2  10 -14   18.21    4.31
 -10  -2 -14   20.86    3.81
  -2 -10 -14   27.38    5.07
   2  10 -14   22.96    5.00
 -10  -2 -12   22.45    3.36
  10   2 -12   23.88    3.24
 -10  -2 -12   24.81    4.38
  10   2 -12   18.62    4.47
   2 -10  12   34.69    4.07
  10  -2  12   28.68    5.73
  -2 -10 -12   26.85    4.68
  10   2 -12   25.38    3.08
   2  10 -12   29.17    4.92
  10  -2  12   24.72    3.29
  10   2 -10    1.16    2.12
 -10  -2 -10    3.84    3.08
  10   2 -10    1.49    3.59
 -10  -2 -10    6.51    2.63
   2 -10  10   -3.82    2.66
  10  -2  10   -0.01    3.92
  -2 -10 -10    1.90    3.45
   2  10 -10   -0.64    3.34
  10   2  -8   48.90    2.63
 -10  -2  -8   53.34    4.68
   2 -10   8   50.84    4.10
  -2 -10  -8   50.15    3.98
 -10  -2  -8   50.52    4.10
  10  -2   8   46.90    5.44
  -2 -10  -8   45.75    5.09
  10   2  -6   49.27    1.82
 -10  -2  -6   69.44    4.67
   2 -10   6   68.70    4.52
  10  -2   6   67.77    5.74
  -2 -10  -6   69.23    3.78
  -2 -10  -6   63.35    5.69
 -10  -2  -6   73.92    4.58
 -10  -2  -4    5.09    2.02
  10  -2   4    4.85    3.23
  10  -2   4    1.20    0.58
 -10  -2  -4    3.11    2.30
  10  -2   4    1.63    0.66
   2 -10   4    6.19    2.26
  -2 -10  -4   -0.13    2.72
 -10  -2  -2   54.95    2.90
  -2 -10  -2   65.10    5.16
 -10  -2  -2   68.02    4.36
  10  -2   2   65.49    5.10
  10  -2   2   56.60    2.80
   2 -10   2   63.87    4.39
  10   2  -2   57.13    4.17
  10  -2   2   62.09    3.15
  10  -2   0  232.68    7.00
 -10  -2   0  242.70    7.77
   2 -10   0  226.77    7.71
  10  -2   0  223.33    7.28
  10  -2   0  208.99    6.15
 -10   2   0  235.34    6.50
  10  -2   0  227.43    6.29
  10  -2   0  221.80    8.52
   2 -10   0  228.00    7.54
  10   2   0  230.15    7.47
  -2 -10   0  228.37    8.64
  -2 -10   0  232.38    5.09
 -10   2  -2   59.12    3.06
 -10  -2   2   61.08    4.40
  10  -2  -2   66.42    3.96
  10  -2  -2   67.52    4.13
  10   2   2   58.76    4.97
  10  -2  -2   62.75    3.68
   2 -10  -2   59.21    4.87
   2 -10  -2   63.32    4.82
  -2 -10   2   56.18    4.75
  10  -2  -2   63.72    4.26
   2 -10  -2   60.61    4.22
  10  -2  -2   67.10    5.03
  10  -2  -4    7.83    2.62
  10   2   4    4.55    3.13
  10  -2  -4    6.90    2.65
 -10   2  -4    5.89    1.27
  10  -2  -4    2.60    1.65
 -10  -2   4    4.74    2.43
  -2 -10   4    3.85    2.65
  -2  10  -4    4.68    2.83
  10   2   4    1.88    1.80
   2 -10  -4    3.60    2.84
   2 -10  -4    1.37    2.22
 -10  -2   6   74.82    5.62
 -10   2  -6   73.54    5.12
 -10   2  -6   63.83    2.56
  -2 -10   6   65.33    5.37
  10  -2  -6   65.02    2.58
  -2  10  -6   67.47    3.45
  10   2   6   73.75    5.93
  -2  10  -6   73.84    5.98
   2 -10  -6   64.07    5.69
  10   2   6   68.50    3.79
  10  -2  -6   74.99    5.47
  10  -2  -6   72.86    5.63
   2  10   6   72.79    4.08
 -10  -2   8   52.43    5.39
  10  -2  -8   47.27    5.06
 -10   2  -8   45.41    4.86
  -2 -10   8   53.30    4.97
  -2  10  -8   49.47    3.91
 -10   2  -8   45.15    2.37
  10   2   8   50.86    5.59
   2 -10  -8   57.85    5.68
  10   2   8   49.70    3.50
  -2  10  -8   50.90    5.57
  10  -2 -10   -0.87    3.44
 -10  -2  10    3.32    3.16
 -10   2 -10   -1.21    3.13
 -10   2 -10    1.61    1.35
  10   2  10    1.01    3.59
  -2 -10  10    2.89    2.81
   2 -10 -10   -1.41    3.56
  -2  10 -10   -2.19    3.82
  10  -2 -12   27.00    4.64
 -10   2 -12   20.62    4.43
  -2 -10  12   29.04    4.52
  10   2  12   27.06    5.78
  -2  10 -12   23.14    4.78
   2 -10 -12   30.07    5.07
  10  -2 -14   26.59    5.59
 -10   2 -14   21.45    4.75
  -2 -10  14   32.38    4.87
  -2  10 -14   22.08    4.69
  -2  10 -14   15.71    4.53
   2 -10 -14   27.65    5.42
  10  -2 -16   -1.58    4.19
 -10   2 -16   -5.72    4.05
  -2  10 -16    1.54    3.67
  -2  10 -16    6.94    4.33
   2 -10 -16    7.02    4.24
  -2 -10  16    1.18    3.61
  10  -2 -18   -2.78    4.28
 -10   2 -18   -0.27    3.62
  -2  10 -18    2.95    3.98
  -2  10 -18   -1.76    4.18
   2 -10 -18   -6.28    5.19
  -2  10 -20    7.58    4.72
   3  10 -21   -4.11    4.60
   3  10 -21    0.39    4.40
 -10   3  19    5.49    4.45
 -10  -3 -19    4.26    4.13
   3  10 -19    2.60    4.06
   3  10 -19    4.61    4.09
   3  10 -19    4.30    4.66
  -3 -10 -19   13.48    5.03
 -10   3  17   -7.52    3.92
  10   3 -17    0.02    4.04
 -10  -3 -17    0.25    3.85
   3  10 -17   -2.78    3.50
  -3 -10 -17   -0.35    3.91
   3  10 -17   -0.16    3.92
 -10   3  15    5.94    3.42
 -10  -3 -15    3.42    3.78
  10   3 -15    9.69    4.62
   3  10 -15    6.96    3.50
 -10  -3 -15    5.04    3.18
  -3 -10 -15   12.19    4.10
   3  10 -15   10.77    4.29
  10  -3  13   10.34    2.68
 -10   3  13   18.38    4.01
 -10  -3 -13   16.31    4.03
  10   3 -13   23.32    4.93
 -10  -3 -13   18.13    3.54
  -3 -10 -13   18.72    4.29
  10   3 -13   10.46    2.81
   3  10 -13   27.32    4.88
  10  -3  11    8.01    2.25
 -10   3  11    7.88    3.19
  10   3 -11   13.06    2.44
 -10  -3 -11    7.07    3.22
  10   3 -11   16.95    4.41
   3 -10  11    4.28    2.47
  10  -3  11    7.68    3.85
 -10  -3 -11   10.40    2.99
  -3 -10 -11    0.73    3.41
   3  10 -11    2.91    3.59
 -10  -3  -9   29.50    3.88
  10  -3   9   24.68    2.39
 -10   3   9   27.47    3.83
 -10  -3  -9   29.08    4.03
  10   3  -9   24.90    2.06
  10  -3   9   22.08    4.45
   3 -10   9   28.21    3.36
  -3 -10  -9   25.10    4.52
  10  -3   7   89.72    2.82
 -10  -3  -7  120.92    6.17
   3 -10   7  122.07    5.49
  -3 -10  -7  106.99    5.05
  10  -3   7  115.34    7.36
  -3 -10  -7  129.70    7.42
 -10  -3  -7  130.29    6.27
 -10  -3  -5   89.02    4.60
   3 -10   5   79.56    4.61
  10  -3   5   82.35    6.05
  -3 -10  -5   91.91    6.23
 -10  -3  -5   87.67    5.23
   3 -10   3   -0.34    1.96
  10  -3   3   -0.55    0.84
  10  -3   3   -0.03    0.97
 -10  -3  -3    2.15    1.67
  10  -3   3   -0.18    2.62
  -3 -10  -3   -3.09    3.01
 -10  -3  -3    3.12    2.34
  10   3  -3    1.64    2.14
   3 -10   1   93.86    4.99
 -10  -3  -1   83.40    2.83
 -10  -3  -1   97.92    5.32
   3  10  -1   85.82    2.97
  -3 -10  -1   91.44    6.01
  10  -3   1   94.14    3.75
  10  -3   1   85.05    3.65
  10   3  -1   86.96    4.66
 -10  -3   1   97.77    5.63
  10  -3  -1   93.48    4.37
  10  -3  -1   90.05    4.54
  10   3   1   90.73    4.71
   3 -10  -1   88.16    5.56
   3 -10  -1   96.30    5.22
   3  10   1   82.66    2.97
  -3 -10   1   89.45    5.83
   3 -10  -1   88.98    5.17
  10  -3  -1   92.97    4.46
  10  -3  -1   87.09    5.79
  -3 -10   1   70.86    2.48
  10  -3  -3    2.83    2.43
  10  -3  -3   -1.64    2.44
  10   3   3    5.77    3.22
  10  -3  -3    1.32    1.77
   3 -10  -3    3.34    2.74
   3 -10  -3    0.89    2.22
 -10  -3   3    0.52    2.33
  -3 -10   3    2.82    2.74
  -3  10  -3   -4.98    2.83
 -10  -3   5   90.39    6.11
 -10   3  -5   88.36    5.45
  -3 -10   5   82.38    5.82
  -3  10  -5   81.04    3.48
  10  -3  -5   77.61    2.81
  10   3   5   76.92    6.00
  -3  10  -5   89.31    6.20
  10   3   5   83.44    4.48
   3 -10  -5   79.44    5.98
  10  -3  -5   82.89    5.97
  10  -3  -5   85.92    5.46
   3 -10  -5   83.02    5.41
 -10  -3   7  124.21    7.37
 -10   3  -7  115.29    6.72
  -3 -10   7  113.50    6.92
  -3  10  -7  115.11    5.07
  10   3   7  123.36    7.73
  -3  10  -7  128.42    7.69
  -3  10  -7  112.02    5.17
   3 -10  -7  119.86    7.40
  10   3   7  111.24    5.12
  10  -3  -7  121.01    6.94
   3  10   7  120.63    5.18
  10  -3  -7  117.51    7.21
  10  -3  -9   27.69    4.58
 -10   3  -9   19.65    3.81
 -10  -3   9   25.60    4.55
  10   3   9   30.13    5.08
  -3 -10   9   30.70    4.46
   3 -10  -9   27.08    4.63
  -3  10  -9   28.49    4.68
  10   3   9   26.45    3.31
  10  -3 -11    4.85    3.60
 -10  -3  11    7.90    4.07
 -10   3 -11    3.64    3.48
  10   3  11    5.94    4.11
  -3 -10  11    5.91    3.38
  -3  10 -11   11.17    3.83
   3 -10 -11    5.05    3.67
  10  -3 -13   17.12    4.41
 -10   3 -13   14.70    4.40
  -3  10 -13   16.66    4.48
  -3 -10  13   19.33    4.46
  -3  10 -13   11.77    4.57
   3 -10 -13   12.00    4.20
  10  -3 -15    6.01    4.61
 -10   3 -15    0.01    3.39
  -3 -10  15    4.07    3.53
  -3  10 -15   10.75    4.17
  -3  10 -15    9.73    4.59
   3 -10 -15    0.37    3.76
  10  -3 -17    4.77    4.58
 -10   3 -17    6.73    4.03
  -3  10 -17   -2.22    3.90
  -3  10 -17   -6.84    4.44
   3 -10 -17   -3.34    4.12
 -10   3 -19    7.78    4.58
  -3  10 -19   14.25    5.41
  -3  10 -19    9.33    5.35
   3 -10 -19    8.12    5.15
   4  10 -20    1.13    4.39
   4  10 -20    8.18    4.66
  -4 -10 -20    0.68    4.46
 -10   4  18    3.88    3.99
  10   4 -18   -2.78    4.48
 -10  -4 -18    4.51    4.19
   4  10 -18   -2.93    3.81
  -4 -10 -18   -1.32    3.95
   4  10 -18    8.31    4.87
 -10   4  16   -0.15    3.32
 -10  -4 -16    9.12    3.62
 -10  -4 -16    6.22    4.05
  10   4 -16    7.05    4.32
   4  10 -16    5.46    3.43
  -4 -10 -16    1.12    3.72
   4  10 -16   -0.07    3.84
 -10   4  14    4.34    3.27
 -10  -4 -14    5.66    3.49
 -10  -4 -14    7.94    3.81
  10   4 -14    8.90    4.41
  -4 -10 -14    3.45    3.78
   4  10 -14   10.61    4.31
 -10  -4 -12   12.76    3.32
 -10   4  12   19.88    3.96
 -10  -4 -12   10.23    3.44
   4  10 -12   14.21    4.00
  -4 -10 -12    5.13    3.49
 -10   4  10    3.29    2.83
 -10  -4 -10    3.34    2.75
   4 -10  10   -1.51    2.25
 -10  -4 -10   -3.21    2.84
  10  -4  10   -3.63    3.97
  -4 -10 -10   -4.06    3.61
 -10   4   8   66.98    5.01
   4 -10   8   71.82    4.26
 -10  -4  -8   75.48    5.27
  10  -4   8   71.67    6.28
 -10  -4  -8   75.04    5.37
  -4 -10  -8   75.55    6.16
  -4 -10  -8   78.89    6.61
 -10   4   6  105.04    5.13
 -10  -4  -6  108.59    5.51
   4 -10   6  104.06    4.78
  10  -4   6  114.92    7.14
  -4 -10  -6  101.97    6.80
 -10  -4  -6  121.91    6.42
 -10  -4  -4   41.70    3.21
  10  -4   4   43.36    4.73
   4 -10   4   41.44    3.32
  -4 -10  -4   37.54    4.53
 -10  -4  -4   49.26    4.45
 -10  -4  -2    8.63    1.59
  10  -4   2    7.87    1.37
  10  -4   2    8.82    3.07
   4 -10   2    8.94    2.27
 -10  -4  -2   12.49    2.95
  -4 -10  -2   10.85    3.48
  10   4  -2    5.18    2.02
  10  -4   2    6.39    1.50
  10  -4   0   67.87    3.43
 -10  -4   0   71.58    4.93
  10  -4   0   67.80    4.29
   4  10   0   65.82    3.16
   4 -10   0   53.50    2.24
   4 -10   0   62.58    4.26
  -4  10   0   65.47    4.88
   4 -10   0   64.77    4.74
  10  -4   0   63.58    3.55
  10   4   0   62.18    3.79
  -4 -10   0   64.83    5.35
  10  -4  -2    6.54    2.33
   4 -10  -2    7.99    2.86
  -4 -10   2    3.60    0.70
  10   4   2    8.25    3.27
  10  -4  -2    9.34    3.04
   4  10   2    9.04    1.96
   4 -10  -2    2.95    2.48
  10  -4  -2    7.63    2.03
  10  -4  -2    8.14    2.22
  -4 -10   2    7.74    3.09
  -4  10  -2    7.71    2.95
 -10  -4   2    9.83    2.86
  10  -4  -4   40.59    2.37
  10   4   4   38.68    4.47
  -4 -10   4   38.19    4.55
   4 -10  -4   40.60    4.54
 -10  -4   4   44.94    4.62
  10  -4  -4   43.56    4.15
  -4  10  -4   39.83    4.54
  10  -4  -4   39.20    4.44
   4 -10  -4   41.18    4.24
 -10  -4   6  115.31    7.00
   4  10   6  107.47    4.22
  -4 -10   6  105.36    6.87
 -10   4  -6  101.11    6.64
 -10   4  -6  108.49    6.43
  -4  10  -6  105.63    4.67
  10   4   6   99.96    6.76
  -4  10  -6  111.34    7.14
   4 -10  -6  102.28    6.97
  10  -4  -6  111.32    6.48
  10  -4  -6  104.30    6.87
   4 -10  -6  102.74    6.57
 -10   4  -8   68.02    5.88
  -4 -10   8   75.49    6.10
 -10   4  -8   69.31    6.15
  -4  10  -8   75.91    6.54
  10   4   8   76.93    6.55
 -10  -4   8   79.65    6.31
  -4  10  -8   69.07    4.08
   4 -10  -8   76.97    6.37
  10  -4  -8   82.03    6.71
  10  -4  -8   69.93    6.04
   4  10   8   66.37    4.37
  10  -4 -10   -1.84    3.52
 -10   4 -10    0.44    3.06
 -10  -4  10    1.38    3.25
 -10   4 -10   -4.61    3.76
  10   4  10   -2.08    3.86
  -4 -10  10    3.65    3.33
  -4  10 -10    0.28    3.64
   4 -10 -10    0.18    3.36
 -10  -4  12   13.43    4.06
 -10   4 -12   12.36    3.90
 -10   4 -12    7.46    3.53
  -4 -10  12    6.94    3.50
  10  -4 -12   10.22    4.01
  10   4  12   23.50    5.47
  -4  10 -12    7.17    3.90
   4 -10 -12    9.62    4.10
  10  -4 -14    7.98    4.35
 -10   4 -14   11.89    4.67
 -10   4 -14   18.64    4.70
  -4  10 -14    6.17    3.43
  -4 -10  14   12.27    4.35
  -4  10 -14    9.39    4.18
   4 -10 -14   11.93    4.20
  10  -4 -16   -2.08    4.05
  -4 -10  16   -1.39    3.52
 -10   4 -16    1.21    3.83
  -4  10 -16    0.80    3.58
  -4  10 -16   -1.64    3.99
   4 -10 -16   -5.21    4.31
  10  -4 -18    2.97    4.51
 -10   4 -18    3.41    4.05
  -4  10 -18    8.30    5.42
  -4  10 -18   -0.18    4.11
   4 -10 -18    6.99    4.69
   5  10 -21   -0.61    4.72
 -10   5  19    0.04    4.02
 -10  -5 -19   14.96    5.51
   5  10 -19    4.85    4.41
  -5 -10 -19    1.25    4.06
   5  10 -19   -1.30    4.35
 -10   5  17    3.54    3.63
 -10  -5 -17   -3.82    3.73
  10   5 -17    1.57    4.20
 -10  -5 -17    2.91    3.69
  -5 -10 -17   -3.25    4.22
   5  10 -17    1.61    3.77
 -10   5  15   -2.33    3.65
 -10  -5 -15   -2.02    3.94
  10   5 -15    1.05    3.88
 -10  -5 -15    8.83    3.95
  -5 -10 -15    1.87    3.52
   5  10 -15    2.59    3.62
 -10   5  13   29.42    4.81
 -10  -5 -13   28.85    4.87
 -10  -5 -13   30.05    4.51
  -5 -10 -13   30.60    5.38
   5  10 -13   28.54    5.34
  10   5 -13   20.32    3.78
 -10   5  11   21.29    4.09
 -10  -5 -11   19.16    3.58
  10  -5  11   26.35    5.17
 -10  -5 -11   23.67    4.09
  -5 -10 -11   21.69    4.38
 -10   5   9    2.15    2.49
 -10  -5  -9    0.73    2.92
 -10  -5  -9   -3.49    2.88
   5 -10   9    1.26    1.93
  10  -5   9    4.01    3.64
  -5 -10  -9   -1.83    3.22
  -5 -10  -9    1.68    3.33
 -10   5   7   34.38    3.60
   5 -10   7   34.92    2.85
 -10  -5  -7   36.89    3.93
  10  -5   7   29.87    4.68
  -5 -10  -7   36.03    4.97
 -10  -5  -7   34.40    4.36
 -10   5   5   23.00    2.75
 -10  -5  -5   22.33    3.04
 -10  -5  -5   16.27    3.32
   5 -10   5   17.92    2.38
  10  -5   5   20.65    4.00
  -5 -10  -5   20.36    4.00
   5 -10   3    0.37    1.76
 -10  -5  -3    1.37    1.63
  10  -5   3   -1.08    2.96
  10  -5   3    1.34    0.90
 -10  -5  -3    4.23    3.09
  -5 -10  -3    2.40    3.15
 -10  -5  -1   60.77    2.34
   5 -10   1   68.54    4.18
  10  -5   1   67.89    2.96
  10  -5   1   65.25    5.02
   5 -10   1   68.26    3.18
 -10  -5  -1   78.54    5.57
  -5  10   1   69.95    4.78
  10  -5   1   67.05    3.44
  -5 -10  -1   68.42    5.81
  10   5  -1   65.36    3.78
  10  -5  -1   65.73    3.67
 -10  -5   1   69.64    5.08
   5 -10  -1   71.99    3.20
   5  10   1   67.69    3.65
  10  -5  -1   62.85    3.80
  -5  10  -1   70.59    5.07
   5 -10  -1   62.90    4.77
  -5 -10   1   69.18    5.61
  10  -5  -1   67.73    4.11
  10  -5  -1   65.07    5.60
   5 -10  -1   69.47    5.29
  10   5   1   64.53    3.59
  10  -5  -3    0.73    2.33
 -10   5  -3    0.68    2.56
  10   5   3   -1.65    2.77
   5  10   3   -1.25    2.09
  10  -5  -3    1.35    1.60
  -5 -10   3   -0.26    2.94
   5 -10  -3   -0.61    2.59
  -5  10  -3   -1.88    2.64
  10  -5  -3    2.47    2.74
   5 -10  -3   -4.26    2.90
 -10  -5   3   -0.59    2.56
  -5 -10   5   21.33    4.00
  10  -5  -5   16.04    3.61
 -10   5  -5   20.46    3.84
  10   5   5   20.02    4.20
 -10  -5   5   21.69    3.91
   5 -10  -5   16.63    3.34
  10  -5  -5   21.91    3.41
  -5  10  -5   17.69    3.71
   5 -10  -5   14.70    3.24
  10  -5  -7   32.78    4.48
   5 -10  -7   38.11    4.86
 -10   5  -7   33.96    4.54
  10   5   7   35.69    4.88
 -10  -5   7   35.77    4.55
  -5  10  -7   37.64    4.78
   5 -10  -7   44.77    5.18
  10  -5  -7   28.02    4.50
  -5 -10   7   30.36    4.53
  10  -5  -9    0.52    3.13
 -10   5  -9   -1.35    3.19
 -10   5  -9   -1.23    3.23
 -10  -5   9   -1.63    3.43
  10   5   9    8.50    3.76
  -5  10  -9    0.50    3.19
  -5 -10   9    5.43    3.27
   5 -10  -9   -1.06    3.23
  10  -5 -11   22.43    4.54
 -10   5 -11   14.51    3.93
 -10  -5  11   16.12    4.17
 -10   5 -11   16.79    4.52
  10   5  11   19.34    4.81
  -5 -10  11   21.68    4.33
  -5  10 -11   22.56    4.93
   5 -10 -11   20.57    4.72
  10  -5 -13   27.20    5.11
 -10  -5  13   37.83    6.02
 -10   5 -13   32.82    5.47
  -5  10 -13   20.02    4.88
 -10   5 -13   25.21    5.15
  -5 -10  13   21.79    4.91
  -5  10 -13   22.44    5.08
   5 -10 -13   33.32    5.48
 -10   5 -15   11.66    4.26
  -5 -10  15    4.29    3.84
  -5  10 -15    7.93    4.06
 -10   5 -15    1.45    4.04
  -5  10 -15   10.19    4.91
   5 -10 -15    9.43    4.47
  10  -5 -15    3.54    4.01
  -5 -10  17    3.04    4.02
 -10   5 -17   -6.57    4.43
 -10   5 -17   -0.15    3.88
  -5  10 -17   -4.42    4.24
  -5  10 -17    1.48    4.15
   5 -10 -17   -3.20    4.13
  10  -5 -17    7.77    5.08
  -6 -10 -20    3.83    4.96
   6  10 -20    8.49    4.74
 -10   6  18    6.53    4.33
 -10  -6 -18   -1.56    4.13
  -6 -10 -18    3.36    4.11
   6  10 -18   13.77    5.11
 -10  -6 -18    3.58    4.26
 -10   6  16    5.82    4.11
 -10  -6 -16   -2.25    4.09
  10   6 -16    4.00    4.21
 -10  -6 -16    3.03    3.65
  -6 -10 -16   -8.41    4.62
   6  10 -16   -4.13    4.12
  10   6 -14    3.76    3.07
 -10   6  14    3.54    3.52
 -10  -6 -14   10.71    3.85
   6  10 -14    9.67    3.74
 -10  -6 -14    6.32    3.83
  -6 -10 -14    6.71    4.14
 -10   6  12   19.56    3.74
 -10  -6 -12   24.35    4.37
   6  10 -12   19.05    4.60
  -6 -10 -12   22.40    4.44
 -10  -6 -12   17.64    4.04
 -10   6  10   -0.05    2.48
 -10  -6 -10    0.76    2.95
 -10  -6 -10    8.14    3.37
  -6 -10 -10    9.65    3.82
  10  -6  10    7.00    3.88
  -6 -10 -10    3.48    3.30
 -10   6   8   16.24    2.93
 -10  -6  -8   21.29    3.54
  -6 -10  -8   24.90    4.44
   6 -10   8   16.66    1.93
  10  -6   8   18.20    4.27
 -10  -6  -8   19.12    3.67
 -10   6   6   52.58    3.99
 -10  -6  -6   48.84    4.08
   6 -10   6   45.55    2.77
 -10  -6  -6   44.43    4.91
  -6 -10  -6   52.65    5.65
  10  -6   6   49.65    5.33
  -6  10   6   50.16    3.57
 -10   6   4   33.05    2.74
 -10  -6  -4   34.99    4.35
 -10  -6  -4   31.76    3.02
   6 -10   4   42.25    3.76
  -6 -10  -4   39.29    5.03
  10  -6   4   29.68    4.16
   6 -10   4   30.15    2.62
  -6  10   4   34.55    3.42
 -10  -6  -2    1.16    1.40
  10  -6   2   -2.28    2.88
  -6 -10  -2    3.54    3.19
   6 -10   2    3.29    2.01
   6 -10   2   -1.10    1.95
  10  -6   2   -1.25    1.48
 -10  -6  -2    3.98    2.78
  10  -6   2   -0.39    0.61
  -6  10   2    0.23    2.35
  -6 -10   0   16.80    3.69
   6 -10   0   13.46    2.44
   6 -10   0   14.18    3.32
 -10   6   0   17.18    2.71
   6  10   0   17.75    2.59
 -10  -6   0   23.64    4.01
   6 -10   0   18.81    2.46
   6 -10   0   13.07    3.02
  10  -6   0   12.66    2.00
  -6  10   0   12.33    2.97
  10  -6   0   17.78    2.46
  10   6   0   16.25    2.13
  10  -6   0   14.48    3.31
 -10  -6   2    2.38    3.21
  10   6   2   -0.11    2.74
 -10   6  -2    1.08    2.32
  10  -6  -2   -2.02    2.38
   6  10   2    1.69    2.09
  10  -6  -2    2.95    2.00
   6 -10  -2    1.21    2.66
  -6 -10   2   -1.16    2.97
   6 -10  -2   -2.85    3.14
  -6  10  -2    1.50    2.57
  10  -6  -2   -1.89    3.11
  10   6   2   -1.62    1.59
  -6 -10   4   31.51    3.10
  -6 -10   4   37.08    4.77
   6 -10  -4   29.41    4.12
 -10   6  -4   34.97    4.27
  10   6   4   38.54    4.62
   6  10   4   33.63    3.66
   6 -10  -4   40.19    4.69
  -6  10  -4   34.47    4.41
 -10  -6   4   34.15    4.58
  10  -6  -4   36.95    4.06
  10  -6  -4   22.55    4.14
  10  -6  -6   45.98    5.25
  -6 -10   6   63.80    6.15
   6  10   6   56.97    4.92
   6 -10  -6   54.83    5.29
 -10   6  -6   51.94    5.34
  10   6   6   50.58    5.45
  -6  10  -6   43.61    3.63
   6 -10  -6   61.21    5.75
  10  -6  -6   55.08    5.10
 -10  -6   6   53.79    5.56
  -6  10  -6   47.29    5.35
 -10   6  -8   16.17    4.26
  10   6   8   11.80    4.00
 -10  -6   8   21.64    4.47
  -6  10  -8   29.24    5.11
   6 -10  -8   19.63    4.25
  -6 -10   8   19.57    4.32
  10  -6  -8   21.70    4.37
  10  -6  -8   17.84    4.43
   6 -10  -8   30.15    5.21
 -10   6 -10    0.32    2.88
 -10   6 -10    4.41    3.74
 -10  -6  10   10.86    4.06
  10   6  10    1.77    3.93
  -6 -10  10   -0.96    3.10
  -6  10 -10    5.69    3.59
   6 -10 -10   -3.38    3.58
  10  -6 -10    1.27    3.32
  10  -6 -12   18.14    4.51
 -10   6 -12   15.28    4.62
 -10  -6  12   16.41    4.68
 -10   6 -12   16.02    4.50
  -6 -10  12   17.65    4.23
  -6  10 -12   16.30    4.54
   6 -10 -12   24.13    5.09
  10  -6 -14    3.80    4.15
 -10  -6  14    2.82    3.83
 -10   6 -14    0.20    3.70
  -6  10 -14    4.17    3.80
  -6 -10  14   -1.60    3.60
 -10   6 -14   -0.99    3.69
  -6  10 -14    6.85    4.15
   6 -10 -14   14.12    4.85
  -6 -10  16    0.22    3.71
 -10   6 -16   -4.50    4.06
  -6  10 -16   -2.41    4.31
 -10   6 -16    6.19    4.20
  -6  10 -16   -1.18    3.97
   6 -10 -16    8.91    4.89
  10  -6 -16   -4.37    4.19
  -6  10 -18    0.27    3.88
 -10   6 -18   -0.36    4.30
 -10   7  19    2.57    4.38
 -10  -7 -19    0.38    4.23
 -10  -7 -19    1.64    4.22
  -7 -10 -19   -0.40    4.54
   7  10 -19    4.01    4.15
 -10   7  17   -2.33    3.85
 -10  -7 -17    3.23    3.86
  10   7 -17   -1.30    4.58
 -10  -7 -17    1.30    3.93
  -7 -10 -17    3.26    4.33
   7  10 -17    2.99    4.17
 -10   7  15   13.22    4.30
 -10  -7 -15    7.24    3.92
 -10  -7 -15    5.35    4.04
  -7 -10 -15   11.79    4.18
   7  10 -15   15.85    4.71
  10   7 -15    6.68    3.75
 -10   7  13   37.56    5.27
 -10  -7 -13   35.96    5.60
  -7 -10 -13   33.58    5.64
  -7 -10 -13   41.26    5.85
   7  10 -13   31.66    5.17
 -10  -7 -13   28.53    4.97
 -10   7  11   40.64    4.88
  -7 -10 -11   38.92    5.58
 -10  -7 -11   42.75    5.32
 -10  -7  -9    2.34    2.88
 -10   7   9    5.63    2.90
  -7 -10  -9    5.41    3.67
  10  -7   9   -2.47    3.55
 -10   7   7    1.47    2.15
  -7 -10  -7   -4.71    3.83
  10  -7   7    2.60    3.34
 -10  -7  -7    2.31    2.92
  -7  10   7    0.98    1.70
 -10   7   5    1.35    1.79
 -10  -7  -5    7.53    3.26
  10  -7   5    3.70    3.34
   7 -10   5    8.12    3.20
   7 -10   5    1.39    1.12
  -7  10   5   -0.04    1.87
  -7 -10  -5   -1.77    3.32
  10  -7   3   12.62    3.51
  -7 -10  -3    7.92    3.56
   7 -10   3    6.44    2.64
 -10   7   3    4.33    1.52
 -10  -7  -3    5.67    3.27
  -7  10   3    9.90    2.67
   7 -10   3    2.82    1.65
 -10  -7  -1   62.13    2.78
  10  -7   1   57.04    2.82
   7 -10   1   65.72    3.76
 -10   7   1   64.41    4.15
  10  -7   1   73.21    5.37
   7 -10   1   74.90    4.35
  -7  10   1   74.20    4.96
 -10  -7  -1   79.10    6.14
   7 -10   1   65.60    4.60
  10  -7   1   63.46    3.76
  -7 -10  -1   71.55    6.12
  10  -7  -1   59.67    3.52
 -10   7  -1   62.57    3.69
 -10   7  -1   70.35    4.92
 -10  -7   1   75.51    6.03
   7 -10  -1   73.35    4.17
   7  10   1   70.85    4.55
  -7  10  -1   61.94    5.03
  -7 -10   1   74.26    6.33
   7 -10  -1   66.74    4.99
  10  -7  -1   67.12    4.35
  10   7   1   70.11    5.47
   7 -10  -1   60.97    5.50
  10  -7  -1   64.79    5.94
  10   7   1   57.69    2.73
 -10  -7   3    7.53    3.16
  -7 -10   3    5.81    2.07
  10   7   3    5.77    2.98
  -7 -10   3    4.75    3.27
 -10   7  -3    1.35    2.75
   7  10   3    6.56    2.71
  -7  10  -3    6.33    3.01
   7 -10  -3    4.29    2.91
  10  -7  -3    2.66    2.54
  10   7   3    4.33    1.48
  10  -7  -3    4.85    3.36
   7 -10  -3    8.16    3.32
  -7 -10   5    0.57    3.23
 -10  -7   5    1.25    3.03
  10   7   5   -7.37    3.58
 -10   7  -5   -0.40    2.87
  10  -7  -5    1.18    2.96
   7  10   5    3.36    2.91
  -7  10  -5   -2.64    3.15
   7 -10  -5    0.04    3.17
  -7  10  -5   -0.47    2.06
  10  -7  -5    2.82    3.03
   7 -10  -5    5.24    3.23
  10  -7  -7    1.92    3.31
  -7 -10   7   -0.60    3.70
 -10   7  -7    4.17    3.01
  10   7   7   -0.63    3.51
   7  10   7    8.87    3.60
  -7  10  -7    0.15    3.43
 -10  -7   7    2.61    3.44
   7 -10  -7    0.21    3.17
  10  -7  -7    4.89    3.32
   7 -10  -7    1.18    3.21
  10  -7  -9    7.68    3.75
 -10   7  -9   -1.51    3.30
  10   7   9    3.17    3.45
 -10  -7   9    2.52    3.61
  -7  10  -9    0.95    3.47
  -7 -10   9    0.48    3.12
   7 -10  -9    9.30    3.65
  10  -7  -9   10.63    4.33
 -10  -7  11   40.29    6.04
 -10   7 -11   37.43    5.69
  10   7  11   37.81    5.73
  -7 -10  11   44.07    5.89
  -7  10 -11   49.55    6.27
 -10   7 -11   41.68    5.63
  10  -7 -11   48.33    6.00
   7 -10 -11   41.58    5.70
 -10   7 -13   28.69    5.76
 -10  -7  13   34.36    5.85
  -7 -10  13   29.97    5.28
 -10   7 -13   28.20    5.36
  -7  10 -13   35.55    5.88
   7 -10 -13   37.18    5.78
  10  -7 -13   33.33    5.80
 -10  -7  15    6.91    4.14
 -10   7 -15    6.69    4.77
  -7 -10  15   -0.25    3.74
  -7  10 -15   -2.53    3.64
 -10   7 -15   11.74    4.52
  10  -7 -15    8.94    4.62
  -7  10 -15    9.75    4.56
   7 -10 -15    1.22    3.95
  -7 -10  17   -0.46    4.17
  10  -7 -17    0.62    4.57
 -10   7 -17   -5.65    4.95
  -7  10 -17    1.67    4.53
 -10   7 -17   -5.94    4.66
  -7  10 -17   -3.37    4.56
   7 -10 -17   -2.35    4.53
 -10   8  18   -0.43    3.95
 -10  -8 -18   -2.74    4.32
 -10  -8 -18   -8.48    4.58
  -8 -10 -18   -0.43    4.48
   8  10 -18    8.28    4.58
 -10   8  16    3.81    4.10
 -10  -8 -16    3.62    4.08
  -8 -10 -16    1.24    4.10
 -10  -8 -16   -2.53    3.91
  -8 -10 -16    1.90    4.00
   8  10 -16    0.46    4.06
 -10   8  14    7.58    4.00
  10   8 -14    8.11    3.68
  -8 -10 -14    3.75    3.89
 -10  -8 -14    5.86    3.88
   8  10 -14    5.41    4.20
 -10   8  12   17.11    4.32
  -8 -10 -12   14.48    4.13
 -10  -8 -12   16.02    4.26
  -8 -10 -10   -5.23    3.71
 -10  -8 -10    2.29    3.21
 -10   8  10    2.65    2.78
  -8 -10  -8   19.24    3.99
  10  -8   8   28.58    4.62
 -10  -8  -8   27.23    4.67
 -10   8   8   24.64    3.55
  -8  10   6   40.09    2.88
   8 -10   6   49.60    4.85
 -10  -8  -6   43.83    5.33
  10  -8   6   30.90    4.44
  -8 -10  -6   41.73    5.58
 -10  -8  -4   12.18    3.43
  -8 -10  -4   15.82    3.92
  10  -8   4    8.19    3.30
   8 -10   4    9.40    2.87
  -8  10   4   14.04    2.68
  -8 -10  -2   11.93    3.62
  10  -8   2    9.04    3.08
 -10   8   2    9.67    2.34
   8 -10   2   11.85    2.76
   8 -10   2    7.41    1.78
  10  -8   2    6.40    2.06
  -8  10   2    8.55    2.54
 -10  -8  -2   11.47    3.96
 -10   8   2    8.84    1.59
 -10   8   0   50.23    4.24
   8 -10   0   43.26    5.27
   8  10   0   47.51    4.10
   8 -10   0   55.34    4.08
  10  -8   0   45.38    4.44
  10  -8   0   41.53    5.05
 -10  -8   0   52.61    5.45
   8 -10   0   50.08    4.47
  -8  10   0   45.88    4.34
  10  -8   0   43.34    3.58
  -8 -10   0   40.72    5.06
 -10  -8   2   10.84    3.68
  10  -8  -2    9.72    2.41
  10   8   2    7.62    3.14
   8  10   2    9.65    2.85
 -10   8  -2    9.69    3.09
  -8 -10   2    7.60    3.83
  10  -8  -2   14.69    3.90
  -8  10  -2   12.62    3.27
   8 -10  -2    7.34    3.03
  10  -8  -2   11.44    3.12
   8 -10  -2   14.20    3.62
 -10  -8   4   20.00    4.31
  -8 -10   4   15.65    4.05
  10   8   4   17.47    3.67
   8  10   4   12.11    3.28
 -10   8  -4    6.52    3.14
  -8  10  -4   16.57    4.10
   8 -10  -4    8.81    3.36
  10  -8  -4   11.34    3.32
  10  -8  -4   15.49    4.05
   8 -10  -4   14.46    3.67
  -8 -10   6   44.27    5.43
  10   8   6   44.90    5.23
 -10   8  -6   38.68    4.81
   8  10   6   35.04    4.31
  10  -8  -6   45.83    5.08
  -8  10  -6   33.88    4.42
   8 -10  -6   40.99    5.05
 -10  -8   6   40.45    5.27
  10  -8  -6   37.00    5.34
   8 -10  -6   40.87    5.23
  10  -8  -8   27.50    4.91
 -10   8  -8   12.74    3.78
  10   8   8   24.16    4.73
   8  10   8   33.62    4.90
  -8  10  -8   23.57    4.61
 -10  -8   8   21.94    4.37
  -8 -10   8   27.35    4.68
  10  -8  -8   33.96    4.76
   8 -10  -8   21.74    4.29
   8 -10  -8   28.54    5.05
  10  -8 -10    9.33    3.92
 -10   8 -10    3.02    3.46
 -10  -8  10    0.49    3.82
  10   8  10   -0.86    3.47
  -8  10 -10   -7.50    3.73
  -8 -10  10   -1.38    3.34
   8 -10 -10   -2.37    3.76
 -10  -8  12   19.17    4.94
 -10   8 -12   19.04    5.04
  -8 -10  12   15.58    4.59
  -8  10 -12   11.48    4.11
   8 -10 -12   14.02    4.62
  10  -8 -12   13.69    4.31
 -10  -8  14   -1.74    3.91
 -10   8 -14    4.85    4.43
  -8 -10  14    6.83    4.45
 -10   8 -14    3.55    4.51
  -8  10 -14    9.00    4.83
   8 -10 -14   11.49    4.88
  10  -8 -14    6.67    4.44
 -10  -8  16    0.03    4.41
  -8 -10  16   -0.62    4.06
 -10   8 -16   -2.03    4.02
  -8  10 -16   -2.31    4.00
 -10   8 -16    3.99    4.50
  -8  10 -16    0.56    4.08
   8 -10 -16   -4.33    4.20
  10  -8 -16    5.02    4.30
 -10   9  17    1.51    4.25
 -10  -9 -17    4.88    4.19
  -9 -10 -17   -2.49    4.83
 -10  -9 -17   -2.93    4.22
   9  10 -17    1.00    4.03
  -9  10  17    0.70    3.98
 -10   9  15   11.40    4.39
 -10  -9 -15    2.36    4.13
   9  10 -15   10.56    4.22
  -9 -10 -15    7.51    4.06
  10   9 -15    4.75    3.90
  -9 -10 -13    6.39    3.91
 -10  -9 -13   14.50    4.60
 -10   9  13   13.88    4.16
 -10  -9 -11    4.28    3.56
  -9 -10 -11    1.57    3.48
  -9 -10  -9   17.63    4.64
 -10  -9  -9   12.34    3.98
   9 -10   7   64.95    5.66
  10  -9   7   55.49    5.52
  -9 -10  -7   58.74    6.31
 -10  -9  -7   60.61    6.37
 -10  -9  -5   28.95    4.49
  -9 -10  -5   29.56    5.16
  10  -9   5   17.82    3.67
   9 -10   5   31.90    4.22
  -9 -10  -3    7.14    3.73
  10  -9   3   -0.64    2.88
 -10   9   3    0.03    1.80
   9 -10   3   -3.06    2.68
  -9  10   3    2.09    2.22
 -10  -9  -3   -0.84    3.33
 -10   9   1   69.20    4.76
   9 -10   1   65.15    3.46
  -9  10   1   66.18    4.91
  10  -9   1   72.57    5.44
   9 -10   1   65.63    4.90
  -9 -10  -1   64.67    6.17
   9 -10   1   60.73    4.50
  10  -9   1   61.27    4.22
 -10  -9  -1   55.71    5.83
 -10   9  -1   61.75    5.11
  -9  10  -1   70.16    5.53
   9 -10  -1   66.07    4.79
  10   9   1   73.78    5.61
   9  10   1   65.70    5.05
 -10  -9   1   76.45    6.63
  -9 -10   1   66.67    6.49
   9 -10  -1   64.71    4.96
  10  -9  -1   59.82    4.61
   9 -10  -1   59.97    6.24
  10  -9  -1   61.09    6.03
 -10  -9   3   -0.61    3.17
  -9 -10   3    1.90    3.20
  10   9   3   -0.79    2.82
   9  10   3    4.20    2.71
 -10   9  -3    1.58    3.16
  -9  10  -3   -1.27    3.16
   9 -10  -3    2.35    2.99
  10  -9  -3    2.30    2.77
  10  -9  -3    3.29    3.16
   9 -10  -3    7.93    3.72
  -9 -10   5   30.18    4.96
 -10  -9   5   26.39    4.55
  10   9   5   26.97    4.25
   9  10   5   27.28    4.28
 -10   9  -5   28.44    4.18
  -9  10  -5   26.87    4.20
   9 -10  -5   27.54    4.55
  10  -9  -5   27.87    4.30
  10  -9  -5   29.93    4.90
   9 -10  -5   29.70    4.86
  10  -9  -7   60.17    6.48
  10   9   7   55.85    5.74
   9  10   7   51.07    5.52
 -10   9  -7   62.24    6.03
  -9  10  -7   52.40    5.83
   9 -10  -7   58.07    6.03
  10  -9  -7   52.76    5.79
 -10  -9   7   51.29    5.98
  -9 -10   7   54.25    6.25
   9 -10  -7   55.56    6.12
 -10   9  -9   15.97    4.10
  10   9   9    9.98    4.15
   9  10   9   22.36    4.88
  -9  10  -9   10.71    4.23
 -10  -9   9   17.18    4.53
  -9 -10   9   12.31    4.05
   9 -10  -9   12.39    4.27
  10  -9  -9   11.87    4.22
  10  -9  -9   17.15    4.44
   9 -10  -9   11.08    4.19
 -10   9 -11    2.07    3.48
 -10  -9  11   -2.59    3.67
  -9 -10  11    6.20    3.96
  -9  10 -11    2.22    3.98
   9 -10 -11    1.70    3.69
  10  -9 -11    2.76    3.94
 -10  -9  13    5.83    4.51
  -9 -10  13   13.92    5.05
 -10   9 -13    6.14    4.33
  -9  10 -13    7.82    4.20
   9 -10 -13   18.39    4.99
  10  -9 -13    7.98    4.01
 -10  -9  15    3.48    4.04
  -9 -10  15    8.48    4.50
 -10   9 -15    6.43    4.86
 -10   9 -15    7.39    4.75
  -9  10 -15    9.77    4.76
   9 -10 -15    8.17    4.86
  10  -9 -15    3.98    4.41
 -10  10  18    5.16    4.85
 -10  10  16   -1.39    3.83
 -10 -10 -16    2.08    4.39
  10  10 -16   -4.08    4.36
 -10 -10 -14   13.04    4.64
  10  10 -14    8.34    4.23
 -10  10  14    2.80    3.88
 -10 -10 -12   16.32    4.73
 -10 -10 -10    3.55    3.37
  10 -10   8   23.91    4.57
 -10 -10  -8   12.07    4.12
 -10 -10  -6   30.17    4.95
  10 -10   6   30.59    4.33
 -10 -10  -4   10.52    3.94
  10 -10   4    4.40    3.19
  10 -10   2   25.63    3.81
 -10  10   2   29.13    3.44
 -10 -10  -2   31.91    5.33
 -10  10   0   93.04    5.86
  10  10   0   90.87    6.02
  10 -10   0   98.07    5.94
 -10 -10   0   92.45    7.20
  10 -10   0   89.57    5.31
  10 -10   0   90.04    7.39
 -10 -10   2   31.95    5.12
  10  10   2   32.03    4.49
 -10  10  -2   28.72    3.96
  10 -10  -2   24.47    3.85
  10 -10  -2   32.17    5.05
 -10 -10   4    1.46    3.31
  10 -10  -4   -6.74    3.66
  10  10   4    0.98    2.95
 -10  10  -4    2.89    3.22
  10 -10  -4    5.35    3.09
 -10 -10   6   27.00    4.78
  10 -10  -6   30.64    5.00
  10  10   6   29.25    4.69
 -10  10  -6   35.23    5.20
  10 -10  -6   30.73    4.64
  10 -10  -8   22.94    4.90
  10  10   8   14.27    4.05
 -10  10  -8   16.51    4.72
 -10 -10   8   21.99    4.86
  10 -10  -8   20.79    4.53
 -10  10 -10   -2.51    3.84
 -10 -10  10   -3.39    3.56
  10 -10 -10    2.07    4.05
 -10 -10  12   22.07    5.14
 -10  10 -12   13.47    4.96
  10 -10 -12   12.23    5.08
 -10 -10  14    9.16    4.82
 -10  10 -14    4.42    4.29
  10 -10 -14    5.42    4.27
  11   0  -1  136.58    5.25
 -11   0   1  155.19    6.38
 -11   0  -1  152.60    5.87
  11   0   1  152.35    5.56
  11   0  -1  142.70    4.68
   0 -11  -1  150.06    7.31
   0 -11   1  148.63    7.02
  11   0  -1  136.20    6.77
   0 -11  -1  141.15    5.43
  11   0  -3   -1.67    2.14
  11   0   3    2.42    2.40
  11   0  -3    2.58    2.58
  11   0  -3    3.64    1.57
 -11   0   3    0.23    2.30
  11   0   3    6.39    2.40
  11   0   3    1.35    2.64
   0 -11   3    9.47    3.06
   0 -11  -3   -3.58    2.84
   0 -11  -3    4.15    2.83
 -11   0  -3    0.32    1.85
   0 -11  -3    2.60    1.93
  11   0  -3    2.96    2.64
  11   0  -5   44.05    4.66
 -11   0  -5   46.56    3.33
 -11   0   5   47.25    4.66
 -11   0  -5   41.17    3.68
   0 -11  -5   36.52    2.15
   0  11  -5   39.01    2.31
  11   0   5   40.70    5.03
   0 -11   5   36.38    4.09
  11   0   5   37.29    2.34
   0 -11  -5   39.73    4.77
  11   0  -5   42.68    4.42
 -11   0  -7  105.24    6.16
   0 -11   7   91.41    5.90
   0 -11  -7   88.78    4.25
  11   0   7   98.75    7.37
   0  11  -7   87.42    4.26
 -11   0  -7  101.18    4.62
   0 -11  -7   91.87    6.86
   0  11  -7  103.96    7.44
  11   0  -7   98.55    6.63
 -11   0  -9   30.79    3.03
  11   0  -9   35.66    5.17
 -11   0  -9   35.16    4.56
   0  11  -9   29.41    4.84
  11   0   9   31.16    5.24
   0 -11  -9   29.29    5.01
   0 -11   9   32.65    4.22
  11   0 -11    4.17    3.92
  11   0  11   -7.05    4.12
   0 -11  11   -0.15    2.67
 -11   0 -11    1.23    1.98
   0 -11 -11    3.81    3.32
 -11   0 -11    0.45    2.88
   0  11 -11    5.78    3.51
  11   0 -13   20.92    4.75
 -11   0 -13   17.69    4.31
   0 -11  13   15.39    3.71
   0 -11 -13   16.97    4.82
   0  11 -13   14.98    4.58
  11   0 -15   -0.64    4.05
   0 -11  15    3.04    3.23
 -11   0 -15    6.66    3.97
   0  11 -15    6.45    4.38
   0 -11 -15    3.96    3.67
  11   0 -17   -5.77    4.82
 -11   0 -17    0.45    3.82
   0  11 -17    2.90    3.54
   0  11 -17    1.96    4.23
   0 -11 -17   -0.93    4.26
 -11   0 -19   -1.21    4.52
   0  11 -19    0.27    4.03
   0  11 -19    5.77    4.95
   1  11 -20    1.76    4.12
   1  11 -20   -1.66    4.31
  11   1 -18   -0.11    4.43
 -11  -1 -18    4.33    4.07
   1  11 -18   -4.39    4.23
   1  11 -18   -1.62    4.28
  -1 -11 -18   -1.00    4.23
  11   1 -16   -4.07    4.13
 -11  -1 -16    3.93    3.59
   1  11 -16   -0.38    3.44
  -1 -11 -16    5.99    3.94
   1  11 -16    0.21    3.89
  11   1 -14   23.44    5.14
 -11  -1 -14   23.95    4.74
   1 -11  14   15.02    3.58
  -1 -11 -14   21.53    4.64
   1  11 -14   25.17    5.29
 -11  -1 -12   19.05    3.10
  11   1 -12   24.93    5.20
 -11  -1 -12   22.49    4.16
   1 -11  12   18.20    3.77
  11  -1  12   21.92    4.91
  -1 -11 -12   23.33    4.85
   1  11 -12   26.04    5.16
   1  11 -10    0.11    3.56
  11   1 -10    3.66    3.67
 -11  -1 -10   -0.12    2.73
  11  -1  10   -1.00    3.68
 -11  -1 -10   -3.46    2.46
   1 -11  10   -1.25    2.74
  -1 -11 -10   -1.45    3.78
 -11  -1  -8   50.87    4.84
   1 -11   8   56.09    4.76
  11  -1   8   38.32    5.51
 -11  -1  -8   61.68    4.29
  -1 -11  -8   44.67    5.38
  11   1  -8   63.25    5.93
   1  11  -8   62.17    6.37
 -11  -1  -6   66.77    4.68
   1 -11   6   71.75    5.14
  -1 -11  -6   65.36    3.29
  11  -1   6   69.16    6.32
 -11  -1  -6   64.53    4.11
  11   1  -6   61.42    5.67
  -1 -11  -6   72.24    5.98
  11   1  -6   77.03    5.87
 -11   1   4    3.20    2.64
  11  -1   4    1.56    1.24
  11   1  -4    0.85    0.85
 -11  -1  -4    2.70    1.99
 -11  -1  -4    3.28    1.87
  11  -1   4    4.97    3.09
  11  -1   4    2.12    1.19
  -1 -11  -4    0.84    3.27
   1 -11   4   -2.18    2.49
  -1 -11  -4    1.41    2.96
  11   1  -4    2.56    2.71
  11   1  -2   75.57    4.54
 -11   1   2   81.92    4.82
  11  -1   2   79.64    4.20
  11   1  -2   73.75    2.83
  11  -1   2   74.01    4.48
 -11  -1  -2   84.21    4.71
  -1 -11  -2   81.11    5.76
  11  -1   2   82.06    6.24
   1 -11   2   73.19    5.02
  11   1  -2   82.90    5.29
  11  -1   2   78.03    3.67
  -1 -11  -2   87.99    4.17
  11  -1   0  261.18    5.95
 -11   1   0  273.10    7.75
   1 -11   0  251.56    8.81
 -11  -1   0  275.32    8.24
  11  -1   0  256.01    7.07
  11  -1   0  275.25    7.77
  11  -1   0  258.20    9.38
   1 -11   0  265.26    7.87
  11   1   0  259.95    8.74
  -1 -11   0  257.01    6.51
  11  -1   0  256.97    7.27
  -1 -11   0  252.21    9.31
  11  -1  -2   77.55    3.94
 -11   1  -2   79.87    4.01
 -11  -1   2   85.49    5.19
  11  -1  -2   78.42    3.96
  11  -1  -2   80.70    4.54
  11   1   2   78.07    6.11
   1 -11  -2   87.31    5.73
  -1 -11   2   79.33    5.59
  11  -1  -2   83.69    5.64
   1 -11  -2   81.58    4.67
  11  -1  -2   89.78    5.14
  11  -1  -4   -0.53    2.57
  11  -1  -4    0.19    1.85
 -11   1  -4   -0.27    2.05
  11  -1  -4    2.80    1.98
   1 -11  -4    0.53    0.53
 -11  -1   4   -0.72    2.60
  11   1   4    2.61    2.92
  11   1   4    0.93    1.79
   1 -11  -4   -0.19    2.92
  -1 -11   4    7.01    2.92
 -11   1  -4    0.05    1.59
  11  -1  -4    4.44    2.75
   1 -11  -4    1.27    2.23
 -11  -1   6   64.83    5.40
 -11   1  -6   71.33    5.19
  11  -1  -6   64.93    3.34
  -1 -11   6   62.60    5.28
  -1  11  -6   62.54    3.28
   1 -11  -6   66.27    3.23
 -11   1  -6   66.31    3.33
  11   1   6   57.91    5.73
  -1  11  -6   76.64    6.27
  11   1   6   54.17    3.15
   1 -11  -6   62.68    5.57
  11  -1  -6   64.19    5.45
  11  -1  -6   68.92    5.73
 -11   1  -8   51.26    4.96
  11  -1  -8   59.55    5.57
  -1 -11   8   58.34    5.39
 -11  -1   8   56.03    5.30
  -1  11  -8   48.75    3.82
 -11   1  -8   57.65    3.29
  11   1   8   58.69    6.05
   1 -11  -8   47.20    5.33
  -1  11  -8   52.27    5.79
 -11   1 -10    2.55    1.69
  11  -1 -10   -6.87    3.80
 -11   1 -10   -2.43    3.38
  11   1  10   -6.33    3.75
  -1 -11  10   -0.83    2.90
   1 -11 -10   -0.06    3.27
  -1  11 -10    1.14    3.43
  11  -1 -12   29.74    5.32
 -11   1 -12   17.90    4.30
  -1 -11  12   23.57    4.40
  11   1  12   18.47    4.86
   1 -11 -12   26.21    4.90
  -1  11 -12   22.89    5.06
  11  -1 -14   15.56    4.88
 -11   1 -14   23.24    5.00
  -1 -11  14   26.50    4.76
  -1  11 -14   18.38    4.87
   1 -11 -14   27.39    5.77
  11  -1 -16    7.41    4.34
 -11   1 -16   -4.67    3.87
  -1  11 -16    4.90    3.98
  -1  11 -16    7.82    4.43
   1 -11 -16    1.04    3.99
  -1 -11  16    1.97    3.70
  11  -1 -18    3.21    4.37
 -11   1 -18   -7.21    4.41
  -1  11 -18    6.33    4.24
  -1  11 -18   -2.81    4.26
   1 -11 -18   -5.65    4.43
   2  11 -21   -0.63    4.44
   2  11 -21    8.86    4.84
 -11  -2 -19    4.17    4.48
   2  11 -19    5.46    4.17
   2  11 -19   11.68    4.85
  -2 -11 -19    4.32    4.61
  11   2 -17    8.15    4.91
 -11  -2 -17    3.42    3.71
   2  11 -17   -0.66    3.38
  -2 -11 -17    4.04    4.20
   2  11 -17    7.79    4.23
  11   2 -15   13.77    4.62
 -11  -2 -15   13.05    4.16
  -2 -11 -15   11.64    4.47
   2  11 -15   -0.49    3.77
  11   2 -13   18.62    4.52
 -11  -2 -13   16.01    4.17
   2 -11  13   16.03    3.65
 -11  -2 -13   13.21    3.28
  -2 -11 -13   14.10    4.45
   2  11 -13   14.58    4.07
 -11  -2 -11   -2.97    2.96
  11   2 -11    2.89    3.78
   2 -11  11    1.11    2.72
  11  -2  11    7.96    4.29
  -2 -11 -11    5.82    3.68
   2  11 -11    0.02    3.56
 -11  -2 -11   -0.93    2.39
 -11  -2  -9   32.24    4.28
  11   2  -9   32.70    4.98
 -11  -2  -9   29.45    3.67
  11  -2   9   29.03    5.29
   2  11  -9   34.97    5.38
   2 -11   9   34.18    3.88
  -2 -11  -9   29.33    5.04
 -11  -2  -7  122.45    6.23
   2 -11   7  111.07    5.97
  11  -2   7  116.06    7.74
  -2 -11  -7  111.25    7.39
 -11  -2  -7  121.16    5.95
 -11  -2  -5   53.73    3.91
   2 -11   5   44.52    4.01
  11  -2   5   53.25    5.47
 -11  -2  -5   53.14    4.13
  -2 -11  -5   57.61    5.51
  -2 -11  -5   62.51    5.67
  11   2  -5   54.11    4.80
   2 -11   3    2.16    2.54
  11  -2   3    1.48    1.27
  11  -2   3   -1.56    1.53
 -11  -2  -3   -2.31    1.79
 -11  -2  -3    0.34    2.29
  11  -2   3   -1.08    2.79
  -2 -11  -3   -3.17    3.06
  11   2  -3   -3.37    2.44
 -11  -2  -1  117.87    5.87
  11   2  -1  119.42    5.91
  11  -2   1  110.13    4.65
   2 -11   1  106.56    5.95
  11  -2   1  110.54    4.47
  -2 -11  -1  100.38    6.39
  -2 -11  -1  108.85    3.95
 -11   2  -1  117.68    4.76
  11  -2  -1  108.42    5.07
 -11  -2   1  119.52    6.09
   2 -11  -1  107.79    5.99
  11  -2  -1  116.31    5.30
  -2 -11   1  104.67    6.39
  11  -2  -1  114.10    5.29
  -2 -11   1  107.29    3.89
  11  -2  -1  116.39    6.90
   2 -11  -1  108.62    5.61
  11   2   1  108.71    5.79
  11  -2  -3    1.23    2.54
  11  -2  -3   -0.87    2.07
 -11   2  -3    2.13    1.49
  11   2   3   -5.13    2.97
  11  -2  -3   -1.07    1.90
 -11  -2   3    2.34    2.81
   2 -11  -3    2.17    2.93
  -2 -11   3   -1.15    2.89
  11  -2  -3    0.88    2.50
   2 -11  -3    2.29    2.17
 -11  -2   5   56.07    5.05
 -11   2  -5   48.43    2.49
  11  -2  -5   53.47    4.66
  11  -2  -5   52.76    3.00
 -11   2  -5   53.92    4.38
  -2  11  -5   45.25    2.44
  -2 -11   5   51.34    4.95
   2 -11  -5   46.42    2.55
  11   2   5   53.08    5.48
  -2  11  -5   55.10    5.38
  11   2   5   51.57    3.61
   2 -11  -5   56.87    5.61
   2 -11  -5   49.47    4.63
  11  -2  -5   53.69    5.03
 -11  -2   7  116.92    7.35
 -11   2  -7  120.48    6.84
 -11   2  -7   97.00    3.22
  -2 -11   7  116.47    7.17
  -2  11  -7  113.76    4.77
  11   2   7  113.03    7.65
  -2  11  -7  119.62    7.79
   2 -11  -7  123.20    7.82
  11   2   7  100.99    4.60
  11  -2  -7  125.84    7.26
   2  11   7  114.05    5.53
  11  -2  -7  123.36    7.68
  11  -2  -9   31.30    4.90
 -11  -2   9   38.22    5.06
 -11   2  -9   30.98    4.29
 -11   2  -9   25.13    1.95
  11   2   9   39.08    5.72
   2 -11  -9   37.77    5.42
  -2 -11   9   22.30    4.05
  -2  11  -9   32.83    5.15
  11  -2 -11   -2.14    3.66
 -11   2 -11    1.34    3.07
  11   2  11    5.29    3.88
  -2 -11  11    1.82    2.96
   2 -11 -11   -1.93    3.33
  -2  11 -11   -2.43    3.43
  11  -2 -13   19.73    5.08
 -11   2 -13   18.92    4.46
  -2 -11  13   23.73    4.53
  11   2  13   35.27    5.86
  -2  11 -13   18.53    4.65
   2 -11 -13   27.06    5.44
  11  -2 -15    3.78    3.93
 -11   2 -15    6.72    3.72
  -2 -11  15    1.14    3.38
  -2  11 -15    8.89    4.09
  -2  11 -15    5.59    4.42
   2 -11 -15    5.57    4.12
  11  -2 -17    4.93    4.73
 -11   2 -17   -2.13    3.79
  -2  11 -17    1.31    3.66
  -2  11 -17    3.98    4.53
   2 -11 -17    3.91    4.37
 -11   2 -19   17.54    5.24
  -2  11 -19    0.27    4.54
   3  11 -20   12.98    4.82
   3  11 -20    2.99    4.03
  11   3 -18   -2.76    4.63
 -11  -3 -18    0.32    3.91
   3  11 -18   -3.85    4.00
  -3 -11 -18    0.02    4.39
   3  11 -18    1.25    4.11
  11   3 -16    4.58    4.16
 -11  -3 -16    5.72    3.86
  -3 -11 -16   10.17    4.47
   3  11 -16   -1.38    4.07
 -11  -3 -14    3.69    3.83
  11   3 -14   17.77    5.18
  -3 -11 -14   12.06    4.50
 -11  -3 -14   12.49    3.54
   3  11 -14    9.99    4.55
 -11  -3 -12   18.58    4.11
  11   3 -12   14.48    4.67
   3 -11  12   12.71    3.08
 -11  -3 -12   14.29    3.45
  11  -3  12   24.03    5.41
  -3 -11 -12   16.25    3.96
   3  11 -12   16.92    4.47
 -11  -3 -10   -5.54    2.90
   3 -11  10   -2.92    2.49
  11  -3  10    5.54    3.95
   3  11 -10    2.45    3.25
  -3 -11 -10   -0.37    3.29
 -11  -3 -10    4.01    2.41
 -11  -3  -8   55.19    4.87
   3 -11   8   55.26    4.29
  11  -3   8   51.66    5.70
  -3 -11  -8   52.14    5.68
 -11  -3  -8   59.11    4.79
 -11  -3  -6   60.86    4.48
   3 -11   6   57.79    4.33
  11  -3   6   52.04    5.31
  -3 -11  -6   57.04    5.56
  -3 -11  -6   64.04    6.00
 -11  -3  -6   60.73    4.84
 -11  -3  -4   10.77    2.20
  11  -3   4    3.81    2.99
 -11  -3  -4   12.74    2.79
  -3 -11  -4    5.90    2.99
   3 -11   4    8.35    2.39
  11   3  -4   14.50    3.21
 -11  -3  -2   35.47    2.39
 -11  -3  -2   33.01    3.78
  11  -3   2   34.12    4.36
   3 -11   2   37.30    3.66
  -3 -11  -2   31.86    4.33
  11   3  -2   32.81    3.64
  11  -3   2   30.03    2.27
  11  -3   2   28.68    2.36
 -11  -3   0  137.43    6.65
   3 -11   0  134.16    6.38
  11  -3   0  125.79    7.15
   3  11   0  124.51    3.21
  11  -3   0  118.25    4.86
  11  -3   0  130.98    5.08
  -3 -11   0  138.75    7.50
   3 -11   0  137.42    6.58
  11   3   0  134.08    6.00
  -3 -11   0  111.30    3.15
  11  -3  -2   32.79    3.46
   3 -11  -2   31.32    3.82
  11   3   2   31.40    4.42
  11  -3  -2   32.72    3.10
   3 -11  -2   35.06    4.36
 -11  -3   2   35.69    4.00
   3 -11  -2   35.78    3.87
  11  -3  -2   33.96    4.13
  -3 -11   2   33.47    4.51
  -3  11  -2   43.13    4.64
  11  -3  -4   12.72    3.14
  11   3   4   11.54    3.60
  -3 -11   4    7.42    3.25
 -11  -3   4   11.07    3.13
  11  -3  -4    7.00    1.89
   3 -11  -4    9.87    3.27
  -3  11  -4   13.61    3.76
  11  -3  -4    8.49    3.18
   3 -11  -4    8.63    2.87
 -11  -3   6   59.78    5.50
  -3 -11   6   60.89    5.43
 -11   3  -6   49.77    4.66
  -3  11  -6   53.92    3.24
  11  -3  -6   41.61    1.96
  11   3   6   58.39    6.05
  11   3   6   51.78    3.97
   3 -11  -6   52.76    5.74
  11  -3  -6   62.66    5.42
  -3  11  -6   57.27    5.66
  11  -3  -6   61.72    5.84
   3 -11  -6   66.78    5.53
 -11  -3   8   58.71    5.88
  11  -3  -8   54.95    5.46
 -11   3  -8   55.21    5.47
  -3 -11   8   52.00    5.58
  11   3   8   52.86    6.09
   3 -11  -8   49.30    5.67
  -3  11  -8   56.79    5.95
  11  -3  -8   59.05    6.11
  11  -3 -10    1.22    3.25
 -11  -3  10    0.73    3.39
 -11   3 -10   -4.47    3.18
  11   3  10    1.07    3.77
  -3 -11  10    2.78    3.05
   3 -11 -10   -1.08    3.69
  -3  11 -10   -1.29    3.47
  11  -3 -12   13.49    4.16
 -11   3 -12   12.94    4.12
  -3 -11  12   15.66    3.78
  11   3  12   13.98    4.71
  -3  11 -12   17.64    4.63
 -11  -3  12   21.44    4.67
   3 -11 -12   14.11    4.27
  11  -3 -14   12.83    4.62
 -11   3 -14    8.46    3.91
  -3 -11  14    8.54    4.10
  -3  11 -14   17.44    5.10
   3 -11 -14   13.73    4.40
  11  -3 -16    1.68    4.25
  -3 -11  16   -2.42    3.64
 -11   3 -16    5.49    4.08
  -3  11 -16   -0.42    3.45
  -3  11 -16    3.40    4.22
   3 -11 -16   -0.20    4.01
  11  -3 -18   11.59    5.24
 -11   3 -18   -1.24    3.99
  -3  11 -18    6.55    5.05
  -3  11 -18    3.09    4.75
   3 -11 -18    0.86    4.56
 -11   4  19   -0.03    4.70
 -11  -4 -19   12.21    4.96
  -4 -11 -19    4.23    4.91
   4  11 -19    5.97    4.63
 -11   4  17   -2.23    3.93
  11   4 -17   -1.84    4.23
 -11  -4 -17   -3.23    4.21
  -4 -11 -17   -6.61    4.33
   4  11 -17    4.60    4.23
 -11   4  15   -0.73    3.45
 -11  -4 -15   11.24    3.71
 -11  -4 -15    0.75    3.33
  11   4 -15    0.43    4.10
  -4 -11 -15    7.37    4.37
   4  11 -15    5.62    4.08
 -11   4  13   27.51    4.76
 -11  -4 -13   28.31    4.69
  11   4 -13   26.28    5.43
 -11  -4 -13   23.48    4.31
  -4 -11 -13   26.24    5.04
   4  11 -13   22.57    5.13
 -11  -4 -11   11.02    3.46
 -11   4  11   13.98    3.37
   4  11 -11   14.77    4.32
 -11  -4 -11   17.66    3.57
  11  -4  11   13.40    4.73
  -4 -11 -11   13.95    4.04
 -11   4   9    4.83    2.74
  -4 -11  -9    3.43    3.34
 -11  -4  -9    1.64    2.65
   4 -11   9    3.24    2.40
  11  -4   9    3.57    3.65
 -11  -4  -9    3.55    2.85
  -4 -11  -9   -0.31    3.45
 -11  -4  -7   36.28    3.93
 -11  -4  -7   37.14    4.38
  11  -4   7   33.92    5.02
   4 -11   7   34.55    3.36
  -4 -11  -7   33.63    5.00
 -11  -4  -5   26.43    3.00
   4 -11   5   23.81    3.21
  11  -4   5   22.49    4.10
  -4 -11  -5   22.80    4.43
 -11  -4  -5   21.39    3.50
  -4 -11  -3   -0.69    3.26
   4 -11   3   -1.89    2.33
 -11  -4  -3   -2.72    1.68
  11  -4   3    2.46    2.81
 -11  -4  -3   -0.16    2.68
  11  -4   3   -0.45    0.85
  11   4  -3   -2.62    2.35
   4 -11   1   54.05    4.19
 -11  -4  -1   56.21    4.80
  11  -4   1   54.85    5.15
   4  11  -1   51.77    2.83
  -4 -11  -1   50.49    5.28
  11  -4   1   47.98    2.88
  11  -4   1   46.80    3.01
  11   4  -1   53.52    4.04
  -4 -11   1   49.45    5.10
 -11  -4   1   55.30    4.87
  11  -4  -1   49.61    3.49
  11  -4  -1   59.76    4.09
   4  11   1   56.41    2.98
   4 -11  -1   55.48    4.51
  -4  11  -1   54.28    4.80
   4 -11  -1   52.81    4.69
  11  -4  -1   53.78    3.82
  11   4   1   53.90    3.96
   4 -11  -1   49.58    4.57
  11  -4  -1   46.76    5.13
  11  -4  -3   -3.10    2.43
  -4  11  -3   -1.29    3.00
  11   4   3    1.52    2.86
   4 -11  -3    3.74    3.08
  -4 -11   3    2.73    3.20
  11  -4  -3    1.73    1.87
 -11  -4   3   -3.40    2.90
  11  -4  -3    3.97    2.94
   4 -11  -3   -2.56    2.67
  11  -4  -5   25.33    3.97
  -4 -11   5   29.28    4.56
  11  -4  -5   24.13    4.14
  11   4   5   21.97    4.23
 -11  -4   5   24.03    3.83
   4 -11  -5   24.21    4.13
  11  -4  -5   16.36    1.61
  -4  11  -5   29.39    4.43
   4 -11  -5   20.66    3.74
  11  -4  -7   39.37    4.84
  -4 -11   7   30.71    4.58
 -11   4  -7   29.59    4.26
  11   4   7   25.01    4.62
 -11  -4   7   30.76    4.65
   4 -11  -7   24.39    4.42
  -4  11  -7   32.65    4.89
  11  -4  -7   24.33    4.48
   4 -11  -7   41.26    5.03
  11  -4  -9    2.48    3.44
 -11   4  -9   -1.84    3.28
 -11  -4   9    8.58    3.56
  11   4   9    3.84    3.60
  -4  11  -9    5.10    3.56
   4 -11  -9    2.98    3.48
  -4 -11   9    3.47    3.29
  11  -4 -11   15.43    4.29
 -11  -4  11   17.67    4.76
 -11   4 -11   21.01    4.31
  11   4  11   13.65    4.62
  -4 -11  11   15.74    4.06
  -4  11 -11   18.57    4.44
   4 -11 -11   20.46    4.69
  11  -4 -13   19.87    4.95
 -11   4 -13   19.89    4.51
  -4 -11  13   23.25    4.85
  -4  11 -13   29.97    5.36
   4 -11 -13   25.40    5.29
 -11  -4  13   26.37    5.37
  11  -4 -15   -0.47    4.51
 -11   4 -15    1.75    4.13
  -4 -11  15    2.32    3.46
  -4  11 -15    3.23    3.87
   4 -11 -15    3.48    4.33
  11  -4 -17   -5.13    4.69
  -4 -11  17    3.54    4.00
 -11   4 -17   -2.62    4.11
  -4  11 -17    3.48    4.47
  -4  11 -17    0.44    4.31
   4 -11 -17    2.66    4.02
 -11   5  18   11.56    4.88
 -11  -5 -18    2.46    4.08
  -5 -11 -18    2.92    4.44
   5  11 -18    4.76    4.34
 -11   5  16   -3.49    3.83
 -11  -5 -16    0.71    3.90
  11   5 -16   -2.25    4.15
 -11  -5 -16   -3.03    3.51
  -5 -11 -16   -2.16    4.24
   5  11 -16   -0.87    3.88
 -11   5  14   15.59    4.22
  11   5 -14    7.42    3.96
 -11  -5 -14    8.23    3.94
  -5 -11 -14    8.86    4.51
 -11  -5 -14   10.00    3.65
   5  11 -14    1.81    3.86
 -11   5  12   23.99    4.28
 -11  -5 -12   16.70    4.17
 -11  -5 -12   20.19    3.89
   5  11 -12   20.63    4.75
  -5 -11 -12   23.85    4.86
 -11   5  10    1.91    2.54
 -11  -5 -10    3.73    2.94
  11  -5  10    1.16    3.40
  -5 -11 -10    1.45    3.12
  -5 -11 -10    7.40    3.86
 -11  -5 -10    2.95    2.95
 -11   5   8   12.14    2.87
 -11  -5  -8   12.90    2.90
 -11  -5  -8   19.29    3.78
  11  -5   8    3.07    3.65
   5 -11   8   14.06    2.51
  -5 -11  -8    9.17    4.07
 -11  -5  -6   43.88    4.02
 -11  -5  -6   44.76    4.82
  11  -5   6   43.98    5.39
  -5 -11  -6   49.22    5.58
   5 -11   6   38.79    3.21
  -5 -11  -4   31.48    4.78
 -11  -5  -4   31.36    2.90
  11  -5   4   32.34    4.78
   5 -11   4   35.61    3.32
 -11  -5  -4   29.29    3.94
 -11  -5  -2   -0.73    1.16
  11  -5   2    0.32    0.95
  11  -5   2    6.12    3.12
   5 -11   2    2.29    2.08
 -11  -5  -2    3.73    2.80
  11  -5   2    1.61    1.39
  -5  11   2    1.87    2.47
  11   5  -2    4.42    2.43
  -5 -11   0    6.43    3.41
  11  -5   0    6.62    1.98
 -11  -5   0   -0.77    2.72
  11   5   0    1.97    1.99
   5  11   0    4.30    1.94
   5 -11   0    5.32    1.35
   5 -11   0    5.31    2.71
   5 -11   0    0.55    2.23
   5 -11   0    4.05    2.86
  11  -5   0    1.70    1.96
  11  -5   0    0.65    2.97
  -5  11   0   11.05    3.03
   5 -11  -2    2.76    2.61
   5 -11  -2    1.65    1.30
  -5  11  -2    3.52    2.72
  11   5   2   -2.99    3.23
   5  11   2    2.23    1.86
 -11  -5   2   -0.35    2.83
   5 -11  -2    3.40    3.02
  -5 -11   2    4.73    3.45
  11  -5  -2    2.14    1.90
  11  -5  -2    3.71    2.12
  11   5   2    2.72    2.13
  11  -5  -2   -1.92    3.18
  11  -5  -2    0.47    2.31
   5  11   4   40.76    3.73
  11   5   4   36.32    4.92
  -5 -11   4   41.96    5.00
   5 -11  -4   36.28    4.50
   5 -11  -4   39.20    4.63
 -11  -5   4   40.06    4.80
  -5  11  -4   41.88    4.78
  11  -5  -4   28.08    4.54
  11  -5  -4   30.98    3.91
  11  -5  -6   39.73    4.64
  -5 -11   6   41.95    5.35
 -11   5  -6   39.37    4.96
  11   5   6   46.42    5.65
 -11  -5   6   40.45    5.18
   5 -11  -6   48.85    5.19
  -5  11  -6   40.55    5.08
   5 -11  -6   43.63    5.12
  11  -5  -6   42.92    5.29
  11  -5  -8   13.31    3.76
 -11   5  -8   15.35    4.07
 -11  -5   8   11.97    3.76
  11   5   8   17.35    4.26
  -5  11  -8    8.01    3.78
   5 -11  -8   15.12    4.31
  -5 -11   8    9.21    3.29
  11  -5  -8   14.33    4.26
  11  -5 -10    6.29    3.78
 -11   5 -10    5.45    3.53
 -11   5 -10    2.20    3.19
 -11  -5  10    8.37    3.87
  11   5  10   -5.36    4.38
  -5 -11  10    3.87    3.31
  -5  11 -10   -0.16    3.62
   5 -11 -10   -0.27    3.38
  11  -5 -12   21.53    4.83
 -11   5 -12   15.82    4.79
 -11  -5  12   24.63    5.17
 -11   5 -12   17.68    4.16
  -5 -11  12   19.95    4.76
  11   5  12   17.34    5.22
  -5  11 -12   19.14    4.83
   5 -11 -12   18.71    4.62
  11  -5 -14    2.47    3.95
 -11   5 -14    2.32    3.89
 -11   5 -14    8.23    4.05
  -5 -11  14    3.62    3.80
  -5  11 -14   11.89    4.88
   5 -11 -14   11.96    4.35
 -11  -5  14    0.70    3.76
  -5 -11  16   -8.57    4.81
 -11   5 -16   -5.54    4.31
  -5  11 -16   -4.42    4.61
   5 -11 -16    5.70    4.36
  11  -5 -16    2.83    4.36
 -11   6  19    8.35    4.81
  -6 -11 -19    3.12    4.48
   6  11 -19    3.00    4.67
 -11   6  17    2.32    3.71
 -11  -6 -17    4.74    4.41
 -11  -6 -17    2.48    4.01
  -6 -11 -17    2.06    3.98
   6  11 -17   -4.09    4.30
 -11   6  15    7.89    3.98
 -11  -6 -15    6.50    3.90
  11   6 -15   10.25    4.92
  -6 -11 -15    9.10    4.22
 -11  -6 -15    9.56    4.43
   6  11 -15   15.49    4.76
 -11   6  13   32.91    4.90
 -11  -6 -13   37.56    5.27
 -11  -6 -13   37.88    5.46
  -6 -11 -13   35.89    6.02
   6  11 -13   40.34    6.12
 -11   6  11   43.21    5.13
 -11  -6 -11   51.04    5.79
 -11  -6 -11   44.34    5.06
  11  -6  11   40.37    5.89
  -6 -11 -11   42.07    5.84
  -6 -11 -11   46.15    6.03
 -11   6   9    7.50    2.85
 -11  -6  -9   15.35    3.34
  -6 -11  -9    3.90    3.35
  11  -6   9    3.78    3.48
 -11  -6  -9    7.58    3.13
 -11   6   7    2.91    2.36
 -11  -6  -7    4.49    2.45
 -11  -6  -7    7.01    3.43
  11  -6   7    1.05    3.50
  -6 -11  -7   -0.30    3.47
 -11  -6  -5   -3.46    3.31
  -6 -11  -5    1.46    3.55
 -11   6   5    0.26    1.92
   6 -11   5   -0.66    1.76
 -11  -6  -5    4.36    2.12
  11  -6   5    6.73    3.63
  -6  11   5    0.55    2.10
   6 -11   3   18.48    2.65
 -11  -6  -3   19.76    2.33
  11  -6   3   23.68    4.26
  -6 -11  -3   16.76    4.02
  11  -6   3   13.39    1.46
 -11  -6  -3   20.27    4.05
  -6  11   3   18.41    3.07
   6 -11   1  108.90    5.20
 -11  -6  -1   79.08    2.43
   6  11  -1  102.99    4.81
  11  -6   1  105.15    6.62
 -11  -6  -1  110.77    6.97
   6 -11   1  101.78    4.25
  -6  11   1  104.03    5.95
  11  -6   1  100.82    4.39
  -6 -11  -1  105.88    7.23
  11  -6  -1   99.88    4.55
 -11  -6   1   94.17    6.62
  11   6   1  108.74    6.86
   6 -11  -1  103.23    4.18
   6  11   1  107.43    5.00
  -6  11  -1  105.30    6.37
  -6 -11   1  111.34    7.38
   6 -11  -1  102.86    6.34
  11  -6  -1  107.13    5.34
  11  -6  -1   99.30    7.10
   6 -11  -1   98.95    6.64
  11   6   1   99.29    4.36
 -11   6  -3   13.10    3.33
  11   6   3   17.72    3.86
   6  11   3   21.65    3.19
  -6 -11   3   23.36    4.23
 -11  -6   3   20.74    4.23
   6 -11  -3   22.56    4.08
  -6  11  -3   20.97    3.75
  11   6   3   15.09    2.28
  11  -6  -3   23.70    3.60
  11  -6  -3   17.11    3.85
   6 -11  -3   16.97    3.77
  -6 -11   5    1.27    3.10
 -11   6  -5    1.49    3.05
  11   6   5   -1.19    3.23
   6  11   5    6.76    2.94
   6 -11  -5   -2.27    3.33
  -6  11  -5   -4.57    3.48
 -11  -6   5   -0.96    3.13
  11  -6  -5    0.49    3.18
  11  -6  -5   -0.86    2.83
   6 -11  -5   -0.76    3.23
  -6 -11   7    1.08    3.40
 -11   6  -7   -0.56    2.98
   6 -11  -7   -1.84    3.36
  11   6   7   -1.19    3.65
 -11  -6   7   -0.68    3.17
  -6  11  -7    0.35    3.15
   6 -11  -7    1.22    3.22
  11  -6  -7    6.16    3.20
  11  -6  -7    1.64    3.49
 -11   6  -9    4.15    3.34
 -11  -6   9   13.24    4.32
  11   6   9    7.11    3.83
  -6  11  -9    6.95    3.77
  -6 -11   9    8.75    3.54
   6 -11  -9    3.83    3.85
  11  -6  -9    9.65    3.71
  11  -6 -11   41.08    5.68
 -11   6 -11   42.46    5.69
 -11  -6  11   36.01    5.65
 -11   6 -11   41.23    5.81
  11   6  11   37.96    6.12
  -6 -11  11   39.04    5.42
  -6  11 -11   40.55    6.27
   6 -11 -11   41.99    6.06
 -11  -6  13   40.67    6.43
 -11   6 -13   42.67    6.37
 -11   6 -13   26.17    5.35
  -6 -11  13   34.31    5.84
  -6  11 -13   31.51    5.65
   6 -11 -13   40.41    6.00
  11  -6 -13   43.71    6.27
 -11   6 -15   16.90    5.34
  -6 -11  15   11.34    4.78
 -11   6 -15   14.52    5.05
  -6  11 -15   16.96    5.33
   6 -11 -15    8.45    4.13
  11  -6 -15   12.24    4.70
 -11  -6  15    7.81    4.73
  -6 -11  17   -5.26    4.66
 -11   6 -17   -2.66    4.19
  -6  11 -17   -0.09    4.13
  11  -6 -17    3.91    4.51
 -11   7  18    1.71    4.33
 -11  -7 -18    4.20    4.62
 -11  -7 -18    1.85    4.37
  -7 -11 -18    0.00    4.50
   7  11 -18   -5.08    5.04
 -11   7  16   -0.88    3.74
 -11  -7 -16    4.78    4.26
  11   7 -16   -2.66    4.61
 -11  -7 -16   -5.15    3.82
  -7 -11 -16   -3.78    4.42
   7  11 -16    1.77    3.84
 -11   7  14    6.47    3.55
 -11  -7 -14   -2.97    3.62
  -7 -11 -14   -0.08    3.85
  -7 -11 -14   -2.20    3.91
 -11  -7 -14   -3.27    3.77
   7  11 -14    7.39    4.24
  -7 -11 -12    3.19    3.98
 -11   7  12    2.66    3.17
 -11  -7 -12    5.19    3.26
 -11  -7 -12   -1.79    3.53
 -11   7  10    5.19    2.83
  -7 -11 -10    5.49    3.84
 -11  -7 -10    8.38    3.18
  11  -7  10   14.03    4.53
 -11  -7 -10    5.32    3.54
 -11   7   8   71.13    5.17
 -11  -7  -8   72.04    5.31
  -7 -11  -8   78.72    7.07
  11  -7   8   71.78    6.61
 -11  -7  -8   76.74    6.60
 -11   7   6  100.40    5.28
  -7 -11  -6  104.00    7.72
 -11  -7  -6   96.97    5.36
  11  -7   6   98.61    7.18
  -7  11   6   99.69    4.82
 -11  -7  -6  114.28    7.44
 -11   7   4   37.76    2.85
 -11  -7  -4   41.34    3.23
   7 -11   4   37.86    2.86
   7 -11   4   48.22    4.12
  11  -7   4   43.34    5.02
  -7 -11  -4   44.82    5.26
  -7  11   4   38.37    3.68
 -11  -7  -4   38.61    4.78
 -11  -7  -2   -0.03    1.36
  -7 -11  -2   -2.25    3.27
  11  -7   2    4.60    3.09
   7 -11   2   -1.48    1.98
   7 -11   2   -1.26    2.15
 -11  -7  -2    1.07    3.17
  11  -7   2    2.21    1.70
  -7  11   2    0.86    2.48
 -11   7   0   20.65    3.17
  11  -7   0   21.89    3.81
   7 -11   0   23.09    3.06
 -11  -7   0   25.53    4.47
   7  11   0   18.26    2.83
   7 -11   0   22.22    2.85
   7 -11   0   18.59    3.43
  -7  11   0   22.86    3.81
  11  -7   0   26.30    3.15
  11  -7   0   23.00    4.41
   7 -11   0   21.53    4.14
  -7 -11   0   23.54    4.56
 -11  -7   2    7.80    3.76
   7 -11  -2    2.09    1.94
 -11   7  -2    0.80    2.60
  11   7   2    2.41    3.19
   7  11   2    3.03    2.48
  -7 -11   2    0.48    3.33
   7 -11  -2    7.50    3.10
  -7  11  -2    4.35    2.83
  11  -7  -2    1.18    2.58
  11  -7  -2    5.03    3.55
   7 -11  -2    1.82    2.97
  11   7   2   -0.49    1.44
  -7 -11   4   32.94    5.00
 -11   7  -4   41.75    4.64
  11   7   4   37.47    4.96
   7  11   4   43.43    4.11
  -7  11  -4   45.27    5.20
   7 -11  -4   33.98    4.45
  11  -7  -4   43.83    4.43
 -11  -7   4   36.48    4.99
  11  -7  -4   46.31    5.57
   7 -11  -4   38.19    4.85
 -11  -7   6  103.06    7.44
  -7 -11   6   96.96    7.39
 -11   7  -6   99.24    7.21
  -7  11  -6  103.42    7.45
  11   7   6   93.19    7.12
   7  11   6   98.64    6.04
   7 -11  -6  108.88    7.47
  11  -7  -6  102.71    6.66
  11  -7  -6  104.03    7.53
   7 -11  -6  104.85    7.46
 -11  -7   8   76.67    6.84
  -7 -11   8   71.52    6.95
 -11   7  -8   79.77    6.89
  -7  11  -8   74.31    6.85
  11   7   8   66.67    6.41
  11  -7  -8   59.92    6.25
   7 -11  -8   76.63    6.88
  11  -7  -8   72.00    6.29
   7 -11  -8   86.23    7.24
 -11   7 -10    6.40    3.92
 -11  -7  10    5.88    3.97
  11   7  10    8.71    4.10
  -7  11 -10    8.35    4.09
  -7 -11  10    8.56    4.08
   7 -11 -10   14.11    4.28
  11  -7 -10    8.39    3.93
 -11   7 -12    3.36    3.76
 -11  -7  12    2.05    3.80
 -11   7 -12    4.13    4.08
  -7 -11  12   -2.18    3.97
  -7  11 -12    4.87    4.06
   7 -11 -12    8.17    4.30
  11  -7 -12    4.38    3.77
 -11  -7  14    3.59    3.97
  11  -7 -14    1.22    4.21
 -11   7 -14    6.01    4.01
 -11   7 -14    1.99    3.86
  -7 -11  14   -2.11    3.83
  -7  11 -14    4.65    4.18
   7 -11 -14   -3.95    4.35
  -7 -11  16    2.59    4.10
 -11   7 -16   -2.48    4.14
 -11   7 -16   -0.98    4.30
  -7  11 -16    2.80    4.67
  11  -7 -16   -3.41    4.38
   7 -11 -16    0.80    4.31
 -11  -7  16   -4.98    4.64
 -11   8  17   -1.23    3.89
 -11  -8 -17   -1.77    4.39
 -11  -8 -17   -4.76    4.33
  -8 -11 -17   -3.02    4.76
   8  11 -17   -5.11    4.39
 -11   8  15   11.86    4.46
 -11  -8 -15    5.20    4.08
  -8 -11 -15   12.59    4.71
 -11  -8 -15    5.48    4.20
   8  11 -15   10.57    4.75
 -11   8  13   23.76    4.68
 -11  -8 -13   13.27    4.26
 -11  -8 -13   24.90    5.25
   8  11 -13   21.63    5.05
  -8 -11 -13   28.37    5.27
 -11   8  11   11.48    3.65
 -11  -8 -11   14.37    3.80
  -8 -11 -11   13.96    4.51
 -11  -8 -11   19.52    4.81
 -11   8   9   -1.10    2.38
  -8 -11  -9    5.59    3.59
  11  -8   9   -5.66    3.59
 -11  -8  -9   -4.38    3.56
 -11   8   7   24.35    3.25
 -11  -8  -7   23.47    4.50
  11  -8   7   25.22    4.82
  -8 -11  -7   24.73    4.67
 -11   8   5    6.30    2.00
 -11  -8  -5   12.99    3.84
  11  -8   5    7.00    3.31
   8 -11   5   13.91    3.31
  -8 -11  -5    8.49    3.88
  -8  11   5    5.35    2.03
 -11  -8  -3   12.30    2.13
  -8 -11  -3   18.37    4.62
  11  -8   3    3.77    2.87
   8 -11   3   13.36    3.06
  -8  11   3    8.49    2.57
 -11  -8  -3    8.54    3.55
   8 -11   1   97.38    4.62
 -11   8   1   88.70    5.09
   8  11  -1   88.69    5.38
  11  -8   1   86.66    6.14
  -8  11   1   94.63    5.83
   8 -11   1  101.73    5.27
 -11  -8  -1   94.74    6.92
  11  -8   1   85.94    4.53
  -8 -11  -1  101.73    7.46
 -11   8  -1   96.27    5.92
 -11  -8   1  104.81    7.53
  11   8   1   93.83    6.46
   8 -11  -1   95.84    4.93
  -8  11  -1   92.61    6.13
   8  11   1  106.93    5.72
  -8 -11   1   99.19    7.52
   8 -11  -1   94.97    6.12
  11  -8  -1   90.32    5.30
  11  -8  -1   87.15    7.25
   8 -11  -1  104.10    7.48
 -11  -8   3    9.41    3.30
  -8 -11   3   12.55    3.68
  11   8   3   10.54    3.55
 -11   8  -3   11.41    3.29
   8  11   3    8.72    2.85
  -8  11  -3   10.60    3.35
   8 -11  -3   10.03    3.56
  11  -8  -3    5.33    2.83
  11  -8  -3    7.31    3.50
   8 -11  -3    9.10    3.70
  -8 -11   5    1.15    3.35
  11   8   5    6.36    3.48
 -11   8  -5    3.21    2.92
   8  11   5    2.64    2.66
  -8  11  -5    8.20    3.41
   8 -11  -5    7.77    3.56
  11  -8  -5    7.11    2.89
 -11  -8   5   -0.76    3.29
  11  -8  -5    8.20    3.27
   8 -11  -5    9.76    3.58
 -11   8  -7   20.82    4.59
  11  -8  -7   23.33    4.28
  11   8   7   19.78    4.32
  11  -8  -7   17.96    4.56
   8  11   7   18.81    3.78
  -8  11  -7   19.67    4.39
 -11  -8   7   17.18    4.08
   8 -11  -7   25.10    4.54
  -8 -11   7   18.49    4.39
   8 -11  -7   12.42    4.05
  11  -8  -9    4.64    3.34
 -11   8  -9    1.40    3.29
  11   8   9   -2.26    3.55
 -11  -8   9    2.92    3.72
  -8  11  -9    3.29    3.78
  -8 -11   9   -2.46    3.51
   8 -11  -9   -4.71    3.62
  11  -8  -9   10.68    4.58
 -11   8 -11   17.51    4.67
 -11  -8  11   16.46    4.41
  11   8  11   12.34    4.82
  -8 -11  11   14.54    4.33
  -8  11 -11    4.71    4.26
   8 -11 -11   12.84    4.39
  11  -8 -11   17.74    4.56
  11  -8 -13   20.06    5.04
 -11  -8  13   24.86    5.60
 -11   8 -13   22.24    5.47
  -8 -11  13   19.30    5.38
  -8  11 -13   23.91    5.56
   8 -11 -13   25.92    5.76
 -11  -8  15   10.50    4.94
 -11   8 -15    7.42    4.38
  -8 -11  15    1.14    4.23
  11  -8 -15    8.15    4.77
 -11   8 -15    3.47    4.30
  -8  11 -15    7.59    4.75
   8 -11 -15    3.17    4.15
 -11   9  18   -3.15    4.70
 -11   9  16    6.85    4.38
 -11  -9 -16    4.34    4.33
  -9 -11 -16   -3.84    4.87
 -11  -9 -16   -5.15    4.87
   9  11 -16   -0.52    4.06
  -9 -11 -14    5.48    4.31
 -11   9  14    5.39    4.19
 -11  -9 -14   16.84    4.49
 -11  -9 -14    0.99    3.94
   9  11 -14    6.97    3.86
  11   9 -14    7.63    4.11
 -11   9  12   15.48    3.97
 -11  -9 -12   15.13    4.78
  -9 -11 -12   13.10    4.62
 -11   9  10   -3.42    2.95
  -9 -11 -10    2.58    3.86
 -11  -9 -10    5.24    3.43
 -11   9   8   11.03    3.24
 -11  -9  -8   14.83    4.11
  11  -9   8   21.67    4.55
  -9 -11  -8   13.29    4.11
 -11  -9  -6   26.03    4.78
  11  -9   6   39.85    5.13
   9 -11   6   37.69    4.63
  -9 -11  -6   39.09    5.66
  -9 -11  -4    7.15    3.60
  11  -9   4    7.30    3.34
   9 -11   4    5.89    2.96
  -9  11   4    9.04    2.37
 -11  -9  -4    4.27    3.11
 -11   9   2    4.13    2.16
  11  -9   2    1.46    2.79
   9 -11   2    3.58    2.41
  -9  11   2    2.57    2.43
 -11  -9  -2    6.84    3.56
  -9 -11  -2    3.85    3.62
  11  -9   0   27.95    5.11
  11   9   0   30.25    4.45
  11  -9   0   32.41    4.10
   9  11   0   29.30    3.65
   9 -11   0   37.30    3.78
 -11   9   0   28.47    3.69
 -11  -9   0   31.10    5.04
  -9  11   0   41.33    4.39
   9 -11   0   31.22    3.88
  11  -9   0   26.05    3.33
  -9 -11   0   32.60    5.07
   9 -11   0   31.99    3.11
   9 -11   0   29.10    4.72
 -11  -9   2    3.51    3.34
   9 -11  -2   14.58    2.84
  11  -9  -2    3.46    3.03
  11   9   2    9.67    3.22
   9  11   2    5.98    2.77
  -9 -11   2    2.42    3.07
 -11   9  -2    2.95    2.58
  -9  11  -2    4.25    2.78
   9 -11  -2    9.90    3.09
  11  -9  -2    3.78    2.58
   9 -11  -2    9.89    3.66
 -11  -9   4    7.78    3.40
  -9 -11   4    6.61    3.90
  11   9   4    8.97    3.50
   9  11   4   11.67    3.21
 -11   9  -4   11.41    3.45
  -9  11  -4   16.06    3.92
   9 -11  -4    9.12    3.25
  11  -9  -4   13.65    3.49
  11  -9  -4    9.81    3.68
   9 -11  -4    7.27    3.87
  -9 -11   6   31.95    5.39
   9 -11  -6   31.26    5.03
  11   9   6   29.04    4.63
 -11   9  -6   33.46    5.00
   9  11   6   32.43    4.62
  -9  11  -6   27.38    4.78
   9 -11  -6   25.44    4.52
 -11  -9   6   33.72    5.30
  11  -9  -6   29.44    4.28
  11  -9  -6   29.42    4.99
  11  -9  -8   17.06    4.73
 -11   9  -8   14.63    4.34
  11   9   8   13.14    4.26
   9  11   8   16.96    4.55
  -9  11  -8   15.07    4.25
 -11  -9   8   16.04    4.53
   9 -11  -8    5.00    3.92
  -9 -11   8   14.92    4.31
  11  -9  -8   14.03    4.17
   9 -11  -8   10.80    4.23
 -11   9 -10    1.82    3.60
  11   9  10    0.30    3.91
 -11  -9  10   -3.18    3.77
  -9  11 -10   -2.38    3.53
  -9 -11  10    3.08    3.79
   9 -11 -10   -0.88    3.49
  11  -9 -10   -0.59    3.76
 -11  -9  12   15.67    5.05
 -11   9 -12   13.08    4.76
  -9 -11  12    9.86    4.55
  -9  11 -12   11.33    4.78
  11  -9 -12    2.56    3.93
   9 -11 -12   16.40    4.97
 -11  -9  14    1.33    4.29
  -9 -11  14    3.56    4.18
 -11   9 -14    2.34    4.07
  11  -9 -14    3.17    4.25
  -9  11 -14    8.42    4.51
   9 -11 -14    8.32    4.67
 -10  11  17    5.02    4.41
 -11  10  17    8.52    4.83
 -11  10  15   -2.92    3.66
 -11 -10 -15    9.28    4.92
 -10 -11 -15    3.86    4.29
  10  11 -15    0.17    4.03
 -11  10  13    4.35    3.47
 -11 -10 -13    8.84    4.40
 -10 -11 -13    4.31    3.88
 -10 -11 -11   -4.22    4.32
 -11 -10 -11    0.56    3.53
 -11  10  11    1.85    2.81
 -11 -10  -9   14.30    4.57
 -10 -11  -9    9.98    4.08
 -11 -10  -7   46.62    5.95
 -10 -11  -7   47.79    6.29
  11 -10   7   48.42    5.44
  10 -11   7   41.52    5.26
 -11 -10  -5   28.81    5.01
 -10 -11  -5   38.28    5.68
  11 -10   5   41.50    5.14
  10 -11   5   21.74    3.87
  11 -10   3   -6.46    3.19
  10 -11   3   -2.42    2.92
 -11 -10  -3    3.45    3.34
 -10 -11  -3    3.09    3.59
  11  10  -1   28.61    4.23
  10  11  -1   28.50    3.79
  11 -10   1   32.05    4.25
  10 -11   1   36.25    4.19
 -11  10   1   26.48    3.59
  10 -11   1   24.55    3.34
 -10  11   1   25.41    3.70
 -11 -10  -1   36.56    5.47
 -10 -11  -1   24.18    4.57
  11 -10   1   27.76    4.94
  10 -11   1   27.21    5.05
 -11 -10   1   27.69    4.82
  11 -10  -1   28.08    4.00
  10 -11  -1   25.18    3.46
  11  10   1   30.62    4.60
  10  11   1   30.75    4.03
 -10 -11   1   34.95    5.26
 -11  10  -1   29.99    4.15
 -10  11  -1   31.61    4.51
  10 -11  -1   24.64    3.85
  11 -10  -1   31.63    3.92
  11 -10  -1   29.62    5.15
  10 -11  -1   32.16    5.25
 -11 -10   3    7.44    3.85
 -10 -11   3   -4.35    3.49
  11  10   3    0.70    3.16
  10  11   3    1.44    2.66
 -11  10  -3    3.51    2.80
 -10  11  -3   -3.40    3.08
  10 -11  -3    1.67    3.03
  11 -10  -3   -1.86    2.93
  10 -11  -3    1.21    3.25
  11 -10  -3   -0.95    3.21
 -10 -11   5   29.17    5.10
  11  10   5   32.18    4.97
  10  11   5   28.50    4.42
 -11  10  -5   34.03    4.91
 -10  11  -5   30.30    5.02
  10 -11  -5   33.37    4.89
  11 -10  -5   30.75    4.33
  11 -10  -5   31.04    5.31
  10 -11  -5   29.80    5.14
 -11 -10   5   29.94    5.39
  11  10   7   39.69    5.51
 -11  10  -7   39.63    5.72
  10  11   7   33.73    5.17
 -10  11  -7   38.44    5.48
 -11 -10   7   53.69    6.54
  10 -11  -7   46.56    5.64
  11 -10  -7   43.31    5.17
 -10 -11   7   46.77    6.00
  11 -10  -7   40.33    5.88
  10 -11  -7   30.22    5.21
 -11  10  -9   14.80    4.36
  11  10   9   11.84    4.47
  10  11   9   10.10    4.38
 -10  11  -9   13.29    4.47
 -11 -10   9   12.43    4.33
 -10 -11   9    9.38    4.51
  10 -11  -9   12.50    3.94
  11 -10  -9   11.72    4.49
  11 -10  -9   13.52    5.12
  10 -11  -9   19.50    5.27
 -11  10 -11   -1.69    4.26
 -11 -10  11   -4.51    4.40
 -10  11 -11    3.51    4.41
 -10 -11  11   -0.45    3.75
  10 -11 -11    1.74    4.04
  11 -10 -11    3.64    3.57
 -11 -10  13    7.59    4.25
 -10 -11  13    2.52    4.27
 -11  10 -13    0.77    4.12
 -10  11 -13    5.14    4.86
  11 -10 -13    0.54    3.95
  10 -11 -13   11.40    4.34
  11 -10 -15   11.04    5.73
 -11 -11 -14   11.55    5.01
 -11 -11 -12    8.72    4.41
 -11 -11 -10   -0.09    3.79
 -11 -11  -8   31.32    5.58
 -11 -11  -6   22.52    4.93
  11 -11   6   22.27    4.28
  11 -11   4    4.14    3.22
 -11 -11  -4   -3.37    3.71
  11 -11   2   41.69    4.72
 -11 -11  -2   53.17    6.27
 -11  11   0  111.44    6.87
  11  11   0  103.68    7.00
  11 -11   0  109.22    6.63
 -11 -11   0  111.58    8.54
  11 -11   0  121.28    9.01
 -11 -11   2   44.00    6.00
  11 -11  -2   41.51    4.56
  11  11   2   42.66    4.90
 -11  11  -2   46.73    5.10
  11 -11  -2   48.49    4.84
  11 -11  -2   39.92    5.74
 -11 -11   4    2.04    3.65
  11  11   4   -1.83    2.92
 -11  11  -4   -1.58    3.63
  11 -11  -4    1.53    3.10
  11 -11  -4   -2.57    3.49
  11  11   6   32.06    5.14
 -11  11  -6   28.85    4.66
  11 -11  -6   36.99    5.80
  11 -11  -6   34.23    5.35
 -11 -11   6   37.60    5.64
  11  11   8   29.44    5.35
 -11  11  -8   31.45    5.51
 -11 -11   8   24.36    5.31
  11 -11  -8   35.66    5.37
  11 -11  -8   30.73    6.04
 -11  11 -10   -3.11    4.19
 -11 -11  10   -0.71    3.70
  11 -11 -10    2.55    3.96
 -11 -11  12   11.35    5.26
 -11  11 -12    7.08    4.19
  11 -11 -12    4.13    4.33
  11 -11 -14    0.43    4.49
  12   0   0  230.78    6.60
 -12   0   0  263.16    8.17
  12   0   0  255.41    6.82
  12   0   0  245.84    9.37
   0 -12   0  253.58    7.48
   0 -12   0  245.26    9.44
  12   0  -2   87.77    4.76
 -12   0   2   97.08    5.87
  12   0   2   81.76    4.73
 -12   0  -2   91.37    4.76
  12   0  -2   91.64    3.85
   0 -12  -2   93.59    6.46
  12   0   2   83.96    6.55
   0 -12  -2   98.32    4.98
   0 -12   2   91.98    6.13
  12   0  -2   97.96    6.21
  12   0  -2   94.71    5.72
  12   0  -4   -2.86    3.16
 -12   0   4    1.57    2.73
 -12   0  -4    2.48    2.03
  12   0   4    0.85    3.01
  12   0   4   -0.46    1.66
   0 -12  -4   -5.42    3.74
   0 -12   4    2.28    3.04
 -12   0  -4    2.00    1.87
  12   0  -4   -3.09    2.78
   0 -12  -4    3.18    3.18
 -12   0  -6   31.55    2.91
  12   0  -6   32.20    4.52
 -12   0   6   32.11    4.64
   0 -12   6   35.50    4.28
 -12   0  -6   36.34    3.95
  12   0   6   21.21    4.57
   0 -12  -6   26.14    4.72
  12   0  -6   36.33    4.73
  12   0  -8   21.57    4.39
 -12   0  -8   22.71    3.84
   0  12  -8   26.19    4.73
  12   0   8   22.94    4.57
 -12   0  -8   25.90    2.85
   0 -12  -8   27.06    4.79
   0 -12   8   26.10    4.16
  12   0 -10   -4.63    3.88
 -12   0 -10    1.57    2.91
  12   0  10    5.45    3.87
   0 -12  10   -1.90    2.94
   0 -12 -10    3.23    3.54
   0  12 -10   -2.82    3.78
  12   0 -12   28.51    5.44
 -12   0 -12   33.49    4.94
   0 -12  12   30.56    4.63
  12   0  12   32.09    5.74
   0 -12 -12   31.05    5.51
   0  12 -12   38.38    6.40
  12   0 -14   33.23    6.16
 -12   0 -14   20.65    4.69
   0 -12  14   23.16    4.58
   0 -12 -14   25.08    5.37
   0  12 -14   20.58    5.53
  12   0 -16    1.76    4.59
 -12   0 -16    1.54    3.95
   0 -12  16   -7.09    4.12
   0  12 -16   12.57    5.18
   0 -12 -16    1.68    4.06
 -12   0 -18   -6.47    4.59
  12   1 -17    1.77    4.42
 -12  -1 -17   -0.36    3.78
  -1 -12 -17    3.23    4.42
   1  12 -17    2.57    4.23
  12   1 -15    4.81    4.20
  -1 -12 -15    3.07    4.23
   1  12 -15   -1.95    4.57
 -12  -1 -15    0.25    3.70
  12   1 -13    7.84    4.47
 -12  -1 -13    4.05    3.69
   1 -12  13    6.36    3.10
  12  -1  13    9.44    5.20
  -1 -12 -13    4.85    4.31
   1  12 -13    1.97    3.88
  12   1 -11    2.88    3.65
 -12  -1 -11   -2.19    2.84
 -12  -1 -11   -0.86    2.11
  12  -1  11   -1.03    4.18
   1 -12  11    0.67    2.67
  -1 -12 -11    0.68    3.62
   1  12 -11    3.91    3.92
   1 -12   9   53.24    4.85
 -12  -1  -9   50.74    4.97
  12  -1   9   52.61    6.17
 -12  -1  -9   56.87    4.22
  -1 -12  -9   58.52    6.20
  12   1  -9   66.32    6.53
   1  12  -9   52.09    6.02
 -12  -1  -7  130.83    6.71
   1 -12   7  121.61    6.85
  12  -1   7  134.62    8.62
  12   1  -7  127.93    7.91
 -12  -1  -7  143.00    6.17
  -1 -12  -7  136.29    8.25
 -12  -1  -5   84.86    5.01
 -12  -1  -5   87.47    4.89
  12  -1   5   79.83    6.57
   1 -12   5   86.34    5.89
  -1 -12  -5   81.22    6.49
  -1 -12  -5   81.58    6.48
  12   1  -5   84.68    6.14
  12   1  -5   83.19    6.03
  12   1  -3    2.74    1.08
  12  -1   3    2.89    1.66
 -12  -1  -3    6.05    2.46
 -12   1   3    2.81    2.60
  12  -1   3    0.35    1.99
  12  -1   3   -0.20    3.53
  12   1  -3    6.24    3.16
  -1 -12  -3   -1.52    3.07
   1 -12   3    5.59    2.74
  12  -1   1   50.22    2.83
 -12   1   1   68.29    4.60
  12  -1   1   53.67    4.06
 -12  -1  -1   62.63    4.40
   1 -12   1   62.94    5.13
   1 -12   1   61.99    4.44
  12  -1   1   55.08    4.02
  12   1  -1   52.76    4.77
  12  -1   1   63.16    3.88
  -1 -12  -1   61.39    3.66
  -1 -12  -1   66.50    5.60
  12  -1  -1   57.56    3.47
 -12   1  -1   68.79    4.28
 -12  -1   1   70.97    5.04
  12  -1  -1   53.78    3.70
   1 -12  -1   68.60    5.67
  12  -1  -1   64.81    5.31
  -1 -12   1   66.54    5.60
  12   1   1   62.12    5.01
  -1 -12   1   62.61    3.71
   1 -12  -1   65.34    4.40
  12  -1  -1   59.55    4.36
  12  -1  -3    3.34    2.52
  12  -1  -3    1.95    1.85
  12   1   3   -0.78    3.21
  12  -1  -3    2.60    2.21
 -12  -1   3    2.51    2.63
 -12   1  -3    3.26    1.77
   1 -12  -3    1.68    3.18
   1 -12  -3    0.78    3.07
  -1 -12   3    7.61    3.18
  12  -1  -3    3.09    2.58
   1 -12  -3   -0.34    2.16
 -12  -1   5   95.09    6.38
 -12   1  -5   89.27    4.02
 -12   1  -5   81.83    5.17
  12  -1  -5   76.57    4.21
  12   1   5   96.26    7.15
  -1 -12   5   74.70    5.88
   1 -12  -5   79.94    6.28
  12  -1  -5   84.56    6.34
  12  -1  -5   82.04    6.04
 -12  -1   7  149.00    8.09
 -12   1  -7  137.98    7.26
 -12   1  -7  131.29    4.71
  -1 -12   7  118.87    7.28
  12   1   7  124.91    8.63
  -1  12  -7  142.29    8.69
   1 -12  -7  125.55    8.09
  12  -1  -7  135.03    7.89
  12  -1  -7  138.41    8.28
 -12   1  -9   54.91    5.49
  12   1   9   51.33    6.24
   1 -12  -9   52.75    6.19
  -1 -12   9   51.23    5.24
  12  -1  -9   66.29    6.48
  -1  12  -9   50.17    6.09
  12  -1 -11    6.14    4.12
 -12   1 -11   -4.14    3.36
  12   1  11    0.47    3.97
  -1 -12  11   -0.99    2.95
   1 -12 -11   -4.05    3.75
  -1  12 -11   -0.60    3.45
  12  -1 -13    6.02    4.19
 -12   1 -13    1.15    3.26
  -1 -12  13    8.24    3.63
  12   1  13   21.08    5.76
   1 -12 -13   15.97    4.55
  -1  12 -13    0.87    4.00
  12  -1 -15    1.50    3.96
 -12   1 -15    0.67    3.76
  -1 -12  15    6.84    3.55
  -1  12 -15   10.58    4.94
   1 -12 -15    5.73    4.31
  12  -1 -17    5.61    5.06
 -12   1 -17   -0.51    3.86
  -1  12 -17    2.62    4.73
   1 -12 -17    0.71    4.18
   2  12 -20    2.88    4.69
 -12  -2 -18   -3.05    4.14
   2  12 -18    4.01    4.71
  12   2 -16   -1.37    4.07
 -12  -2 -16    0.63    3.86
  -2 -12 -16    8.85    4.77
   2  12 -16    1.67    4.18
  12   2 -14    2.62    4.03
 -12  -2 -14    1.15    3.26
  -2 -12 -14   10.02    4.59
   2  12 -14    7.27    4.79
  12   2 -12    7.63    3.82
 -12  -2 -12    6.97    3.29
   2 -12  12   13.91    3.63
  12  -2  12    2.96    4.32
 -12  -2 -12    7.17    2.76
  -2 -12 -12   11.57    4.48
   2  12 -12    6.12    3.95
  12   2 -10    1.09    3.78
 -12  -2 -10    2.35    2.76
 -12  -2 -10   -3.48    2.21
  12  -2  10   -8.84    3.86
   2 -12  10    4.94    2.73
  -2 -12 -10   -3.49    3.91
   2  12 -10    0.89    3.61
 -12  -2  -8   55.89    4.92
   2 -12   8   53.48    4.65
  12   2  -8   50.81    5.52
  12  -2   8   37.81    5.38
 -12  -2  -8   54.52    4.45
  -2 -12  -8   56.66    5.99
 -12  -2  -6   57.15    4.40
   2 -12   6   54.86    4.65
 -12  -2  -6   59.09    4.55
  12  -2   6   53.98    6.16
  -2 -12  -6   53.50    5.75
  -2 -12  -6   63.17    6.31
  12  -2   4    3.41    1.03
 -12  -2  -4    6.67    2.55
 -12  -2  -4    8.41    2.22
  12  -2   4    8.55    3.64
  -2 -12  -4    4.56    3.39
   2 -12   4   14.36    3.43
  12   2  -4    6.32    2.99
 -12  -2  -2   31.28    3.68
  -2 -12  -2   26.73    4.34
  12  -2   2   23.69    2.37
   2 -12   2   23.74    3.80
  12  -2   2   34.55    4.67
  12   2  -2   25.93    3.58
  12  -2   2   18.20    2.54
   2 -12   0  108.61    6.28
 -12  -2   0  114.65    6.06
  12  -2   0  115.66    5.39
  -2 -12   0  113.71    7.05
  12  -2   0  107.66    5.01
  12  -2   0   95.81    6.37
   2 -12   0  118.03    6.00
  12   2   0  111.97    6.18
  -2 -12   0  106.29    4.09
 -12   2   0  114.04    5.19
  -2 -12   2   30.05    4.48
  12  -2  -2   26.69    3.38
   2 -12  -2   26.06    4.02
 -12   2  -2   29.78    2.78
  12  -2  -2   24.39    3.05
  12   2   2   24.72    4.42
  12  -2  -2   31.27    4.21
 -12  -2   2   28.01    3.84
   2 -12  -2   26.00    3.32
  12  -2  -4    8.19    3.14
  12  -2  -4    8.32    2.49
 -12   2  -4    8.50    1.76
  12   2   4    4.94    3.37
 -12  -2   4    7.70    3.25
  12  -2  -4    5.95    2.28
  12   2   4    3.60    2.22
  -2 -12   4    8.64    3.30
   2 -12  -4    5.96    3.27
  -2  12  -4   11.97    3.73
  12  -2  -4    8.33    3.20
   2 -12  -4    5.52    2.70
 -12  -2   6   65.36    5.84
 -12   2  -6   48.61    2.57
 -12   2  -6   55.65    4.95
  -2 -12   6   48.75    5.14
  12   2   6   55.59    6.01
   2 -12  -6   57.25    5.77
  12  -2  -6   58.25    5.40
  -2  12  -6   61.98    6.10
  12  -2  -6   53.47    5.52
  12  -2  -8   52.19    5.67
 -12  -2   8   47.07    5.24
 -12   2  -8   49.97    5.01
  -2  12  -8   41.16    5.40
  12   2   8   58.80    6.34
   2 -12  -8   49.28    5.81
  -2 -12   8   51.56    5.41
 -12  -2  10    4.39    3.44
  12  -2 -10   -4.34    3.64
 -12   2 -10    6.69    3.31
  12   2  10   -3.68    3.89
  -2 -12  10    1.95    2.77
   2 -12 -10    2.54    3.45
  -2  12 -10    0.51    3.56
  12  -2 -12    7.66    4.20
 -12   2 -12    9.28    4.01
  -2 -12  12   11.46    3.45
  12   2  12    7.01    4.70
   2 -12 -12    6.36    4.18
  -2  12 -12    4.35    3.94
  12  -2 -14    1.99    4.16
 -12   2 -14    4.05    3.72
  -2 -12  14   12.92    4.27
  -2  12 -14    9.19    4.90
   2 -12 -14    8.48    4.51
  12  -2 -16   -0.83    4.17
  -2 -12  16    3.47    3.60
 -12   2 -16    9.26    4.28
  -2  12 -16    3.90    4.42
   2 -12 -16   -6.83    4.23
 -12   2 -18   -2.09    4.16
  12   3 -17   -1.52    4.27
 -12  -3 -17   -3.26    3.60
  -3 -12 -17    2.09    4.35
   3  12 -17    2.83    4.66
  12   3 -15    9.28    4.46
 -12  -3 -15    3.25    3.37
  -3 -12 -15   -0.73    3.79
   3  12 -15    1.26    4.13
  12   3 -13   15.42    4.72
 -12  -3 -13   14.54    4.43
  -3 -12 -13   18.43    4.55
   3  12 -13   21.02    4.90
 -12  -3 -13   13.92    3.46
 -12  -3 -11    9.50    3.49
  12   3 -11   12.13    4.62
   3 -12  11   12.59    3.11
  12  -3  11   13.74    4.63
 -12  -3 -11    7.40    2.95
  -3 -12 -11    9.23    3.85
   3  12 -11    6.32    4.00
 -12  -3  -9    0.48    2.66
 -12  -3  -9   -1.30    2.53
  12  -3   9    4.37    3.68
   3 -12   9    9.41    2.82
  -3 -12  -9    4.72    3.67
  -3 -12  -7   23.78    4.39
 -12  -3  -7   24.61    3.36
  12  -3   7   16.29    4.07
  -3 -12  -7   25.82    4.59
 -12  -3  -7   16.67    3.15
   3 -12   7   24.96    3.45
 -12  -3  -5   19.94    2.83
  12  -3   5   15.42    3.92
   3 -12   5   10.48    2.78
 -12  -3  -5   16.94    3.30
  -3 -12  -5   19.86    4.38
   3 -12   3   -0.54    2.62
  -3 -12  -3    5.45    3.68
  12  -3   3   -0.71    1.22
 -12  -3  -3    0.48    1.56
 -12  -3  -3    0.48    2.71
  12  -3   3    3.87    3.43
  12   3  -3    6.35    2.99
 -12  -3  -1   56.57    4.89
  12  -3   1   60.89    5.68
   3  12  -1   40.80    1.74
  -3 -12  -1   52.64    5.50
  12  -3   1   52.98    3.42
  12  -3   1   51.48    3.35
  12   3  -1   59.54    4.57
   3 -12   1   61.78    5.05
 -12  -3   1   62.81    5.18
   3 -12  -1   63.18    5.08
  -3 -12   1   58.11    5.59
  12  -3  -1   52.74    3.94
  12   3   1   61.56    4.63
  12  -3  -1   55.58    5.50
   3 -12  -1   68.17    5.13
  -3 -12   1   43.57    2.32
  12  -3  -3    2.20    2.60
  12   3   3   -0.76    3.15
  12  -3  -3   -2.84    2.16
 -12  -3   3    0.36    2.65
   3 -12  -3    0.51    2.96
  -3 -12   3    1.20    3.10
   3 -12  -3    5.66    3.41
  12  -3  -3    6.38    3.36
   3 -12  -3    2.74    2.46
  -3  12  -3    3.82    3.43
  12  -3  -5   13.48    3.38
  -3 -12   5   21.38    4.24
  12   3   5   13.10    4.33
 -12  -3   5   15.33    3.62
   3 -12  -5   19.70    4.19
  -3  12  -5   17.24    4.16
  12  -3  -5   15.42    3.96
   3 -12  -5   18.62    3.87
  12  -3  -7   22.92    4.13
  -3 -12   7   19.42    4.47
 -12   3  -7   21.32    3.57
 -12  -3   7   26.05    4.33
  12   3   7   22.90    4.62
   3 -12  -7   17.98    4.30
  -3  12  -7   28.78    4.94
  12  -3  -7   23.26    4.53
  12  -3  -9   11.23    4.12
 -12  -3   9    7.18    3.39
 -12   3  -9    8.82    3.28
  12   3   9   -1.58    3.70
   3 -12  -9    4.75    3.61
  -3  12  -9    5.39    3.82
  -3 -12   9    0.81    2.94
  12  -3 -11   14.50    4.51
 -12  -3  11   14.06    4.42
 -12   3 -11   15.08    3.74
  12   3  11   10.75    4.85
  -3 -12  11    6.73    3.41
   3 -12 -11   10.63    4.08
  -3  12 -11    4.46    3.78
  12  -3 -13   16.57    4.90
 -12   3 -13   13.25    4.37
  -3 -12  13   15.18    4.25
  12   3  13   24.03    6.08
  -3  12 -13   19.93    5.32
   3 -12 -13   21.53    5.57
  12  -3 -15   -0.16    4.20
 -12   3 -15    1.32    3.76
  -3 -12  15    1.09    3.67
  -3  12 -15    3.71    4.46
   3 -12 -15   -0.58    3.97
  12  -3 -17   -0.86    4.50
  -3 -12  17    3.76    4.03
 -12   3 -17    8.50    4.48
  -3  12 -17    7.33    5.13
   3 -12 -17   -6.29    4.94
 -12  -4 -18   -9.21    4.66
   4  12 -18    3.93    4.73
  12   4 -16    4.63    4.77
 -12  -4 -16   10.11    4.33
  -4 -12 -16    1.23    4.18
   4  12 -16   -2.22    4.15
 -12  -4 -14   11.35    3.75
 -12  -4 -14   10.49    4.12
  12   4 -14   11.01    4.71
  -4 -12 -14   12.77    4.86
   4  12 -14   11.51    4.76
 -12  -4 -12   34.04    4.94
  12   4 -12   25.54    5.28
  12  -4  12   41.76    6.41
  -4 -12 -12   26.28    5.24
 -12  -4 -12   30.90    4.34
   4  12 -12   30.27    5.27
 -12  -4 -10    1.23    2.60
  -4 -12 -10   15.35    4.71
 -12  -4 -10    6.29    2.96
  12  -4  10    0.08    3.69
  -4 -12 -10    9.21    3.89
 -12  -4  -8    7.46    2.99
 -12  -4  -8    2.81    2.18
  12  -4   8    9.91    4.01
   4 -12   8    7.72    2.53
  -4 -12  -8   12.59    4.16
   4 -12   6   19.63    2.99
 -12  -4  -6   19.84    2.99
  12  -4   6   21.50    4.43
  -4 -12  -6   13.37    3.80
 -12  -4  -6   21.72    3.61
  -4 -12  -4    5.78    3.91
 -12  -4  -4    2.58    1.88
  12  -4   4   -0.60    3.29
 -12  -4  -4    4.78    2.98
   4 -12   4    6.06    2.57
 -12  -4  -2   21.34    3.69
 -12  -4  -2   16.24    1.74
   4 -12   2   17.35    3.16
   4  12  -2   15.83    1.78
  12  -4   2   18.60    3.89
  -4 -12  -2   15.92    4.26
  12  -4   2   16.57    1.99
  12   4  -2   19.48    3.34
 -12  -4   0   72.66    5.68
   4 -12   0   73.04    5.23
   4  12   0   60.20    2.80
  12  -4   0   52.80    3.53
  12  -4   0   63.23    3.99
  -4 -12   0   76.92    6.39
  12  -4   0   64.82    6.00
   4 -12   0   72.95    5.71
  12   4   0   66.31    4.54
  -4  12   0   69.50    5.52
  12  -4  -2   19.29    3.28
   4 -12  -2   16.37    3.45
  12   4   2   15.59    3.81
   4 -12  -2   10.81    3.43
  12  -4  -2   10.34    2.49
 -12  -4   2   11.37    3.37
  -4 -12   2   14.69    4.02
  12   4   2   19.31    3.01
  12  -4  -2   19.02    3.86
   4 -12  -2   20.71    3.72
  -4  12  -2   27.32    4.29
  -4 -12   2    8.53    0.94
  12  -4  -4    5.14    2.84
  12   4   4   -1.16    3.18
  -4 -12   4    7.55    3.47
 -12  -4   4   -3.96    3.35
   4 -12  -4    0.94    3.05
  -4  12  -4   -1.39    3.21
  12  -4  -4    2.64    3.24
   4 -12  -4    0.92    3.01
  12  -4  -6   16.50    3.71
  -4 -12   6   18.83    4.32
  12   4   6   11.28    4.01
 -12  -4   6   19.05    4.14
   4 -12  -6   17.66    3.92
  -4  12  -6   20.05    4.34
  12  -4  -6   15.28    3.95
   4 -12  -6   18.78    3.80
  12  -4  -8    9.72    3.59
 -12   4  -8   16.32    3.69
 -12  -4   8    7.47    3.68
  12   4   8   10.19    3.92
  12  -4  -8   15.83    4.28
   4 -12  -8   12.17    4.16
  -4  12  -8    6.64    3.87
  -4 -12   8   10.17    3.64
  12  -4 -10    3.94    3.23
 -12  -4  10    9.15    4.01
 -12   4 -10   13.54    3.79
  12   4  10    5.83    4.00
  -4 -12  10    5.75    3.37
   4 -12 -10    2.11    3.45
  -4  12 -10    2.86    3.65
  12  -4 -12   37.87    5.80
 -12  -4  12   36.82    5.82
 -12   4 -12   26.48    4.89
  12   4  12   30.98    5.80
  -4 -12  12   25.25    4.88
  -4  12 -12   19.37    5.06
   4 -12 -12   27.28    5.67
  12  -4 -14   13.72    4.69
 -12   4 -14    9.05    4.31
  -4 -12  14   16.71    4.96
  -4  12 -14   16.99    5.16
   4 -12 -14   17.64    5.23
  12  -4 -16   -6.98    4.41
 -12   4 -16    7.46    4.47
  -4 -12  16    1.32    3.67
  -4  12 -16    3.00    4.28
   4 -12 -16   -0.67    4.28
  -4 -12  18    6.63    4.52
 -12   5  17   -6.64    4.33
 -12  -5 -17    3.55    4.00
  -5 -12 -17    1.07    4.17
   5  12 -17    5.53    4.43
 -12   5  15    4.53    3.59
   5  12 -15    8.77    4.60
 -12  -5 -15    5.91    3.70
  12   5 -15    7.96    4.09
 -12  -5 -15   11.35    4.13
  -5 -12 -15   12.37    5.02
 -12  -5 -13   26.60    4.69
 -12   5  13   25.35    4.74
 -12  -5 -13   29.42    4.96
  12   5 -13   31.01    5.71
  -5 -12 -13   31.06    5.55
   5  12 -13   32.31    5.54
 -12   5  11   19.50    3.86
 -12  -5 -11   18.05    3.75
  -5 -12 -11   21.46    5.08
  12  -5  11   15.05    4.94
  -5 -12 -11   27.34    5.00
 -12  -5 -11   29.00    4.35
 -12  -5  -9    5.53    2.62
 -12  -5  -9    0.47    2.67
  12  -5   9    7.28    4.03
  -5 -12  -9    2.83    3.86
 -12  -5  -7   10.89    3.48
 -12  -5  -7    8.40    2.39
  12  -5   7    5.10    3.39
  -5 -12  -7   12.63    4.26
   5 -12   7   12.94    2.67
  -5 -12  -5    9.20    3.79
 -12  -5  -5   10.96    2.28
   5 -12   5    8.08    2.53
  12  -5   5    5.23    3.12
 -12  -5  -5    4.04    2.87
   5 -12   3    2.17    2.40
 -12  -5  -3    5.24    1.67
  12  -5   3    9.23    3.63
 -12  -5  -3   10.29    3.32
  -5 -12  -3    2.45    3.32
 -12  -5  -1   69.89    5.67
  -5 -12  -1   58.94    5.79
  12  -5   1   66.47    5.93
   5  12  -1   62.48    3.40
  -5  12   1   61.06    5.12
  12  -5   1   55.14    3.41
  12   5  -1   62.28    4.33
   5 -12   1   63.19    4.63
 -12  -5   1   60.86    5.45
  12   5   1   67.69    6.09
   5  12   1   62.22    3.51
   5 -12  -1   66.89    5.10
  -5  12  -1   59.87    5.31
   5 -12  -1   65.25    5.61
  -5 -12   1   67.06    6.29
  12  -5  -1   61.28    4.24
  12  -5  -1   63.59    6.22
   5 -12  -1   55.80    5.46
  12   5   1   55.97    3.97
   5 -12  -3    5.39    1.39
  12   5   3    0.65    3.24
  -5 -12   3    8.61    3.61
   5 -12  -3    4.19    3.27
 -12  -5   3   -3.02    3.06
  -5  12  -3    5.67    3.25
   5 -12  -3    3.02    2.83
  12  -5  -3    4.80    3.45
  12  -5  -3    1.53    2.58
  -5 -12   5    8.01    3.82
  12   5   5    5.80    3.44
 -12  -5   5    6.14    3.51
   5 -12  -5   11.17    3.80
  -5  12  -5    6.29    3.37
  12  -5  -5    4.48    3.17
   5 -12  -5    5.03    2.93
  12  -5  -5    5.68    3.23
  12  -5  -7   17.95    4.19
  -5 -12   7    9.60    3.74
  12   5   7   12.99    4.00
 -12  -5   7    9.11    3.29
   5 -12  -7    6.93    3.46
  -5  12  -7   10.59    3.66
  12  -5  -7    9.72    4.06
   5 -12  -7   15.75    4.04
  12  -5  -9    4.40    3.63
 -12  -5   9    1.70    3.32
  12   5   9   -4.18    4.06
  -5  12  -9   -0.10    3.41
   5 -12  -9   -3.80    3.78
  -5 -12   9    1.87    3.40
  12  -5 -11   25.85    5.04
 -12  -5  11   24.13    5.27
 -12   5 -11   22.04    4.61
  12   5  11   24.26    5.46
  -5 -12  11   25.28    4.96
  -5  12 -11   24.37    5.19
   5 -12 -11   24.35    4.85
  12  -5 -13   32.40    5.85
 -12  -5  13   34.62    6.14
 -12   5 -13   27.12    5.43
  -5 -12  13   39.26    5.84
  12   5  13   41.23    6.79
  -5  12 -13   31.41    5.75
   5 -12 -13   23.31    5.71
 -12   5 -15   14.18    4.58
  -5 -12  15   14.56    4.92
  -5  12 -15    5.21    4.39
   5 -12 -15    8.64    4.42
  12  -5 -15   10.23    4.78
  -5 -12  17   -8.09    5.21
 -12   5 -17    4.08    4.13
 -12   6  18    8.85    4.71
 -12  -6 -18    1.15    4.39
   6  12 -18    1.80    4.76
 -12   6  16   -2.21    3.61
 -12  -6 -16   -2.68    3.64
  -6 -12 -16    8.47    4.58
   6  12 -16   -5.62    4.28
 -12   6  14    0.64    3.28
 -12  -6 -14   11.63    4.02
 -12  -6 -14    2.07    3.62
  -6 -12 -14    3.42    4.10
   6  12 -14    3.92    4.01
  -6 -12 -14    0.15    4.15
 -12   6  12    6.14    3.22
 -12  -6 -12    2.59    3.22
  -6 -12 -12    1.72    3.78
   6  12 -12    8.95    3.79
 -12  -6 -12    4.41    3.33
 -12   6  10    0.73    2.50
 -12  -6 -10    4.57    2.88
  -6 -12 -10   -1.38    3.96
  12  -6  10   -8.40    4.35
 -12  -6 -10    0.20    2.87
 -12   6   8   37.05    3.93
 -12  -6  -8   39.74    4.09
 -12  -6  -8   36.68    5.02
  12  -6   8   36.91    5.39
  -6 -12  -8   41.01    5.86
 -12  -6  -6   55.18    4.16
  -6 -12  -6   54.58    6.15
  12  -6   6   53.37    5.92
  -6  12   6   58.25    4.27
 -12  -6  -6   66.59    5.88
 -12  -6  -4   22.53    2.56
  12  -6   4   22.19    4.38
   6 -12   4   26.52    3.11
  -6 -12  -4   27.59    4.87
 -12  -6  -4   23.08    4.06
  -6  12   4   24.06    3.45
   6  12  -2    0.02    1.76
  -6 -12  -2    3.64    3.42
   6 -12   2   -0.19    2.22
  12  -6   2    3.95    3.16
 -12  -6  -2   -1.69    2.91
  -6  12   2    4.74    2.97
  -6 -12   0   19.43    4.18
 -12  -6   0   14.71    3.82
   6  12   0   17.09    2.55
   6 -12   0   13.47    1.94
   6 -12   0   14.63    3.01
   6 -12   0   18.66    4.02
  -6  12   0   14.08    3.25
  12  -6   0   17.43    2.79
  12  -6   0   15.30    4.17
  12   6   0   14.91    2.55
  12   6   2    1.71    3.20
   6 -12  -2    0.61    1.53
   6 -12  -2    1.50    2.93
   6  12   2   -0.87    2.12
   6 -12  -2    5.05    3.17
  -6 -12   2    5.75    3.35
  -6  12  -2    5.57    3.02
  12  -6  -2    3.76    2.66
  12  -6  -2   -1.18    3.04
  12   6   2   -3.19    2.08
 -12  -6   2    1.32    3.21
  12  -6  -4   27.07    3.82
  -6 -12   4   18.05    4.18
  12   6   4   24.87    4.74
   6 -12  -4   22.47    3.92
   6  12   4   28.75    3.32
   6 -12  -4   28.11    4.73
  -6  12  -4   21.14    4.10
 -12  -6   4   33.99    4.86
  12  -6  -4   30.47    4.92
  -6 -12   6   54.83    6.02
 -12   6  -6   43.45    5.23
  12   6   6   52.17    6.14
   6 -12  -6   61.44    6.13
 -12  -6   6   59.04    5.95
  -6  12  -6   56.14    5.96
  12  -6  -6   52.43    6.07
  12  -6  -6   57.95    5.27
   6 -12  -6   61.38    5.86
 -12   6  -8   37.47    5.27
  12   6   8   35.68    5.44
 -12  -6   8   38.21    5.51
  -6  12  -8   37.93    5.59
   6 -12  -8   36.86    5.40
  -6 -12   8   39.57    5.54
  12  -6  -8   33.19    4.89
  12  -6  -8   31.85    5.28
   6 -12  -8   48.97    5.86
 -12   6 -10   -1.43    3.50
 -12  -6  10    0.40    3.48
  12   6  10   -0.25    3.70
  -6  12 -10    0.38    3.94
  -6 -12  10   -3.94    4.01
   6 -12 -10   -0.07    3.56
  12  -6 -10    5.73    3.65
 -12   6 -12    8.76    4.32
 -12  -6  12    0.26    3.82
 -12   6 -12    3.37    3.74
  12   6  12    7.05    4.59
  -6 -12  12   10.59    4.30
  -6  12 -12    2.73    3.97
   6 -12 -12    5.11    4.14
  12  -6 -12    5.40    3.79
 -12  -6  14    4.10    3.88
 -12   6 -14    1.54    4.21
 -12   6 -14    0.89    4.08
  12  -6 -14   -2.79    4.18
  -6 -12  14    1.14    3.73
  -6  12 -14   -4.32    4.17
   6 -12 -14    4.24    4.33
 -12   6 -16    0.06    4.02
  -6 -12  16   -2.63    4.35
  12  -6 -16    0.81    4.75
   6 -12 -16   -5.96    5.21
 -12   7  17    2.73    4.30
 -12  -7 -17    3.96    4.33
  -7 -12 -17   -3.81    4.68
   7  12 -17    0.83    4.25
 -12   7  15    7.61    4.13
 -12  -7 -15   -1.11    3.84
 -12  -7 -15    9.20    4.40
  -7 -12 -15    8.15    4.59
  -7 -12 -15    3.45    4.16
   7  12 -15    3.33    4.30
 -12   7  13   20.00    4.56
 -12  -7 -13   21.13    4.59
  -7 -12 -13   20.93    5.41
   7  12 -13   28.34    5.76
 -12  -7 -13   25.77    5.32
 -12   7  11   10.84    3.27
  -7 -12 -11   15.21    4.34
 -12  -7 -11   11.26    3.68
  12  -7  11   19.79    5.30
 -12  -7 -11    8.23    3.69
 -12   7   9   -3.13    2.48
 -12  -7  -9   -1.60    2.53
 -12  -7  -9    2.60    3.10
  12  -7   9   -5.05    4.14
 -12   7   7    9.21    2.27
  -7 -12  -7   12.77    4.28
 -12  -7  -7   13.43    3.83
 -12  -7  -7   14.81    2.84
  12  -7   7   18.51    4.05
 -12  -7  -5    7.12    2.19
  12  -7   5    4.13    3.46
  -7 -12  -5    0.10    3.47
  -7  12   5    6.40    2.49
 -12  -7  -5    3.88    3.39
  -7 -12  -3   10.46    3.82
  12  -7   3   11.23    3.64
 -12  -7  -3    8.86    3.82
  -7  12   3   13.29    3.05
   7 -12   3   12.18    2.41
   7  12  -1   93.72    4.98
  12  -7   1   95.85    6.85
 -12  -7  -1   98.10    6.92
   7 -12   1   92.37    4.42
  -7  12   1   95.78    5.95
   7 -12   1   92.18    6.94
  12  -7   1   85.83    4.30
  -7 -12  -1   96.42    7.20
   7 -12   1   95.06    5.06
 -12  -7   1  105.15    7.43
  12   7   1   83.97    6.68
   7  12   1   96.23    5.14
  -7  12  -1   99.75    6.59
  -7 -12   1   87.37    7.31
   7 -12  -1   98.69    5.70
   7 -12  -1   91.87    6.24
  12  -7  -1   94.66    5.38
  12  -7  -1   89.51    7.33
   7 -12  -1   92.11    7.06
 -12   7  -3    3.21    3.23
  12   7   3    8.09    3.78
   7  12   3    8.80    2.52
  -7 -12   3   14.58    4.27
   7 -12  -3    7.92    3.29
  -7  12  -3    8.98    3.40
  12  -7  -3   15.78    3.38
  12  -7  -3   14.39    4.19
   7 -12  -3    5.95    3.28
 -12  -7   3   13.28    4.21
  -7 -12   5    3.15    3.31
 -12   7  -5    5.91    3.12
  12   7   5    8.10    3.76
   7  12   5    9.85    3.01
   7 -12  -5    5.11    3.62
  -7  12  -5    0.62    3.03
 -12  -7   5    6.25    4.02
  12  -7  -5    6.77    3.11
  12  -7  -5   10.34    4.06
   7 -12  -5    9.60    3.83
  -7 -12   7    9.84    4.25
 -12   7  -7   21.60    4.60
  12   7   7   17.17    4.39
 -12  -7   7   17.27    4.18
  -7  12  -7   16.57    4.25
   7 -12  -7    8.73    3.42
  12  -7  -7   13.13    3.89
  12  -7  -7   14.08    4.29
   7 -12  -7   17.99    4.36
 -12   7  -9   -8.55    4.07
  12   7   9   -2.16    4.00
 -12  -7   9   -5.94    3.91
  -7  12  -9   -1.16    3.97
   7 -12  -9   -6.20    3.75
  -7 -12   9   -0.28    3.37
  12  -7  -9    7.42    3.95
  12  -7  -9    6.56    3.79
 -12   7 -11   10.12    4.15
 -12  -7  11   12.35    4.59
  12   7  11   23.82    5.32
  -7 -12  11   16.87    4.72
  -7  12 -11   10.95    4.35
   7 -12 -11   15.69    4.81
  12  -7 -11   14.67    4.51
 -12  -7  13   24.29    5.34
 -12   7 -13   17.54    4.85
 -12   7 -13   29.76    5.92
  12  -7 -13   14.08    4.86
  -7 -12  13   28.57    5.83
  -7  12 -13   31.83    6.24
   7 -12 -13   26.73    5.73
 -12  -7  15    5.50    4.64
 -12   7 -15   -0.55    3.71
 -12   7 -15   15.15    5.43
  -7 -12  15    6.77    4.93
  -7  12 -15    1.63    4.77
   7 -12 -15    6.70    4.61
  12  -7 -15   12.73    5.02
 -12   8  18    2.52    4.13
 -12   8  16    1.41    3.97
 -12  -8 -16    6.36    4.23
   8  12 -16   -0.84    4.23
 -12  -8 -16   -2.37    4.29
 -12   8  14    0.05    3.39
 -12  -8 -14    3.43    4.22
 -12  -8 -14    1.06    3.70
  -8 -12 -14   -0.61    4.36
   8  12 -14    2.33    3.88
 -12   8  12    4.14    2.96
 -12  -8 -12    2.62    3.05
 -12  -8 -12    9.36    3.96
  -8 -12 -12    2.94    4.35
 -12   8  10    4.93    2.81
 -12  -8 -10    3.50    3.02
  -8 -12 -10    6.09    4.04
  12  -8  10    5.36    4.16
 -12  -8 -10    5.89    3.75
  -8 -12  -8   52.82    6.57
 -12  -8  -8   44.30    4.46
 -12  -8  -8   43.87    5.67
  12  -8   8   48.54    5.92
  12  -8   6   64.49    6.18
 -12  -8  -6   75.38    6.71
  -8 -12  -6   60.31    6.57
  -8 -12  -4   29.10    5.21
  12  -8   4   23.34    4.44
  -8  12   4   26.03    3.57
 -12  -8  -4   23.82    4.46
  -8 -12  -2   -0.82    3.38
  12  -8   2    0.38    2.88
 -12  -8  -2   -1.85    3.23
  -8  12   2   -0.61    2.58
 -12   8   0   20.82    3.39
  12   8   0   20.70    4.25
 -12  -8   0   22.67    4.60
  12  -8   0   19.86    3.69
   8  12   0   20.79    3.06
   8 -12   0   21.62    3.39
   8 -12   0   17.69    2.75
  -8  12   0   21.80    3.60
  12  -8   0   20.57    2.96
  12  -8   0   16.55    4.19
  -8 -12   0   26.41    4.89
   8 -12   0   20.98    4.45
 -12  -8   2    9.10    3.56
 -12   8  -2    7.83    3.00
  12   8   2    2.86    3.23
   8  12   2    0.65    2.20
  -8 -12   2    1.25    3.33
   8 -12  -2   11.02    3.55
  -8  12  -2   -0.06    2.71
  12  -8  -2    0.66    2.56
  12  -8  -2    6.17    3.60
   8 -12  -2   -1.29    3.11
  -8 -12   4   26.79    4.81
 -12  -8   4   31.21    5.02
 -12   8  -4   25.11    4.33
  12   8   4   28.07    4.73
   8  12   4   32.85    3.90
  -8  12  -4   17.18    3.77
   8 -12  -4   24.42    4.15
  12  -8  -4   29.29    4.14
  12  -8  -4   30.07    5.08
   8 -12  -4   24.23    4.47
 -12  -8   6   74.75    7.14
  -8 -12   6   72.00    7.21
 -12   8  -6   62.71    6.29
  -8  12  -6   72.11    6.65
  12   8   6   73.63    6.82
   8  12   6   64.75    5.36
  12  -8  -6   75.64    6.27
   8 -12  -6   62.60    5.99
  12  -8  -6   72.12    7.04
   8 -12  -6   69.27    6.67
 -12   8  -8   48.91    6.11
  12   8   8   56.53    6.37
 -12  -8   8   39.51    5.58
  -8  12  -8   41.90    5.71
  -8 -12   8   47.58    6.20
   8 -12  -8   37.07    5.61
   8 -12  -8   53.23    6.26
  12  -8  -8   41.97    6.06
  12  -8  -8   40.94    5.50
 -12   8 -10    6.48    4.17
 -12  -8  10    0.67    4.17
  12   8  10    0.58    3.98
  -8  12 -10    4.84    4.13
  -8 -12  10    0.04    3.74
   8 -12 -10    0.26    3.74
  12  -8 -10    3.93    3.63
 -12  -8  12    0.38    3.98
 -12   8 -12    5.83    4.29
  12  -8 -12    4.85    4.42
  12   8  12   17.74    5.56
  -8 -12  12   -1.11    3.81
  -8  12 -12    8.60    4.39
   8 -12 -12    7.30    4.48
 -12  -8  14    3.40    4.57
 -12   8 -14   -2.39    4.75
  -8 -12  14   -4.43    4.18
  -8  12 -14    0.96    4.51
   8 -12 -14   -0.80    4.26
  12  -8 -14    0.73    4.49
 -12  -9 -17   -4.63    4.29
 -12  -9 -17    3.78    4.51
   9  12 -17   -8.14    5.33
 -12  -9 -15    4.12    4.22
 -12  -9 -15   -1.29    3.76
   9  12 -15    8.31    4.87
 -12  -9 -13   11.93    4.09
  -9 -12 -13    4.72    4.49
 -12  -9 -13    8.01    4.26
 -12  -9 -11   11.16    3.57
  -9 -12 -11    2.31    3.99
 -12  -9 -11    5.42    3.96
 -12  -9  -9    6.60    4.06
  12  -9   9    2.91    3.76
  -9 -12  -9    0.79    3.65
 -12  -9  -7   33.32    5.47
  12  -9   7   26.41    4.95
  -9 -12  -7   28.81    5.46
  -9 -12  -5   10.97    4.14
  12  -9   5    7.85    3.67
 -12  -9  -5   16.39    4.24
  -9 -12  -3    5.89    3.73
  12  -9   3   -2.87    3.38
  -9  12   3    3.61    2.73
 -12  -9  -3    2.74    3.26
 -12   9   1   42.15    3.85
   9  12  -1   44.82    4.35
  12  -9   1   41.09    5.03
 -12  -9  -1   47.40    5.74
  -9  12   1   43.19    4.65
  -9 -12  -1   50.76    5.93
  12  -9   1   41.67    5.66
   9 -12   1   38.45    5.27
 -12  -9   1   38.92    5.51
  12  -9  -1   46.66    4.93
  12   9   1   41.38    5.19
 -12   9  -1   41.11    4.36
   9  12   1   41.97    4.25
  -9 -12   1   44.46    5.65
   9 -12  -1   41.17    4.48
  -9  12  -1   46.70    5.07
  12  -9  -1   42.46    4.10
  12  -9  -1   52.25    6.21
   9 -12  -1   48.69    5.98
 -12  -9   3    7.35    3.85
  -9 -12   3    1.19    3.85
 -12   9  -3   -1.08    2.84
  12   9   3   -1.10    3.31
   9  12   3    3.67    2.62
  -9  12  -3    0.89    2.96
   9 -12  -3   -0.47    2.95
  12  -9  -3    2.78    2.68
  12  -9  -3    5.84    3.57
   9 -12  -3    2.25    3.15
  -9 -12   5    9.84    3.79
 -12   9  -5   12.56    3.79
  12   9   5   10.87    4.10
   9  12   5   15.56    3.60
  -9  12  -5   11.45    3.85
   9 -12  -5   13.59    3.96
  12  -9  -5   17.73    3.71
 -12  -9   5   11.47    4.23
  12  -9  -5   18.36    4.54
   9 -12  -5   16.33    4.55
 -12   9  -7   22.99    4.76
  12   9   7   17.57    4.26
   9  12   7   21.07    4.27
  -9  12  -7   21.24    4.47
 -12  -9   7   27.78    5.18
   9 -12  -7   27.37    4.93
  12  -9  -7   27.89    4.79
  -9 -12   7   25.06    5.19
  12  -9  -7   29.99    5.34
   9 -12  -7   31.23    5.35
 -12   9  -9    3.67    3.74
  12   9   9    7.82    4.07
 -12  -9   9   -5.30    4.19
  -9  12  -9    6.14    4.33
  -9 -12   9   -0.14    3.70
   9 -12  -9   -0.77    3.59
  12  -9  -9    6.45    3.59
  12  -9  -9    4.52    3.89
   9 -12  -9    6.01    4.38
 -12   9 -11    1.28    3.92
 -12  -9  11    6.10    4.15
  12   9  11   12.11    5.00
  -9  12 -11    5.15    4.07
  -9 -12  11    9.42    4.28
   9 -12 -11    6.86    4.21
  12  -9 -11   -2.93    4.13
 -12  -9  13   10.00    4.79
 -12   9 -13    7.56    4.15
  -9 -12  13    7.91    4.94
  -9  12 -13   14.69    5.07
   9 -12 -13   13.56    5.13
  12  -9 -13    6.04    4.47
  12  -9 -15    0.24    4.92
  10  12 -16    4.27    4.78
 -12 -10 -14    1.36    4.16
  10  12 -14   10.69    4.77
 -10 -12 -12    5.95    4.31
 -12 -10 -12    9.30    4.62
 -12 -10 -10    8.78    4.03
 -10 -12 -10    3.29    3.97
 -12 -10  -8   21.04    5.16
  12 -10   8   27.62    5.06
 -10 -12  -8   24.84    5.46
 -12 -10  -6   33.92    5.38
 -10 -12  -6   35.02    6.01
  12 -10   6   25.59    4.72
 -10 -12  -4    1.72    3.50
  12 -10   4    4.74    3.30
 -12 -10  -4    3.39    3.55
  10  12  -2   19.62    3.38
  12 -10   2   18.77    3.91
 -12 -10  -2   17.14    4.39
 -10 -12  -2   26.01    5.24
 -12  10   0   72.22    5.36
 -10  12   0   80.50    5.92
  12  10   0   78.84    6.54
  12 -10   0   77.35    6.18
  10  12   0   79.02    5.74
 -12 -10   0   73.66    7.00
 -10 -12   0   71.45    7.13
  10 -12   0   67.76    5.29
  10 -12   0   61.43    6.77
  12 -10   0   69.98    7.48
 -12 -10   2   13.98    3.89
  12 -10  -2   22.06    3.94
 -10 -12   2   28.93    5.03
  12  10   2   23.34    4.46
  10  12   2   25.30    4.04
 -12  10  -2   26.68    4.24
 -10  12  -2   27.22    4.54
  10 -12  -2   24.50    4.23
  12 -10  -2   20.03    3.62
  12 -10  -2   25.77    4.95
  10 -12  -2   26.96    5.01
 -12 -10   4    5.83    4.20
 -10 -12   4   -4.11    3.63
  12  10   4    4.08    3.31
 -12  10  -4    2.42    3.73
  10  12   4   -1.30    3.10
 -10  12  -4    1.08    3.70
  10 -12  -4    4.46    3.50
  12 -10  -4    7.09    3.41
  12 -10  -4    2.64    3.42
  10 -12  -4   -1.96    3.54
 -12  10  -6   21.01    4.76
  12  10   6   28.99    4.86
  10  12   6   29.20    4.58
 -10  12  -6   22.64    4.45
  10 -12  -6   23.44    4.68
  12 -10  -6   33.01    4.99
 -12 -10   6   31.34    5.60
  12 -10  -6   28.53    5.53
  10 -12  -6   30.09    5.30
 -10 -12   6   33.14    5.87
 -12  10  -8   23.88    5.11
  12  10   8   21.34    4.79
  10  12   8   24.63    4.89
  12 -10  -8   29.85    5.82
 -10  12  -8   16.77    4.55
 -12 -10   8   21.61    5.18
  10 -12  -8   23.59    5.18
 -10 -12   8   17.59    5.19
  12 -10  -8   22.75    4.72
  10 -12  -8   25.03    5.49
 -12  10 -10   -0.12    3.71
  12  10  10    1.85    3.89
 -10  12 -10   -1.73    4.00
 -12 -10  10    7.30    4.19
  12 -10 -10   12.12    4.53
 -10 -12  10   -1.38    3.71
  10 -12 -10    2.32    3.74
 -12  10 -12   11.84    4.80
 -12 -10  12    4.30    4.22
 -10 -12  12    8.80    4.84
 -10  12 -12    5.05    4.10
  10 -12 -12    2.54    4.45
  12 -10 -12    5.01    4.66
  12 -10 -14    7.56    5.03
  11  12 -15   -1.81    4.58
 -12 -11 -13    0.58    4.90
 -12 -11 -11   -5.43    4.44
 -11 -12 -11   -3.89    4.69
 -12 -11  -9   11.95    4.57
 -11 -12  -9    4.80    4.29
 -12 -11  -7   38.23    5.95
 -11 -12  -7   38.91    6.20
  12 -11   7   36.26    5.12
 -11 -12  -5   13.90    5.01
  12 -11   5    8.82    3.83
 -12 -11  -5   16.89    4.61
  12 -11   3    3.13    3.38
 -12 -11  -3    3.03    3.67
 -11 -12  -3    6.54    3.90
  11  12  -1   52.60    5.44
  12  11  -1   55.52    5.68
  12 -11   1   52.38    5.33
 -12 -11  -1   62.56    6.87
 -11 -12  -1   51.27    6.69
  12 -11   1   45.47    6.44
  11 -12   1   51.90    6.77
 -12  11  -1   49.62    5.32
 -12 -11   1   56.65    6.71
  12 -11  -1   55.26    5.27
  12  11   1   48.68    5.38
 -11 -12   1   50.36    6.41
  11  12   1   48.60    5.20
 -11  12  -1   45.47    5.19
  12 -11  -1   45.79    6.18
  11 -12  -1   53.08    6.41
 -12 -11   3   -3.15    3.92
 -11 -12   3    0.70    3.83
  11 -12  -3    7.26    4.01
  12  11   3    2.14    3.23
  11  12   3   -0.90    2.96
 -12  11  -3    4.92    3.64
 -11  12  -3   -2.25    3.37
  12 -11  -3   -0.21    3.61
  11 -12  -3    4.41    3.31
  12 -11  -3   -0.05    3.15
 -11 -12   5   11.12    4.63
  12  11   5   11.81    4.03
 -12  11  -5   18.22    4.78
  11  12   5   12.37    3.70
 -11  12  -5   18.48    4.51
  11 -12  -5   16.21    4.32
  12 -11  -5   17.66    4.24
 -12 -11   5   21.15    5.10
  11 -12  -5   11.71    4.43
  12 -11  -5   17.37    4.67
 -12  11  -7   35.02    5.81
  12  11   7   33.84    5.72
  11  12   7   33.15    5.18
 -11  12  -7   27.93    5.31
  11 -12  -7   25.21    5.05
 -12 -11   7   29.32    5.54
  12 -11  -7   34.65    5.32
 -11 -12   7   38.88    6.13
  12 -11  -7   34.96    6.29
  11 -12  -7   27.89    5.59
  12 -11  -9    6.68    4.70
 -12  11  -9   13.43    4.63
  12  11   9    8.59    4.53
 -11  12  -9    4.64    3.89
  11  12   9    7.86    4.32
 -12 -11   9   18.07    5.52
 -11 -12   9   14.13    4.88
  11 -12  -9    9.07    4.32
  12 -11  -9    9.57    4.26
  11 -12  -9    5.49    4.28
 -12  11 -11   -1.27    3.91
 -11  12 -11   -5.12    4.38
 -12 -11  11    8.51    4.93
 -11 -12  11    4.48    4.54
  11 -12 -11   -3.91    4.30
  12 -11 -11    1.49    4.27
  11 -12 -13    4.91    5.01
  12 -11 -13    3.63    4.46
 -12 -12 -10   -2.89    4.15
 -12 -12  -8   16.80    5.04
 -12 -12  -6   23.02    5.22
 -12 -12  -4    2.77    3.90
  12  12  -2    9.56    3.57
 -12 -12  -2    3.68    4.22
  12 -12   2    6.27    4.11
  12 -12   0   38.96    6.24
  12  12   0   32.06    4.62
 -12 -12   0   42.86    6.27
 -12 -12   2    4.77    4.69
  12  12   2    3.59    3.19
 -12  12  -2   13.85    4.21
  12 -12  -2   15.23    4.50
 -12 -12   4    2.23    3.82
  12  12   4    1.76    3.30
 -12  12  -4    7.13    3.86
  12 -12  -4    9.47    4.52
  12  12   6   21.66    4.80
 -12  12  -6   20.40    4.68
  12 -12  -6   25.62    4.87
 -12 -12   6   26.97    5.34
  12 -12  -6   28.83    5.68
 -12  12  -8   17.33    5.22
  12  12   8   13.79    4.63
 -12 -12   8   13.08    4.85
  12 -12  -8   12.63    4.48
  12 -12  -8   25.62    5.94
 -12  12 -10   -3.25    4.10
  12 -12 -10   -1.45    4.01
  12 -12 -12    7.10    5.18
  13   0  -1    7.29    2.73
   0 -13  -1    1.52    3.24
  13   0   1    7.42    3.54
   0 -13   1   11.98    3.75
 -13   0   1   15.89    3.21
   0 -13   1    6.98    2.35
 -13   0  -1    6.89    2.52
  13   0  -1    5.61    3.01
   0 -13  -1    8.42    2.48
  13   0   1    4.31    3.18
   0 -13  -3   20.91    3.21
  13   0  -3   26.08    4.12
 -13   0   3   27.38    3.98
  13   0   3   24.38    4.80
   0 -13  -3   21.71    4.24
 -13   0  -3   27.81    3.24
   0 -13   3   22.68    3.85
  13   0  -3   35.76    4.58
 -13   0   5  151.73    7.80
 -13   0  -5  137.35    6.39
 -13   0  -5  133.44    5.60
  13   0   5  148.28    9.07
   0 -13   5  122.65    7.25
   0 -13  -5  127.59    8.15
   0 -13  -5  138.80    8.51
  13   0  -5  144.99    8.12
  13   0  -5  123.60    7.31
 -13   0  -7  155.46    7.48
 -13   0  -7  154.38    5.85
   0 -13   7  165.22    8.54
  13   0   7  158.84    9.72
   0 -13  -7  141.63    8.88
  13   0  -7  159.22    8.85
   0  13  -7  154.98    9.46
 -13   0  -9   67.72    5.84
   0 -13   9   60.10    5.56
  13   0  -9   64.96    6.46
  13   0   9   51.81    6.34
   0 -13  -9   56.01    6.58
   0  13  -9   54.76    6.38
  13   0 -11   -5.80    4.05
 -13   0 -11    3.69    3.52
  13   0  11    1.67    3.99
   0 -13  11   -3.69    3.22
   0 -13 -11    1.17    3.97
   0  13 -11    0.55    3.71
  13   0 -13    8.82    4.34
 -13   0 -13    5.06    3.53
   0 -13  13    3.90    3.23
  13   0  13    7.40    4.83
   0 -13 -13   -0.06    4.14
   0  13 -13    6.59    4.39
  13   0 -15   -4.48    4.82
 -13   0 -15   -3.05    3.91
   0 -13 -15   -2.08    3.96
   0  13 -15    3.10    4.04
 -13   0 -17   -5.83    4.36
 -13  -1 -18   -4.19    4.47
  13   1 -16   -0.13    4.61
 -13  -1 -16    5.03    4.01
  -1 -13 -16   -3.75    4.33
   1  13 -16    3.78    4.45
  13   1 -14   13.90    4.94
 -13  -1 -14    1.67    3.36
  -1 -13 -14   17.96    5.22
   1  13 -14   16.42    5.19
  13   1 -12   18.06    5.01
 -13  -1 -12   16.73    3.97
   1 -13  12   10.94    3.44
  13  -1  12   14.80    5.04
  -1 -13 -12   10.94    4.12
   1  13 -12   24.55    5.50
  13   1 -10    5.41    3.84
 -13  -1 -10    3.34    2.74
  13  -1  10   -3.23    4.09
   1 -13  10   -0.19    2.84
  -1 -13 -10    0.31    3.54
   1  13 -10   -3.61    3.68
  13   1  -8   19.26    4.35
 -13  -1  -8   24.65    3.56
  13  -1   8   30.20    5.12
 -13  -1  -8   23.05    3.12
  -1 -13  -8   23.54    4.72
   1 -13   8   31.05    4.22
   1  13  -8   25.35    4.75
 -13  -1  -6   27.63    3.06
  13   1  -6   34.14    4.37
  -1 -13  -6   26.13    4.49
 -13  -1  -6   30.79    3.61
   1 -13   6   27.99    4.18
  13  -1   6   28.26    5.14
  -1 -13  -6   27.95    4.74
  13   1  -6   32.30    4.49
  13  -1   4   -6.98    4.01
   1 -13   4   -0.02    2.96
  -1 -13  -4   -0.40    3.39
 -13  -1  -4    2.15    2.15
  13   1  -4    2.97    2.94
 -13   1   2   49.41    4.55
  -1 -13  -2   50.76    5.53
 -13  -1  -2   50.21    4.15
   1 -13   2   52.37    4.98
  13  -1   2   48.99    5.69
  13  -1   2   44.61    3.29
  -1 -13  -2   46.57    3.63
  13   1  -2   46.44    4.79
 -13   1   0  145.16    6.39
 -13  -1   0  141.34    6.70
   1 -13   0  128.80    7.33
  -1 -13   0  128.98    7.71
  13  -1   0  133.61    5.94
  13  -1   0  136.38    7.85
  13   1   0  135.10    7.32
   1 -13   0  127.10    6.05
  -1 -13   0  131.19    5.21
  -1 -13   2   50.10    5.26
 -13   1  -2   50.35    3.81
 -13  -1   2   51.51    4.93
  13  -1  -2   42.65    4.20
  13   1   2   53.51    5.82
   1 -13  -2   49.66    5.35
  -1 -13   2   39.49    3.33
   1 -13  -2   45.47    4.07
  13  -1  -2   46.14    5.06
  13  -1  -4    4.65    2.97
 -13  -1   4   -2.07    2.72
  13   1   4    9.02    3.68
 -13   1  -4    1.99    1.69
   1 -13  -4   -1.29    3.42
  -1 -13   4   -2.98    3.49
   1 -13  -4    2.45    3.52
  13  -1  -4   -0.40    2.95
   1 -13  -4    3.18    2.65
 -13   1  -6   33.00    2.71
  13  -1  -6   25.36    4.29
 -13  -1   6   35.84    4.69
  -1 -13   6   35.89    4.72
 -13   1  -6   27.61    3.82
  13   1   6   19.19    4.68
   1 -13  -6   33.99    5.20
  -1  13  -6   28.41    4.95
  13  -1  -6   24.78    4.35
 -13  -1   8   27.05    4.52
  13  -1  -8   23.53    4.20
 -13   1  -8   25.58    3.89
  13   1   8   21.40    4.58
   1 -13  -8   24.40    4.84
  -1  13  -8   25.72    5.12
  -1 -13   8   20.17    3.83
  13  -1 -10   -1.40    3.52
 -13   1 -10    3.29    2.95
  13   1  10   -1.31    3.76
   1 -13 -10    0.79    3.56
  -1 -13  10    2.12    3.10
  -1  13 -10   -6.41    4.30
  13  -1 -12   13.38    4.46
 -13   1 -12   21.54    4.56
  13   1  12    8.75    4.57
  -1 -13  12   19.57    4.46
   1 -13 -12   16.98    4.84
  -1  13 -12   14.29    5.06
  13  -1 -14   12.07    4.84
 -13   1 -14   14.61    4.30
  -1 -13  14   14.05    4.40
   1 -13 -14   15.72    5.31
  -1  13 -14   13.05    5.17
  13  -1 -16   -0.58    4.50
  -1 -13  16   -1.81    3.70
 -13   1 -16    2.26    4.24
  -1  13 -16   -2.06    4.41
   1 -13 -16    1.73    4.28
 -13   1 -18    5.50    4.54
 -13  -2 -17   -6.97    4.48
  13   2 -15    4.02    4.20
 -13  -2 -15    3.11    3.40
  -2 -13 -15    7.82    4.65
   2  13 -15    7.61    4.94
  13   2 -13   15.45    4.96
 -13  -2 -13   13.30    3.83
   2  13 -13   10.11    4.39
  13  -2  13   21.90    5.66
  -2 -13 -13    4.35    3.91
  13   2 -11   14.67    4.49
 -13  -2 -11    9.42    3.41
   2 -13  11   11.69    3.38
  13  -2  11    7.94    4.40
  -2 -13 -11    5.81    3.82
   2  13 -11    8.30    4.21
  13   2  -9   10.50    4.25
 -13  -2  -9    7.88    2.94
  13  -2   9    8.24    4.45
   2  13  -9   11.27    4.52
  -2 -13  -9    4.18    3.49
   2 -13   9    9.64    3.24
 -13  -2  -9    3.16    2.30
   2 -13   7   32.06    4.05
  13   2  -7   28.35    4.34
  -2 -13  -7   37.72    5.51
 -13  -2  -7   34.88    3.81
  13  -2   7   35.01    5.53
 -13  -2  -7   35.30    3.85
  -2 -13  -7   41.66    5.46
 -13  -2  -5   21.71    3.41
 -13  -2  -5   19.69    2.95
  13  -2   5   20.36    4.50
   2 -13   5   21.78    3.72
  -2 -13  -5   28.03    5.20
  13   2  -5   21.32    4.10
 -13  -2  -3    2.81    2.71
  13  -2   3    1.89    1.57
  -2 -13  -3   -3.86    3.48
  13  -2   3    2.48    3.32
  13   2  -3   -1.71    2.99
   2 -13   3    0.79    2.72
 -13  -2  -1   59.10    4.75
  13  -2   1   60.34    5.94
   2 -13   1   54.82    5.08
  -2 -13  -1   46.68    5.37
  13  -2   1   48.09    3.57
  13  -2   1   57.00    5.59
  13   2  -1   47.66    4.67
  -2 -13  -1   52.67    3.30
   2 -13   1   45.27    4.23
 -13   2  -1   49.93    3.68
 -13  -2   1   56.41    4.97
   2 -13  -1   59.42    5.41
  13   2   1   55.10    5.88
  -2 -13   1   61.35    5.93
  13  -2  -1   55.40    4.32
  13   2   1   51.52    4.83
  13  -2  -1   51.28    5.46
  -2 -13   1   50.31    3.21
   2 -13  -1   55.37    4.57
  13  -2  -3   -3.92    2.95
 -13   2  -3    3.08    1.67
   2 -13  -3   -2.06    3.29
  13   2   3    4.19    3.18
 -13  -2   3    5.67    2.93
   2 -13  -3    2.44    3.65
  -2 -13   3    0.00    3.23
  13  -2  -3   -0.27    2.93
   2 -13  -3   -0.11    2.54
  13  -2  -5   23.38    4.23
  13  -2  -5   24.02    4.20
 -13  -2   5   22.73    4.06
  13   2   5   24.14    4.67
  -2 -13   5   19.59    4.07
   2 -13  -5   18.02    4.21
  -2  13  -5   11.25    3.62
   2 -13  -5   21.62    3.72
  -2 -13   7   30.26    4.51
  13  -2  -7   39.59    4.92
 -13  -2   7   32.15    4.65
 -13   2  -7   35.08    4.30
  13   2   7   41.80    5.79
  -2  13  -7   23.84    4.70
   2 -13  -7   41.60    5.52
  13  -2  -7   27.49    4.48
  13  -2  -9    7.05    3.87
 -13  -2   9    3.93    3.53
 -13   2  -9    3.56    3.03
  13   2   9    5.67    3.77
   2 -13  -9    7.97    3.64
  -2  13  -9    1.31    3.43
  -2 -13   9    1.77    3.03
  13  -2 -11   12.29    4.51
 -13   2 -11    9.83    3.93
  13   2  11   11.89    4.77
  -2 -13  11    9.04    3.19
   2 -13 -11   -2.75    3.74
  -2  13 -11   16.13    4.78
  13  -2 -13   23.38    5.52
 -13   2 -13   10.28    4.20
  -2 -13  13   10.61    4.02
  13   2  13   11.54    5.17
   2 -13 -13   21.25    5.23
  -2  13 -13    7.79    4.62
  13  -2 -15    8.00    4.73
 -13   2 -15    5.20    4.02
  -2 -13  15    6.52    4.23
  -2  13 -15    5.94    4.67
   2 -13 -15   -0.69    4.47
  -2 -13  17   -0.78    4.29
 -13   2 -17    1.97    3.89
 -13  -3 -18   -6.59    4.55
  13   3 -16    1.92    4.54
 -13  -3 -16   -4.45    3.56
  -3 -13 -16    3.55    4.52
   3  13 -16    1.39    4.32
  13   3 -14    9.61    4.79
 -13  -3 -14   11.24    4.03
  -3 -13 -14   13.45    4.74
   3  13 -14    6.34    4.49
  13   3 -12   19.73    5.45
 -13  -3 -12   16.62    4.03
  13  -3  12   22.51    5.90
  -3 -13 -12   14.70    4.83
   3  13 -12   14.89    4.79
 -13  -3 -10    0.58    2.50
   3  13 -10   -7.91    4.45
 -13  -3 -10    1.81    2.79
  13   3 -10   -3.09    3.78
  -3 -13 -10    3.38    3.70
  13  -3  10    3.10    3.99
  -3 -13 -10   -3.95    4.16
  -3 -13  -8   15.54    4.13
 -13  -3  -8   14.19    2.92
  13  -3   8   11.23    4.15
  -3 -13  -8   15.38    4.43
 -13  -3  -8   16.71    3.36
   3 -13   8   18.39    3.36
   3 -13   6   31.97    4.03
 -13  -3  -6   24.45    3.24
  13  -3   6   22.44    4.48
 -13  -3  -6   31.35    4.02
  -3 -13  -6   30.04    5.05
  -3 -13  -4   13.76    4.32
 -13  -3  -4   10.15    3.06
 -13  -3  -4    6.77    2.10
  13  -3   4    7.75    3.64
   3 -13   4   11.03    2.98
  13   3  -4   13.42    3.59
 -13  -3  -2   13.43    3.36
   3 -13   2   11.81    3.25
  13  -3   2   12.30    3.83
  -3 -13  -2   14.12    4.01
  13   3  -2    8.49    2.92
  13  -3   2   12.80    2.03
 -13  -3   0   65.19    5.28
  -3 -13   0   61.18    5.86
  13  -3   0   60.15    4.19
  13  -3   0   67.48    6.15
   3 -13   0   64.00    5.22
  13   3   0   55.02    4.72
   3 -13   0   60.90    5.08
  13  -3  -2   12.62    3.17
  13   3   2   15.61    4.01
  -3  13  -2   10.17    3.68
 -13  -3   2   14.62    3.43
  -3 -13   2   13.03    4.31
  13   3   2   14.18    3.03
  -3 -13   2    9.04    1.60
  13  -3  -2   12.30    3.88
   3 -13  -2    8.32    3.07
   3 -13  -2    8.99    3.32
  13  -3  -4    9.96    2.98
  13   3   4   12.83    4.11
 -13  -3   4    5.48    2.82
   3 -13  -4    7.10    3.34
  -3 -13   4    5.85    3.47
   3 -13  -4    7.40    3.63
  -3  13  -4   10.80    3.68
   3 -13  -4    5.77    2.98
  13  -3  -4    7.75    3.27
  13  -3  -6   29.18    4.47
  13  -3  -6   33.58    5.13
  -3 -13   6   25.76    4.44
 -13  -3   6   28.69    4.51
  13   3   6   30.39    5.28
   3 -13  -6   31.98    4.88
  -3  13  -6   29.71    4.74
   3 -13  -6   39.25    4.90
  13  -3  -8   21.89    4.12
 -13  -3   8   17.71    4.46
 -13   3  -8   15.32    3.71
  13   3   8   16.82    4.73
   3 -13  -8   16.27    4.47
  -3  13  -8   13.55    4.29
  -3 -13   8   18.49    4.22
  13  -3  -8   15.73    4.32
  13  -3 -10    0.41    3.81
 -13  -3  10   -0.93    3.34
 -13   3 -10   -3.67    3.32
  13   3  10    7.07    4.46
   3 -13 -10    0.76    3.61
  -3 -13  10    7.32    3.34
  -3  13 -10   -5.27    4.16
  13  -3 -12   22.57    5.14
 -13   3 -12   12.42    4.13
  13   3  12    9.52    4.95
  -3 -13  12   19.49    4.56
   3 -13 -12   28.00    5.69
  -3  13 -12   21.84    5.34
  13  -3 -14   11.11    5.13
 -13   3 -14    2.39    3.54
  -3 -13  14   18.20    4.68
  -3  13 -14   13.56    5.06
   3 -13 -14    7.15    4.43
  13  -3 -16    5.18    4.40
 -13   3 -16    1.31    3.87
  -3 -13  16    5.39    4.42
  -3 -13  18   -4.57    4.81
 -13  -4 -17    5.18    4.25
  13   4 -15    8.89    5.21
 -13  -4 -15   -0.22    3.34
  -4 -13 -15    1.94    4.12
   4  13 -15    7.00    4.58
 -13  -4 -13   18.31    4.11
  13   4 -13   14.36    4.73
  -4 -13 -13   26.18    5.49
   4  13 -13   19.64    4.96
 -13  -4 -11   11.09    3.39
  13   4 -11   -1.09    4.46
 -13  -4 -11    9.02    3.10
  13  -4  11    6.61    4.44
  -4 -13 -11    5.91    3.79
  -4 -13 -11   13.79    4.69
   4  13 -11   18.64    4.65
 -13  -4  -9    6.17    2.96
 -13  -4  -9   -0.05    2.65
  13  -4   9    6.24    4.07
  -4 -13  -9   -0.11    3.70
 -13  -4  -7   27.79    3.54
  13  -4   7   29.63    5.29
 -13  -4  -7   30.42    4.26
  -4 -13  -7   26.85    4.82
   4 -13   7   29.00    3.43
 -13  -4  -5   11.41    2.38
  -4 -13  -5   12.45    4.18
   4 -13   5   20.33    3.19
  13  -4   5    8.68    3.82
 -13  -4  -5   17.40    3.85
 -13  -4  -3    4.25    2.93
 -13  -4  -3   -0.67    1.45
  13  -4   3    1.29    3.10
   4 -13   3    1.03    2.46
  13   4  -3    6.31    2.84
 -13  -4  -1   58.95    5.25
  -4 -13  -1   64.23    6.07
  13  -4   1   53.64    5.66
  13  -4   1   47.01    3.20
  13  -4   1   47.81    5.47
   4 -13   1   58.99    5.38
   4 -13   1   54.87    4.75
  13   4  -1   52.53    4.46
  -4 -13   1   49.76    5.44
 -13  -4   1   55.17    5.27
   4 -13  -1   55.41    5.01
  13   4   1   51.51    5.58
  -4  13  -1   59.18    5.39
  13  -4  -1   45.38    3.96
  13   4   1   50.48    4.26
  13  -4  -1   49.09    5.64
   4 -13  -1   49.42    4.76
  13  -4  -3    5.22    2.92
  13   4   3   -1.28    3.30
  -4  13  -3    6.05    3.49
   4 -13  -3    2.06    3.30
 -13  -4   3    7.23    3.62
  -4 -13   3   -1.72    3.43
   4 -13  -3    3.01    3.14
  13  -4  -3    2.03    3.22
   4 -13  -3    2.75    2.58
  13  -4  -5   14.12    3.44
  -4 -13   5   17.38    4.25
  13   4   5   11.36    3.63
 -13  -4   5   18.73    4.08
   4 -13  -5   13.64    3.93
  -4  13  -5   19.65    4.31
  13  -4  -5   12.33    4.10
   4 -13  -5   13.55    3.43
  13  -4  -7   30.22    4.36
  -4 -13   7   21.14    4.44
  13  -4  -7   26.42    5.15
 -13  -4   7   24.76    4.49
  13   4   7   18.20    4.38
   4 -13  -7   25.11    4.86
  -4  13  -7   21.51    4.81
  13  -4  -9    4.39    3.51
 -13   4  -9   -2.63    3.31
 -13  -4   9   -1.88    3.42
  13   4   9    3.35    4.21
   4 -13  -9   -1.95    3.88
  -4  13  -9    5.39    4.10
  -4 -13   9    4.39    3.85
  13  -4 -11   11.91    4.60
 -13  -4  11   17.26    4.70
 -13   4 -11   10.58    3.82
  13   4  11   12.93    4.88
  -4 -13  11   16.25    4.44
   4 -13 -11    9.72    4.42
  -4  13 -11    6.92    3.96
  13  -4 -13   11.94    4.90
 -13   4 -13   19.83    4.69
  -4 -13  13   18.17    4.99
  13   4  13   16.68    5.44
  -4  13 -13   20.85    5.66
   4 -13 -13   30.58    5.78
  13  -4 -15   -1.52    4.59
 -13   4 -15    2.02    3.83
  -4 -13  15    3.35    4.41
  -4  13 -15    2.03    4.60
   4 -13 -15    4.60    4.39
  -4 -13  17   -2.18    4.16
 -13  -5 -18   -1.43    4.15
 -13  -5 -16   -0.44    3.83
  -5 -13 -16   -0.66    4.25
   5  13 -16    5.68    4.60
 -13  -5 -14   11.11    3.89
  13   5 -14    7.95    4.83
  -5 -13 -14   13.03    5.14
   5  13 -14   10.71    5.04
  -5 -13 -14   12.02    5.38
 -13  -5 -12   12.21    3.54
 -13  -5 -12   17.89    4.20
  13  -5  12   20.73    5.55
  -5 -13 -12   16.58    4.80
  -5 -13 -12   23.65    5.29
   5  13 -12   14.88    4.84
 -13  -5 -10    2.61    2.60
 -13  -5 -10    3.17    2.89
  13  -5  10   -4.65    3.93
  -5 -13 -10    1.99    3.81
 -13  -5  -8   11.34    2.91
  13  -5   8    9.58    3.88
  -5 -13  -8    5.79    3.52
 -13  -5  -8   10.35    3.22
 -13  -5  -6   13.98    2.68
  -5 -13  -6   16.01    4.32
  13  -5   6   16.39    4.24
 -13  -5  -6   16.69    3.88
  13  -5   4    2.70    3.21
 -13  -5  -4    3.96    2.84
   5 -13   4    0.87    2.37
  -5 -13  -4    5.11    3.59
 -13  -5  -2   40.64    4.70
   5 -13   2   37.19    3.95
  13  -5   2   30.83    4.89
  -5 -13  -2   36.92    5.16
  -5  13   2   30.25    3.96
  13   5  -2   37.95    4.02
   5 -13   0   99.52    6.01
 -13  -5   0  107.63    7.15
  -5  13   0   85.82    6.10
  13  -5   0   93.77    4.85
  -5 -13   0  102.69    7.41
  13  -5   0   96.20    7.50
   5 -13   0   95.70    6.66
  13   5   0   88.56    5.22
  13   5   2   37.52    5.25
  13  -5  -2   36.05    5.33
   5 -13  -2   33.56    4.87
   5 -13  -2   36.80    4.36
  -5 -13   2   32.01    4.87
 -13  -5   2   39.40    4.99
  -5  13  -2   36.98    4.84
  13   5   2   26.44    3.22
   5 -13  -2   39.65    4.68
  13  -5  -2   36.30    3.76
  13   5   4    0.08    3.24
  -5 -13   4   -6.37    3.71
   5 -13  -4   -1.61    3.32
 -13  -5   4   -2.09    3.11
  -5  13  -4   -7.17    3.67
  13  -5  -4   -1.03    3.35
   5 -13  -4   -1.32    3.10
  13  -5  -4   -3.09    2.71
  13  -5  -6   15.28    3.67
  -5 -13   6   13.07    4.10
  13   5   6   20.91    4.72
 -13  -5   6   10.92    3.60
   5 -13  -6   20.65    4.44
  -5  13  -6    9.99    3.58
  13  -5  -6   10.25    3.68
   5 -13  -6   19.06    4.03
  13  -5  -8   14.91    4.10
 -13  -5   8   10.49    4.11
  13   5   8    5.83    4.10
   5 -13  -8   11.26    4.20
  -5  13  -8   10.64    4.10
  -5 -13   8    4.64    3.63
  13  -5  -8   12.82    4.28
  13  -5 -10   -4.31    4.09
 -13  -5  10   -2.70    3.78
  13   5  10   -5.03    4.36
  -5  13 -10    5.70    4.37
   5 -13 -10    2.88    3.88
  -5 -13  10    6.75    3.90
  13  -5 -12   20.12    4.88
 -13  -5  12   17.23    4.32
 -13   5 -12   12.04    4.36
  13   5  12   19.54    5.45
  -5 -13  12   11.00    4.64
  -5  13 -12   24.24    5.60
   5 -13 -12   10.83    4.35
  13  -5 -14    7.86    4.74
 -13   5 -14    5.60    3.96
  -5 -13  14   15.83    5.36
  -5  13 -14   15.47    5.11
   5 -13 -14   -0.40    4.06
 -13   5 -16    3.20    4.37
  -5 -13  16   -0.37    4.11
  13  -5 -16   -2.47    4.62
 -13   6  17    2.76    3.93
 -13  -6 -17   -5.15    4.48
 -13   6  15    7.30    3.99
 -13  -6 -15    5.35    3.91
  -6 -13 -15    4.01    4.29
   6  13 -15    0.88    4.23
 -13   6  13   13.45    3.87
  -6 -13 -13   18.71    5.47
 -13  -6 -13   14.61    4.30
 -13  -6 -13   11.71    3.90
   6  13 -13   12.95    4.98
 -13  -6 -11    8.85    3.16
  -6 -13 -11    5.20    3.85
 -13  -6 -11    8.39    3.73
  13  -6  11   16.59    5.01
 -13  -6  -9   -2.14    3.25
 -13  -6  -9   -1.36    2.46
  13  -6   9   -0.73    3.71
  -6 -13  -9    0.40    3.82
 -13  -6  -7   20.89    3.07
  -6 -13  -7   20.63    4.73
  13  -6   7   19.35    4.28
 -13  -6  -7   24.51    4.21
  13  -6   5    8.89    3.79
 -13  -6  -5   15.97    3.68
  -6 -13  -5   13.66    4.26
  -6  13   5   10.26    2.73
  13  -6   3    1.80    3.13
 -13  -6  -3    2.32    3.15
  -6 -13  -3    0.38    3.37
  -6  13   3    5.05    2.64
   6 -13   3   -0.64    2.32
  -6 -13  -1   45.31    5.56
 -13  -6  -1   45.06    5.20
  13  -6   1   44.55    5.25
  -6  13   1   50.04    4.87
  13  -6   1   37.03    5.46
  13   6  -1   50.38    4.06
   6 -13   1   50.86    4.38
   6 -13   1   37.11    4.77
 -13  -6   1   50.06    5.49
   6 -13  -1   46.63    4.59
  13   6   1   45.40    5.37
   6 -13  -1   39.16    4.84
  13  -6  -1   48.28    4.12
  -6  13  -1   46.50    5.02
  -6 -13   1   45.36    5.65
  13   6   1   39.32    3.60
  13  -6  -1   41.66    5.85
   6 -13  -1   47.05    5.24
  13   6   3    0.08    3.62
  -6 -13   3    0.17    3.35
   6 -13  -3   -2.27    2.99
  13  -6  -3   -0.86    2.57
  -6  13  -3    5.33    3.22
 -13  -6   3   -3.76    3.62
  13   6   3    3.13    2.06
  13  -6  -3    2.55    3.14
   6 -13  -3    0.51    2.93
  -6 -13   5   17.87    4.13
  13   6   5   17.79    4.69
  13  -6  -5    7.35    3.69
 -13  -6   5   14.43    4.07
   6 -13  -5    5.86    3.58
  -6  13  -5   12.71    4.23
  13  -6  -5   15.09    3.79
   6 -13  -5    8.75    3.46
  -6 -13   7   31.77    5.14
  13   6   7   19.49    4.68
  13  -6  -7   25.02    4.44
 -13  -6   7   21.51    4.51
   6 -13  -7   21.68    4.72
  -6  13  -7   20.35    4.52
  13  -6  -7   23.06    4.97
   6 -13  -7   32.84    5.11
 -13  -6   9   -1.97    3.52
  13   6   9    2.98    3.86
  -6  13  -9    1.25    3.42
   6 -13  -9    3.16    3.70
  -6 -13   9   -1.36    3.51
  13  -6  -9   -3.04    3.55
  13  -6  -9    6.80    4.03
 -13  -6  11   10.99    4.37
  13   6  11   15.62    5.12
  -6 -13  11    8.92    4.29
  -6  13 -11    4.33    4.49
   6 -13 -11    9.26    4.14
  13  -6 -11   10.35    4.19
 -13  -6  13   18.38    5.25
 -13   6 -13   16.54    5.16
  -6 -13  13   17.37    5.11
  13   6  13   26.64    6.33
  -6  13 -13   14.86    5.42
   6 -13 -13   15.30    5.09
  13  -6 -13   13.19    4.79
 -13   6 -15    2.17    3.90
  -6 -13  15    7.00    4.56
  13  -6 -15    8.77    5.04
 -13  -7 -16    1.56    4.02
 -13  -7 -14   -4.74    3.52
  -7 -13 -14   -0.75    4.91
 -13  -7 -14    2.53    3.71
   7  13 -14    4.25    4.08
  -7 -13 -12    2.18    4.07
 -13  -7 -12    9.02    3.65
 -13  -7 -12    6.99    3.74
 -13  -7 -10   -2.12    3.31
  13  -7  10    6.08    4.51
  -7 -13 -10   -0.81    3.86
 -13  -7  -8   29.00    5.11
  -7 -13  -8   34.06    5.85
  13  -7   8   28.31    5.60
  13  -7   6   60.48    6.42
 -13  -7  -6   64.14    6.25
  -7 -13  -6   55.69    6.54
  13  -7   4   20.59    4.31
  -7 -13  -4   22.96    4.94
 -13  -7  -4   26.39    4.67
  -7  13   4   23.88    3.54
  -7 -13  -2   -6.77    3.97
 -13  -7  -2    4.80    3.38
  13  -7   2   -5.02    3.61
  -7  13   2    1.81    2.52
 -13  -7   0   19.47    4.14
   7 -13   0    7.45    2.65
  13   7   0   18.96    4.03
  13  -7   0   21.36    4.27
  -7  13   0   21.26    3.96
  -7 -13   0   12.60    3.92
  13  -7   0   14.78    4.08
   7 -13   0   18.40    4.28
  13   7   2   -1.98    3.42
   7 -13  -2    3.66    2.78
  -7 -13   2    5.33    3.56
   7 -13  -2   -2.25    3.24
  -7  13  -2  -10.99    3.91
  13  -7  -2    2.71    2.61
  13  -7  -2    2.93    3.22
   7 -13  -2    2.79    3.12
 -13  -7   2   -0.57    3.41
  -7 -13   4   21.22    4.63
  13   7   4   24.35    4.78
  13  -7  -4   24.60    3.79
   7 -13  -4   23.12    4.28
  -7  13  -4   25.20    4.66
 -13  -7   4   18.39    4.15
  13  -7  -4   29.48    5.04
   7 -13  -4   23.86    4.54
  -7 -13   6   51.27    6.61
  -7  13  -6   64.66    6.63
  13   7   6   52.28    6.39
   7 -13  -6   63.61    6.38
  13  -7  -6   59.52    5.69
 -13  -7   6   46.94    5.95
  13  -7  -6   56.66    6.34
   7 -13  -6   56.51    6.22
 -13   7  -8   29.90    5.09
  13   7   8   31.38    5.76
 -13  -7   8   34.94    5.61
  -7  13  -8   24.92    5.01
   7 -13  -8   32.86    5.19
  -7 -13   8   30.49    5.34
  13  -7  -8   32.76    5.13
  13  -7  -8   36.83    5.86
   7 -13  -8   36.69    5.49
 -13   7 -10    0.81    3.52
 -13  -7  10    1.71    3.78
  13   7  10   -0.17    3.95
  -7  13 -10    3.47    3.88
  -7 -13  10   -4.79    3.90
   7 -13 -10    5.81    4.27
  13  -7 -10    0.60    3.73
 -13   7 -12    2.69    3.97
 -13  -7  12    0.31    4.11
  13   7  12   15.34    5.20
  -7 -13  12    1.08    3.72
  -7  13 -12    1.25    3.94
   7 -13 -12    4.33    4.06
  13  -7 -12    1.31    3.86
 -13  -7  14    0.07    4.46
  -7 -13  14    1.96    4.03
  -7  13 -14   12.16    5.70
   7 -13 -14   -4.55    5.04
  13  -7 -14    8.97    4.78
   8  13 -15    0.78    4.53
 -13  -8 -15    1.52    4.25
   8  13 -13    1.05    4.23
 -13  -8 -13   10.26    4.34
  -8 -13 -13   10.59    4.87
  -8 -13 -11    9.53    4.21
 -13  -8 -11    3.79    3.60
  -8 -13  -9   14.56    4.59
 -13  -8  -9    7.59    3.78
  13  -8   9    7.56    4.44
  13  -8   7   42.39    5.96
  -8 -13  -7   23.28    5.22
 -13  -8  -7   37.07    5.38
  -8 -13  -5   17.32    4.43
  13  -8   5   14.76    4.59
 -13  -8  -5   15.32    4.24
  -8 -13  -3    0.24    3.45
  13  -8   3   -1.76    3.39
 -13  -8  -3   -2.52    3.19
  -8  13   3    0.89    2.48
 -13  -8  -1   58.41    6.00
  -8  13   1   52.90    5.06
  -8 -13  -1   56.40    6.53
  13  -8   1   53.81    5.57
   8 -13   1   53.06    5.93
  13  -8   1   47.97    6.14
 -13  -8   1   53.10    5.93
  13  -8  -1   46.21    5.36
   8 -13  -1   48.71    4.45
  13   8   1   54.71    5.94
   8 -13  -1   54.33    5.37
  -8 -13   1   50.26    6.32
  -8  13  -1   46.33    5.23
  13  -8  -1   50.85    6.13
   8 -13  -1   43.40    5.37
 -13   8  -3    0.32    2.88
  -8 -13   3    4.54    3.95
  13   8   3   -0.26    3.35
   8 -13  -3   -0.46    3.09
  -8  13  -3   -0.71    3.40
  13  -8  -3    4.22    2.90
  13  -8  -3    1.06    3.23
   8 -13  -3    4.24    3.17
 -13  -8   3    7.97    3.99
  -8 -13   5   12.19    4.20
 -13   8  -5   18.17    3.96
  13   8   5   16.74    4.42
  -8  13  -5   22.28    4.42
   8 -13  -5   15.25    4.15
 -13  -8   5   24.21    5.22
  13  -8  -5   14.03    3.55
  13  -8  -5    9.30    3.75
   8 -13  -5   18.60    4.58
 -13   8  -7   39.37    5.57
  13   8   7   36.03    5.44
 -13  -8   7   41.83    5.73
  -8  13  -7   34.21    5.41
   8 -13  -7   34.81    5.29
  13  -8  -7   32.61    5.24
  13  -8  -7   32.57    5.51
   8 -13  -7   27.82    5.23
  -8 -13   7   38.31    5.80
 -13   8  -9   11.85    4.45
  13   8   9    5.03    4.30
 -13  -8   9    1.99    3.82
  -8  13  -9   12.50    4.85
   8 -13  -9    0.64    3.68
  -8 -13   9    1.13    3.75
  13  -8  -9    7.67    4.11
  13  -8  -9   14.69    5.14
 -13   8 -11    2.88    3.81
 -13  -8  11    0.30    3.78
  13   8  11    6.10    4.09
  -8  13 -11   -1.64    4.10
  -8 -13  11    5.26    4.17
   8 -13 -11    5.70    4.31
  13  -8 -11    0.53    4.01
 -13  -8  13   10.71    5.01
 -13   8 -13   14.92    4.85
  -8 -13  13   11.74    4.99
  -8  13 -13    9.27    5.02
   8 -13 -13   14.89    5.44
  13  -8 -13   11.37    4.64
 -13  -9 -16    4.83    4.94
 -13  -9 -14    2.78    4.26
   9  13 -14   12.35    5.35
  -9 -13 -12    2.06    4.13
 -13  -9 -12   -0.45    4.02
 -13  -9 -10    1.19    3.51
  13  -9  10    1.56    3.83
  -9 -13 -10    2.45    3.86
 -13  -9  -8   34.94    5.58
  13  -9   8   31.68    5.67
  -9 -13  -8   31.19    5.59
  -9 -13  -6   29.87    5.33
  13  -9   6   35.65    5.51
 -13  -9  -6   48.06    6.29
  -9 -13  -4    2.23    3.67
  13  -9   4    5.26    3.48
 -13  -9  -4    1.97    3.73
  13  -9   2   25.68    4.51
 -13  -9  -2   28.58    5.16
  -9  13   2   27.87    4.03
  -9 -13  -2   22.18    5.18
 -13  -9   0   73.00    6.81
  -9  13   0   77.29    6.24
  13   9   0   69.37    6.68
  13  -9   0   68.59    6.28
  -9 -13   0   65.98    6.92
  13  -9   0   66.48    7.25
   9 -13   0   83.77    7.61
 -13  -9   2   25.66    5.12
 -13   9  -2   19.96    3.71
  13   9   2   23.34    4.68
  -9 -13   2   15.07    4.46
   9 -13  -2   27.63    4.38
  -9  13  -2   18.95    4.06
  13  -9  -2   17.76    4.35
   9 -13  -2   16.03    4.50
  -9 -13   4    3.76    3.81
 -13   9  -4    6.08    3.53
  13   9   4    2.07    3.66
 -13  -9   4   -0.97    3.45
  -9  13  -4    1.64    3.44
   9 -13  -4    4.80    3.58
  13  -9  -4    0.11    2.97
  13  -9  -4   -4.59    3.61
   9 -13  -4    2.14    3.33
  -9 -13   6   37.13    5.94
 -13   9  -6   36.23    5.22
  13   9   6   44.23    5.76
  -9  13  -6   28.25    5.00
   9 -13  -6   40.73    5.40
 -13  -9   6   44.71    6.33
  13  -9  -6   41.38    5.35
  13  -9  -6   43.49    6.23
   9 -13  -6   39.77    5.86
 -13   9  -8   25.27    5.08
  13   9   8   24.92    5.25
 -13  -9   8   38.99    6.10
  -9  13  -8   24.91    5.36
   9 -13  -8   27.51    5.27
  -9 -13   8   35.42    5.99
  13  -9  -8   39.67    5.70
  13  -9  -8   34.25    6.09
   9 -13  -8   36.58    6.36
 -13   9 -10   -0.57    3.77
 -13  -9  10    5.34    4.16
  13   9  10    5.24    4.26
  -9  13 -10   -2.66    3.79
  -9 -13  10    4.01    4.04
   9 -13 -10    2.23    3.87
  13  -9 -10    3.82    4.12
 -13   9 -12    0.05    4.30
 -13  -9  12    3.24    4.20
  13   9  12   13.63    5.39
  -9 -13  12    1.82    4.30
  -9  13 -12    5.85    4.46
   9 -13 -12    2.83    4.73
  13  -9 -12    4.56    4.06
  13  -9 -14    6.87    4.98
 -13 -10 -13   15.75    5.80
 -13 -10 -11    2.33    4.23
 -10 -13 -11    4.51    4.12
 -13 -10  -9    3.35    3.72
  13 -10   9    5.20    4.08
 -10 -13  -9    4.84    4.66
 -13 -10  -7   31.68    5.71
 -10 -13  -7   23.06    5.33
  13 -10   7   18.73    4.79
 -10 -13  -5   10.11    4.32
  13 -10   5   10.54    4.08
 -13 -10  -5   13.33    4.52
  13 -10   3    2.12    3.32
 -13 -10  -3    2.26    3.95
 -10 -13  -3   -3.15    3.68
  13  10  -1   50.41    5.70
 -13 -10  -1   58.79    6.61
  13 -10   1   52.49    5.62
 -10 -13  -1   38.07    6.18
  13 -10   1   55.12    6.84
  10 -13   1   52.25    6.72
 -13 -10   1   51.52    6.35
  13 -10  -1   61.60    5.86
  13  10   1   42.90    5.67
 -10 -13   1   52.34    6.59
 -10  13  -1   52.34    5.58
  10 -13  -1   49.75    5.16
  13 -10  -1   57.15    6.75
  10 -13  -1   47.13    6.27
 -13 -10   3    1.04    3.76
 -10 -13   3    0.29    3.74
 -13  10  -3   -1.00    3.04
  13  10   3    0.47    3.36
 -10  13  -3    0.14    3.28
  10 -13  -3    3.89    3.25
  13 -10  -3    1.84    3.66
  10 -13  -3   -6.90    4.01
 -10 -13   5    9.25    4.56
 -13  10  -5    5.74    3.63
  13  10   5   10.94    4.30
 -10  13  -5    5.55    3.75
  10 -13  -5   13.18    3.87
  10 -13  -5   12.38    4.51
  13 -10  -5   11.56    3.57
 -13 -10   5   15.11    4.64
  13 -10  -5   13.76    4.37
 -13  10  -7   21.34    4.99
  13  10   7   24.78    5.24
 -10  13  -7   19.53    4.58
 -13 -10   7   20.46    5.40
  10 -13  -7   24.75    5.07
  13 -10  -7   24.88    4.62
 -10 -13   7   27.91    5.90
  13 -10  -7   29.10    5.89
  10 -13  -7   25.30    5.39
 -13  10  -9    7.40    4.60
  13  10   9   13.75    5.00
 -10  13  -9    0.92    3.98
 -13 -10   9    7.12    4.64
 -10 -13   9    6.22    4.55
  10 -13  -9   10.09    4.47
  13 -10  -9    9.67    4.27
  13 -10  -9   10.06    4.53
  10 -13  -9    4.37    4.24
 -13  10 -11    6.95    4.54
  13  10  11    9.78    5.29
 -10  13 -11    0.18    4.17
 -10 -13  11   -0.80    4.19
  10 -13 -11    2.86    4.32
  13 -10 -11    0.00    4.21
  13 -10 -13   10.22    5.49
 -13 -11 -12    2.19    4.45
 -13 -11 -10    2.36    4.31
 -11 -13 -10    4.16    4.27
 -13 -11  -8   19.00    5.44
 -11 -13  -8   18.67    5.32
  13 -11   8   13.97    4.77
 -11 -13  -6   23.10    4.97
  13 -11   6   18.54    4.77
 -13 -11  -6   29.43    5.70
 -11 -13  -4    3.50    3.70
  13 -11   4    1.01    3.74
 -13 -11  -4   -0.12    3.72
  13  11  -2    2.82    3.35
  13 -11   2    9.68    3.81
  13 -11   2    1.85    3.68
 -13 -11  -2    3.80    4.07
 -11 -13  -2   10.02    4.86
  11 -13   2   -3.71    4.19
 -13 -11   0   25.54    4.92
  13  11   0   28.51    4.86
  13 -11   0   31.93    4.67
 -11 -13   0   27.96    5.53
  13 -11   0   25.70    5.33
  11 -13   0   31.47    5.64
 -13 -11   2    6.27    4.00
 -11 -13   2    3.11    3.98
  13 -11  -2    8.58    3.45
  13  11   2    6.81    3.80
 -11  13  -2    7.72    3.41
  13 -11  -2    9.06    4.31
  11 -13  -2   15.40    4.90
 -11 -13   4   -6.18    4.70
 -13  11  -4   10.08    3.79
  13  11   4   10.01    4.22
 -11  13  -4    5.20    3.83
  11 -13  -4    5.79    3.40
  13 -11  -4    7.26    4.18
  11 -13  -4    4.45    4.19
 -13 -11   4    3.81    4.06
 -13  11  -6   24.70    5.29
  13  11   6   17.90    4.46
 -11  13  -6   25.55    5.38
  11 -13  -6   19.72    4.81
  13 -11  -6   31.40    5.10
 -13 -11   6   23.36    5.33
 -11 -13   6   27.72    5.64
  13 -11  -6   31.45    5.86
  11 -13  -6   21.51    5.17
 -13  11  -8   14.58    4.85
  13  11   8   14.25    4.65
 -11  13  -8    6.82    3.77
 -13 -11   8   20.18    5.51
  11 -13  -8   15.95    4.80
 -11 -13   8   21.81    5.44
  13 -11  -8   18.43    4.67
  13 -11  -8   20.48    5.21
  11 -13  -8   15.58    5.08
 -13  11 -10    0.73    4.07
  13  11  10   -5.83    4.71
 -11  13 -10    0.65    4.03
  11 -13 -10   -0.70    4.16
  13 -11 -10   -8.04    4.32
  11 -13 -12    6.23    5.06
  13 -11 -12   -1.87    4.56
 -13 -12  -9    3.30    4.04
 -12 -13  -9    2.05    4.38
 -12 -13  -7   17.57    5.01
 -13 -12  -7   11.66    4.70
 -13 -12  -5   10.39    4.58
 -12 -13  -5   11.70    4.90
 -13 -12  -3    2.64    3.80
 -12 -13  -3    0.88    4.13
  13 -12   3   -5.27    4.80
  12 -13   3   -0.80    4.06
  13  12  -1   20.98    4.49
 -13 -12  -1   26.70    5.73
 -12 -13  -1   16.17    4.97
  13 -12   1   15.85    5.13
  12 -13   1   24.36    5.49
 -13 -12   1   32.11    5.85
 -12 -13   1   24.57    5.16
  13  12   1   10.27    3.58
  13 -12  -1   23.43    5.35
  12 -13  -1   10.32    4.84
 -13 -12   3    3.37    4.33
 -12 -13   3    4.54    4.27
  13  12   3   -2.82    3.47
 -12  13  -3   -2.08    3.68
  13 -12  -3   -4.36    4.14
  12 -13  -3   -0.78    3.80
 -13  12  -5   16.26    4.54
  13  12   5   11.79    4.45
 -12  13  -5    6.32    4.28
 -13 -12   5   10.54    4.98
  13 -12  -5   13.14    5.07
  12 -13  -5   10.42    4.95
 -12 -13   5   12.84    4.85
 -13  12  -7   14.71    4.35
  13  12   7   13.79    4.81
 -12  13  -7   15.99    4.99
  12 -13  -7   16.59    4.73
 -13 -12   7   23.71    5.38
 -12 -13   7   17.14    5.57
  13 -12  -7   19.15    5.30
  12 -13  -7   13.78    5.12
 -13  12  -9   10.42    4.77
 -12  13  -9    7.53    4.87
  13  12   9    0.67    4.11
  12 -13  -9    1.98    4.28
  13 -12  -9    3.33    4.11
  12 -13 -11    8.20    4.93
  13 -12 -11    5.24    5.27
 -13 -13  -6    7.10    4.20
 -13 -13  -4    6.60    4.23
 -13 -13  -2    8.30    4.70
  13 -13   2    1.05    4.60
 -13 -13   0   12.77    4.82
  13 -13   0   10.21    4.75
 -13 -13   2    9.21    4.43
  13 -13  -2    6.26    4.43
 -13 -13   4   -3.17    4.31
  13 -13  -4   -6.45    4.66
 -13  13  -6   11.29    4.92
 -13  13  -8    2.76    4.42
  13 -13 -10    4.96    4.71
 -14   0   0   94.89    5.80
   0 -14   0   88.04    6.73
  14   0   0   98.34    6.72
   0 -14   0   76.21    4.65
  14   0   0   81.89    5.27
   0 -14  -2   28.08    4.59
   0 -14   2   24.67    4.19
  14   0  -2   32.92    4.14
  14   0   2   26.18    3.09
 -14   0   2   32.87    4.20
  14   0   2   26.84    5.04
 -14   0  -2   26.16    3.20
   0 -14  -2   34.11    3.67
  14   0   2   25.58    4.19
   0 -14   2   26.30    3.23
  14   0  -2   23.85    3.87
  14   0  -4    0.02    2.82
 -14   0   4    2.22    2.75
  14   0   4    3.06    3.64
 -14   0  -4    3.05    2.11
   0 -14   4    7.25    3.55
   0 -14  -4    1.39    3.15
  14   0  -4    4.71    2.83
   0 -14  -6   22.45    4.72
  14   0  -6   32.88    4.83
   0 -14   6   25.07    4.35
 -14   0  -6   34.75    4.01
  14   0   6   25.89    4.90
   0 -14  -6   30.35    5.17
  14   0  -6   35.32    5.01
  14   0  -8   15.38    4.36
 -14   0  -8   22.35    3.86
   0 -14   8   27.16    4.27
  14   0   8   12.67    4.75
   0 -14  -8   26.50    5.26
   0  14  -8   18.20    4.80
  14   0 -10   -4.83    3.79
 -14   0 -10   -1.98    2.96
  14   0  10    0.43    3.92
   0 -14 -10   -4.54    4.27
   0 -14  10   -4.72    3.44
   0  14 -10   -3.00    3.88
  14   0 -12   12.28    4.50
 -14   0 -12   10.38    3.74
  14   0  12   13.47    5.58
   0 -14  12    9.12    3.95
   0 -14 -12    5.91    3.89
   0  14 -12   10.79    4.66
  14   0 -14    1.74    4.15
 -14   0 -14   11.22    4.41
   0 -14 -14    2.97    4.12
   0  14 -14    3.61    4.73
 -14   0 -16    7.52    4.29
 -14  -1 -17    6.97    4.60
  14   1 -15   -5.79    4.29
 -14  -1 -15    7.04    4.24
  -1 -14 -15   -2.79    4.32
   1  14 -15    5.12    4.42
  14   1 -13   11.21    4.54
 -14  -1 -13   10.37    4.05
  14  -1  13   10.18    5.05
  -1 -14 -13    7.41    4.23
   1  14 -13   12.76    5.05
  14   1 -11    1.10    4.04
 -14  -1 -11    5.55    3.24
  14  -1  11   -4.03    4.43
   1 -14  11    1.80    2.94
  -1 -14 -11    7.52    4.33
   1  14 -11   -0.01    3.88
  14   1  -9   11.10    4.23
 -14  -1  -9    8.63    3.26
  14  -1   9    8.35    4.28
  -1 -14  -9    4.64    4.05
   1 -14   9    5.33    3.00
   1  14  -9    2.74    3.68
   1 -14   7   39.07    4.70
  -1 -14  -7   39.36    5.31
  14   1  -7   44.76    5.46
 -14  -1  -7   42.59    4.30
  14  -1   7   43.43    5.85
  -1 -14  -7   45.70    5.68
  14   1  -5   21.63    4.31
  14  -1   5   37.53    5.46
   1 -14   5   30.71    4.32
  -1 -14  -5   27.04    5.10
 -14  -1  -5   35.52    3.69
  14   1  -5   28.79    4.37
  -1 -14  -3    5.46    3.78
  14   1  -3    2.17    2.90
  14  -1   3   -0.83    3.42
 -14  -1  -3   -0.65    2.12
   1 -14   3    4.70    3.00
  14   1  -3   -2.38    2.94
 -14   1   3    2.48    2.68
  14  -1   1   17.53    2.81
 -14   1   1   18.53    3.43
   1 -14   1   24.81    4.14
  14  -1   1   25.87    4.76
 -14  -1  -1   22.80    3.40
  -1 -14  -1   20.77    4.24
   1 -14   1   20.19    3.13
  14  -1   1   16.18    3.79
  14   1  -1   19.73    3.71
  -1 -14  -1   21.42    2.85
  14  -1  -1   15.08    3.14
  -1 -14   1   16.95    4.03
  -1 -14   1   16.80    2.54
 -14   1  -1   23.44    3.14
  14   1   1   24.69    4.51
 -14  -1   1   20.14    3.49
   1 -14  -1   16.01    4.00
  14   1   1   20.46    3.81
  14  -1  -1   24.05    4.23
   1 -14  -1   19.70    3.22
  14  -1  -3    1.19    2.69
 -14  -1   3   -1.96    2.70
 -14   1  -3   -1.42    1.96
  14   1   3    3.83    3.31
   1 -14  -3    4.44    3.46
  -1 -14   3    5.06    3.37
  14  -1  -3    2.99    2.76
   1 -14  -3    4.23    2.53
  14  -1  -5   36.08    4.80
 -14  -1   5   32.21    4.38
  14   1   5   24.73    4.95
  -1 -14   5   29.36    4.59
   1 -14  -5   33.39    5.31
   1 -14  -5   33.63    5.07
  14  -1  -5   29.45    4.50
  -1 -14   7   46.16    5.46
  14  -1  -7   38.51    5.21
 -14  -1   7   47.78    5.37
 -14   1  -7   37.88    4.27
  14   1   7   45.23    6.16
   1 -14  -7   41.79    5.84
  14  -1  -7   56.36    6.22
  -1  14  -7   41.72    6.11
  14  -1  -9   16.33    4.39
 -14   1  -9   11.92    3.82
  14   1   9    5.10    4.28
   1 -14  -9    1.13    3.67
  -1 -14   9   13.48    3.83
  -1  14  -9    5.94    3.94
  14  -1 -11   14.00    4.46
 -14   1 -11    3.85    3.39
  14   1  11    1.84    4.29
  -1 -14  11    9.18    3.74
   1 -14 -11    5.05    4.16
  -1  14 -11    7.15    4.34
  14  -1 -13    7.61    4.53
 -14   1 -13   11.14    4.00
  -1 -14  13   15.91    4.36
  14   1  13   14.06    5.29
   1 -14 -13   13.14    5.31
  -1  14 -13   10.44    4.71
  14  -1 -15    6.85    5.38
 -14   1 -15    6.02    3.90
   1 -14 -15    2.97    4.69
  -1  14 -15   -5.13    4.83
 -14   1 -17    3.36    4.36
 -14  -2 -16    3.28    4.13
  14   2 -14    2.73    4.51
 -14  -2 -14    3.67    3.29
  14  -2  14   13.47    5.57
  -2 -14 -14    4.68    4.27
   2  14 -14    3.83    4.27
  14   2 -12   10.46    4.67
 -14  -2 -12   10.55    3.77
  14  -2  12    7.58    4.58
  -2 -14 -12   12.43    4.48
   2  14 -12    6.94    4.18
  14   2 -10   -1.55    3.75
 -14  -2 -10    2.25    2.79
  14  -2  10    3.92    4.22
  -2 -14 -10    0.44    3.82
   2 -14  10    2.44    2.91
   2  14 -10    5.37    4.10
  -2 -14 -10    0.37    3.92
  -2 -14  -8    7.65    3.87
  14   2  -8   15.70    4.61
 -14  -2  -8   10.24    2.92
 -14  -2  -8   14.83    3.06
  14  -2   8   18.44    4.85
  -2 -14  -8   12.05    4.57
   2 -14   8   18.33    3.92
 -14  -2  -6   33.70    4.03
  14   2  -6   30.39    4.68
   2 -14   6   35.65    4.54
 -14  -2  -6   31.96    3.50
  14  -2   6   33.12    5.50
  -2 -14  -6   27.51    5.22
  -2 -14  -4    1.95    3.34
  14  -2   4    9.14    4.01
   2 -14   4    6.14    2.90
  14   2  -4    3.14    2.82
 -14  -2  -4   13.23    3.04
   2 -14   2    5.24    2.92
  14  -2   2   -0.01    3.29
  -2 -14  -2    5.08    3.70
 -14  -2  -2    8.18    2.89
  14   2  -2    0.97    2.70
  14  -2   0   28.81    3.41
  -2 -14   0   33.98    4.75
 -14  -2   0   39.05    4.34
   2 -14   0   33.13    4.68
  14  -2   0   28.67    4.42
   2 -14   0   36.62    4.10
  14   2   0   26.87    3.92
  14  -2  -2    6.05    2.67
  14   2   2    6.05    3.03
   2 -14  -2    3.12    3.43
  14   2   2    3.19    3.14
 -14  -2   2    5.27    2.71
  14  -2  -2    6.85    3.17
  -2 -14   2    3.94    3.41
   2 -14  -2    7.71    2.83
 -14   2  -2    8.01    2.02
  14  -2  -4   10.81    3.13
 -14  -2   4    8.93    3.42
  14   2   4    9.14    3.96
   2 -14  -4    5.21    3.61
   2 -14  -4    5.97    3.70
  -2 -14   4    8.20    3.56
  14  -2  -4    7.61    3.28
  -2  14  -4    8.59    3.71
   2 -14  -4   11.58    3.22
  14  -2  -6   33.86    4.75
  -2 -14   6   31.37    4.79
 -14  -2   6   32.61    4.73
  14   2   6   34.00    5.49
   2 -14  -6   31.35    5.24
  -2  14  -6   32.23    5.18
  14  -2  -6   32.27    4.78
  -2 -14   8   10.59    3.63
  14  -2  -8    9.13    3.95
 -14  -2   8    2.31    3.20
 -14   2  -8   14.52    3.62
  14   2   8   16.76    4.74
   2 -14  -8   10.69    4.17
  -2  14  -8    8.88    3.85
  14  -2  -8   19.02    4.87
  14  -2 -10    1.09    3.46
 -14   2 -10   -2.11    3.46
  14   2  10   -4.09    4.27
   2 -14 -10   -5.12    4.70
  -2 -14  10    0.59    3.34
  -2  14 -10    4.37    3.91
  14  -2 -12   20.54    5.59
 -14   2 -12   10.72    4.18
  14   2  12   20.63    5.74
  -2 -14  12    9.73    4.03
   2 -14 -12   21.01    5.42
  -2  14 -12   14.78    4.55
  14  -2 -14    8.12    4.84
 -14   2 -14    2.56    3.96
  -2 -14  14   12.32    4.38
  14   2  14   18.67    5.80
   2 -14 -14   17.34    5.33
  -2  14 -14    9.02    4.83
 -14   2 -16    5.33    4.16
  -2 -14  16    5.36    4.45
 -14  -3 -17    1.48    4.10
  14   3 -15   13.81    5.43
 -14  -3 -15    3.49    3.60
  -3 -14 -15    1.95    4.23
   3  14 -15    6.28    4.90
  14   3 -13   18.87    4.97
 -14  -3 -13   11.64    3.66
  14  -3  13   13.89    5.20
  -3 -14 -13   13.45    5.28
   3  14 -13    4.22    4.15
  -3 -14 -11    4.00    3.98
  14   3 -11    8.33    4.08
 -14  -3 -11   11.45    3.56
  14  -3  11   -6.64    4.69
  -3 -14 -11    1.52    3.78
   3  14 -11    8.96    4.68
  -3 -14  -9   -5.29    4.31
  14   3  -9    3.06    3.78
 -14  -3  -9    1.99    2.56
  14  -3   9    4.10    3.95
 -14  -3  -9    4.30    2.82
   3 -14   7   28.71    4.04
 -14  -3  -7   29.79    3.74
 -14  -3  -7   34.03    4.02
  14  -3   7   34.59    5.64
  -3 -14  -7   26.59    5.15
 -14  -3  -5   14.01    3.25
  -3 -14  -5   12.91    3.79
  14  -3   5   18.46    4.68
   3 -14   5   18.37    3.55
 -14  -3  -3   -1.13    2.56
  14  -3   3    6.27    3.92
  -3 -14  -3    7.42    3.57
   3 -14   3   -3.19    2.87
  14   3  -3    2.52    2.81
  14  -3   1   51.97    5.93
  -3 -14  -1   52.11    5.77
   3 -14   1   53.23    5.13
 -14  -3  -1   52.86    4.75
   3 -14   1   48.11    4.83
  14  -3   1   35.95    5.08
  14   3  -1   44.00    4.57
  -3 -14   1   54.86    5.91
   3 -14  -1   53.41    5.34
 -14  -3   1   57.38    5.28
  14   3   1   56.38    6.27
  14  -3  -1   50.80    4.27
  14   3   1   51.64    4.87
  14  -3  -1   56.81    5.93
   3 -14  -1   54.14    5.02
  14  -3  -3    3.59    2.83
   3 -14  -3    1.48    3.14
  14   3   3    3.11    3.57
 -14  -3   3    4.16    2.85
  -3 -14   3    1.80    3.20
  14   3   3   -2.28    2.91
  14  -3  -3    2.75    3.06
  -3  14  -3    3.03    3.31
   3 -14  -3    7.05    3.18
  14  -3  -5   18.39    3.84
   3 -14  -5   17.05    3.86
  -3 -14   5   17.49    4.33
  14   3   5   16.64    4.57
 -14  -3   5   13.61    3.62
   3 -14  -5   19.76    4.77
  -3  14  -5   19.64    4.47
  14  -3  -5   18.62    4.04
   3 -14  -5   13.99    3.36
  14  -3  -7   28.14    4.54
  -3 -14   7   27.72    4.72
 -14  -3   7   22.29    4.73
  14   3   7   22.01    4.93
  -3  14  -7   28.46    5.13
   3 -14  -7   29.20    5.24
  14  -3  -7   25.16    4.90
  14  -3  -9    0.41    3.34
 -14  -3   9    1.59    3.48
 -14   3  -9    8.49    3.48
  14   3   9    1.06    3.90
   3 -14  -9    1.96    3.73
  -3  14  -9    5.40    4.35
  -3 -14   9    5.38    3.63
  14  -3 -11    9.41    4.34
 -14   3 -11    8.73    3.71
  14   3  11    8.50    4.59
  -3 -14  11    9.37    4.05
   3 -14 -11   13.80    4.72
  -3  14 -11   14.31    4.80
 -14  -3  11    2.19    3.88
  14  -3 -13    7.63    4.48
 -14   3 -13   17.26    4.78
  -3 -14  13    6.47    3.65
  14   3  13    9.32    5.42
   3 -14 -13   23.86    5.90
  -3  14 -13    9.64    4.74
  14  -3 -15    6.12    4.89
 -14   3 -15    6.96    4.39
  -3 -14  15    8.40    4.35
  -3 -14  17   -4.83    4.52
 -14  -4 -16   -1.56    3.73
  14   4 -14   12.06    5.29
 -14  -4 -14    0.50    3.51
  -4 -14 -14    6.34    4.50
   4  14 -14    4.20    4.68
  -4 -14 -12   16.44    5.25
 -14  -4 -12    2.18    3.33
  14   4 -12   14.15    4.87
  14  -4  12    5.09    4.84
  -4 -14 -12   10.83    4.70
   4  14 -12   15.32    4.65
 -14  -4 -10    3.86    3.08
  14   4 -10    4.99    3.67
  14  -4  10   -0.37    4.11
  -4 -14 -10    2.68    3.91
 -14  -4 -10    0.63    2.86
 -14  -4  -8    7.91    2.88
  14  -4   8    9.16    4.31
 -14  -4  -8    5.80    3.19
  -4 -14  -8   13.90    4.66
   4 -14   6   10.26    2.83
  -4 -14  -6   14.92    4.36
  14  -4   6   11.64    4.01
 -14  -4  -6   16.13    3.28
 -14  -4  -4   -1.04    2.61
  14  -4   4   10.72    4.16
   4 -14   4    2.46    2.62
  -4 -14  -4    6.45    3.80
 -14  -4  -2   35.09    4.58
   4 -14   2   31.30    4.09
  14  -4   2   39.10    5.26
  -4 -14  -2   28.87    4.86
  14   4  -2   30.06    3.85
 -14  -4   0  108.12    6.98
  -4 -14   0   90.22    7.25
  14  -4   0   82.89    7.15
   4 -14   0   84.29    6.26
  14   4   0   86.10    5.67
   4 -14   0   99.39    6.40
  -4  14   0   90.44    6.70
  14  -4  -2   32.61    3.88
  14   4   2   33.64    5.21
   4 -14  -2   36.56    4.37
  -4  14  -2   41.76    5.20
 -14  -4   2   38.04    4.82
   4 -14  -2   41.58    4.87
  -4 -14   2   34.81    5.11
  14   4   2   32.26    3.91
  14  -4  -2   27.09    4.74
  14  -4  -4    1.86    2.62
  14   4   4    9.49    4.25
  -4 -14   4    2.19    3.38
 -14  -4   4   -3.20    3.31
   4 -14  -4   -1.70    3.17
  -4  14  -4   -0.41    3.26
  14  -4  -4    0.40    3.37
   4 -14  -4    1.29    2.84
   4 -14  -4   -1.53    3.02
  14  -4  -6   16.57    3.85
  -4 -14   6   12.50    3.83
  14   4   6   10.32    4.61
 -14  -4   6   22.43    4.51
   4 -14  -6   15.74    4.34
  -4  14  -6    8.18    3.84
  14  -4  -6   12.56    4.13
   4 -14  -6   16.08    3.91
  14  -4  -8    3.93    3.54
 -14  -4   8    8.21    3.70
  14   4   8    7.29    4.16
   4 -14  -8   22.46    5.05
  -4  14  -8   12.63    4.18
  -4 -14   8   10.15    4.10
  14  -4  -8   13.91    4.53
  14  -4 -10   -2.13    4.13
 -14  -4  10   -4.61    3.79
  14   4  10   -2.96    4.53
   4 -14 -10    4.35    4.20
  -4 -14  10   -2.42    3.91
  -4  14 -10   -0.13    3.85
 -14  -4  12    7.79    4.47
  14  -4 -12   13.90    5.08
 -14   4 -12    9.18    4.24
  14   4  12   13.90    5.02
  -4 -14  12    5.73    3.72
   4 -14 -12    7.00    4.00
  -4  14 -12   11.86    5.09
  14  -4 -14   -0.18    4.84
 -14   4 -14    6.99    4.41
  -4 -14  14    6.74    4.49
  14   4  14   20.99    6.57
  -4  14 -14    5.06    4.32
   4 -14 -14   14.85    5.16
 -14   4 -16    3.57    4.62
  -4 -14  16    1.65    4.64
 -14  -5 -17   -2.24    4.06
 -14  -5 -15    1.41    3.63
 -14  -5 -13    9.25    3.68
  14   5 -13   10.61    5.46
  -5 -14 -13    3.56    4.67
  -5 -14 -13   14.18    5.07
   5  14 -13    3.47    3.97
 -14  -5 -11    3.72    3.16
  -5 -14 -11   -4.44    4.20
  14  -5  11   -0.05    4.15
  14  -5   9   -3.70    4.46
  -5 -14  -9    7.52    4.02
 -14  -5  -9    5.73    3.24
  -5 -14  -7   23.67    5.09
  14  -5   7   17.51    4.76
 -14  -5  -7   22.81    4.12
 -14  -5  -5   21.16    3.81
  14  -5   5   13.06    4.21
  -5 -14  -5   13.33    4.33
 -14  -5  -3    0.06    2.78
  14  -5   3    0.33    3.33
  -5 -14  -3   -3.21    3.75
   5 -14   3   -0.31    2.52
  -5  14   3    0.74    2.66
 -14  -5  -1   28.51    4.23
  -5 -14  -1   19.64    4.61
  14  -5   1   21.81    4.42
   5 -14   1   29.02    3.83
  14  -5   1   29.23    5.20
   5 -14   1   16.41    3.50
  -5  14   1   20.81    3.94
  14   5  -1   24.25    3.49
   5 -14  -1   21.82    3.98
  14   5   1   21.68    4.78
 -14  -5   1   22.64    4.25
  -5 -14   1   29.10    5.07
  -5  14  -1   24.60    4.21
  14  -5  -1   20.11    4.48
   5 -14  -1   21.52    3.82
  14   5   1   26.00    3.40
  14   5   3    4.06    3.40
  -5 -14   3    0.91    3.31
   5 -14  -3   -1.17    3.41
 -14  -5   3    3.71    3.40
  -5  14  -3    3.29    3.01
  14   5   3   -1.66    2.26
   5 -14  -3   -0.41    2.96
  14  -5  -3   -5.28    3.15
   5 -14  -3   -3.59    3.24
  14  -5  -3   -3.57    2.80
  -5 -14   5   17.08    4.36
  14   5   5   23.90    5.10
 -14  -5   5   23.45    4.85
   5 -14  -5   18.95    4.62
  -5  14  -5   23.15    4.74
  14  -5  -5   20.00    4.43
   5 -14  -5   23.41    4.28
  14  -5  -5   17.38    3.96
  14  -5  -7   23.28    4.58
  -5 -14   7   29.43    5.36
 -14  -5   7   30.20    5.45
  14   5   7   34.28    5.72
   5 -14  -7   32.57    5.49
  -5  14  -7   25.50    5.15
  14  -5  -7   27.28    5.12
   5 -14  -7   31.75    5.22
  14  -5  -9    1.38    3.42
 -14  -5   9    2.93    3.48
  14   5   9    6.16    4.64
  -5 -14   9    3.88    3.80
   5 -14  -9    4.75    3.84
  -5  14  -9    3.41    4.08
  14  -5  -9   12.95    4.98
  14  -5 -11    1.35    3.82
 -14  -5  11    6.75    4.08
  14   5  11    1.14    4.28
  -5 -14  11    2.17    3.96
  -5  14 -11    4.38    3.94
   5 -14 -11   -1.45    3.97
  14  -5 -13   17.45    5.45
 -14  -5  13    8.94    4.49
 -14   5 -13    9.59    4.22
  -5 -14  13   14.80    4.94
  14   5  13   14.85    5.82
  -5  14 -13    2.93    4.22
   5 -14 -13    6.87    4.66
 -14   5 -15    1.30    4.20
  -5 -14  15    0.54    4.13
  14  -5 -15   -2.39    4.64
   6  14 -14   10.42    5.14
  -6 -14 -12    3.00    4.00
 -14  -6 -12   10.08    4.10
  14  -6  12    5.23    4.24
   6  14 -12    3.34    4.13
 -14  -6 -10    2.86    3.26
  14  -6  10    1.86    3.89
  -6 -14 -10   -3.10    3.95
  -6 -14  -8   27.28    5.52
 -14  -6  -8   22.72    4.24
  14  -6   6   27.80    5.19
 -14  -6  -6   26.40    4.53
  -6 -14  -6   20.73    5.00
 -14  -6  -4    1.04    3.00
  14  -6   4    5.37    3.31
  -6 -14  -4    5.49    3.77
  -6  14   4    6.58    2.89
 -14  -6  -2   15.50    3.95
  -6 -14  -2   16.92    4.69
  14  -6   2   14.55    3.89
  -6  14   2   14.05    3.50
 -14  -6   0   51.90    5.69
  14   6   0   44.01    5.64
  14  -6   0   50.27    5.79
  -6  14   0   46.53    5.23
  14  -6   0   41.55    5.83
   6 -14   0   52.96    5.65
   6 -14   0   48.41    4.63
  -6 -14   0   50.64    6.07
   6 -14  -2   15.30    3.57
  14   6   2    5.78    3.70
   6 -14  -2   14.03    3.90
  -6 -14   2   14.65    4.02
  -6  14  -2   11.71    3.70
 -14  -6   2   15.93    4.42
  14  -6  -2   18.63    4.61
   6 -14  -2   15.64    4.25
  -6 -14   4    9.43    3.98
  14   6   4    5.58    3.71
   6 -14  -4    0.89    3.36
 -14  -6   4    4.95    3.40
  -6  14  -4    3.38    3.50
  14  -6  -4    2.81    3.48
  14  -6  -4    7.94    3.02
   6 -14  -4    7.87    3.54
  -6 -14   6   25.26    5.18
  14   6   6   30.18    5.39
 -14  -6   6   31.41    5.07
   6 -14  -6   23.30    5.08
  -6  14  -6   26.87    5.02
  14  -6  -6   36.08    4.53
  14  -6  -6   30.64    5.35
   6 -14  -6   25.52    4.64
 -14  -6   8   16.91    4.88
  14   6   8   16.42    4.84
   6 -14  -8   11.10    4.53
  -6  14  -8   12.72    4.58
  -6 -14   8   13.02    4.17
  14  -6  -8   15.80    3.93
  14  -6  -8   15.00    4.66
 -14  -6  10    0.96    3.84
  14   6  10    5.04    4.35
  -6  14 -10   -1.66    3.80
   6 -14 -10    7.96    4.23
  -6 -14  10   -2.94    4.18
  14  -6 -10    1.02    3.78
 -14  -6  12    5.62    4.30
  14   6  12    0.00    4.76
  -6 -14  12    9.37    4.32
  -6  14 -12    7.41    4.58
   6 -14 -12    9.98    4.74
  14  -6 -12    8.64    4.26
 -14   6 -14    0.79    4.38
  -6 -14  14    2.78    4.39
  14  -6 -14    9.40    4.87
   7  14 -13   21.51    5.42
 -14  -7 -11    0.53    3.54
  -7 -14 -11    8.90    4.95
  14  -7  11    9.23    4.70
  -7 -14  -9    8.13    4.45
  14  -7   9    1.24    3.78
 -14  -7  -9   -4.01    3.75
  14  -7   7   24.79    5.19
 -14  -7  -7   23.26    4.73
  -7 -14  -7   26.07    5.60
  14  -7   5   19.80    4.64
  -7 -14  -5   21.91    4.86
 -14  -7  -5    7.45    3.68
  -7 -14  -3   -4.88    4.00
 -14  -7  -3    7.80    3.56
  14  -7   3   -0.23    3.65
  -7  14   3    1.84    2.58
 -14  -7  -1   46.94    5.54
  -7  14   1   50.50    5.29
  14  -7   1   44.92    5.59
   7 -14   1   40.40    5.41
  14  -7   1   42.11    5.85
  -7 -14  -1   53.29    6.40
  14  -7  -1   41.65    5.24
  14   7   1   50.61    6.07
   7 -14  -1   48.48    4.58
  -7 -14   1   36.64    5.57
  -7  14  -1   44.46    5.32
  14  -7  -1   43.93    6.00
   7 -14  -1   54.05    6.06
 -14  -7   1   52.27    5.89
  14   7   3   -2.09    3.53
  -7 -14   3   -0.43    3.55
   7 -14  -3    3.77    3.36
  -7  14  -3   -3.67    3.26
 -14  -7   3    3.02    3.18
  14  -7  -3   -6.26    4.07
   7 -14  -3   -2.52    3.29
   7 -14  -3    0.59    2.76
  -7 -14   5   16.48    4.92
  14   7   5   12.15    4.51
   7 -14  -5   18.43    4.72
 -14  -7   5   19.44    4.62
  -7  14  -5    7.60    3.84
  14  -7  -5   12.39    3.66
  14  -7  -5   14.15    4.38
   7 -14  -5    9.44    3.56
  -7 -14   7   18.32    4.67
  14   7   7   19.50    5.15
 -14  -7   7   25.88    5.14
   7 -14  -7   26.17    5.53
  -7  14  -7   21.32    4.57
  14  -7  -7   32.88    5.01
  14  -7  -7   24.27    5.32
   7 -14  -7   23.59    4.86
 -14  -7   9    7.09    4.10
  14   7   9   11.03    4.59
  -7  14  -9    0.57    3.96
   7 -14  -9    3.18    3.70
  -7 -14   9    3.98    4.10
  14  -7  -9    2.05    3.59
  14  -7  -9    1.44    3.88
 -14  -7  11    3.43    4.14
  14   7  11    0.29    4.31
  -7  14 -11    3.51    4.22
  -7 -14  11    8.03    4.27
   7 -14 -11    1.63    4.04
  14  -7 -11    2.64    3.84
  -7 -14  13   12.71    5.45
  14   7  13   20.25    6.39
   7 -14 -13   16.89    5.27
  14  -7 -13   11.18    4.97
 -14  -8 -12   -3.12    3.73
  -8 -14 -10   -3.10    4.07
 -14  -8 -10   -0.62    3.52
  14  -8  10   -3.86    4.01
  14  -8   8   27.59    5.51
  -8 -14  -8   34.35    6.07
 -14  -8  -8   31.44    5.39
  14  -8   6   27.47    5.49
  -8 -14  -6   41.14    6.21
 -14  -8  -6   23.76    4.76
  -8 -14  -4   -0.48    3.75
  14  -8   4    0.12    3.56
 -14  -8  -4   -0.11    3.41
  -8 -14  -2   18.30    4.84
 -14  -8  -2   19.22    4.78
  14  -8   2    7.29    3.58
  -8  14   2   14.02    3.51
  14  -8   2    1.41    3.80
   8 -14   2   16.90    4.45
 -14  -8   0   45.13    5.72
  14   8   0   42.81    5.56
  14  -8   0   57.22    6.07
   8 -14   0   40.02    5.64
  -8  14   0   46.88    5.26
  -8 -14   0   44.76    6.22
  14  -8   0   49.76    6.50
  14   8   2    8.68    3.86
  -8 -14   2    8.48    4.11
   8 -14  -2   10.76    3.82
  -8  14  -2   15.09    4.13
  14  -8  -2   20.21    4.68
   8 -14  -2   15.39    4.19
 -14  -8   2   11.87    4.26
  -8 -14   4    8.55    4.13
  14   8   4   -1.09    3.78
   8 -14  -4    2.81    3.46
  -8  14  -4    2.53    3.20
 -14  -8   4   11.36    4.16
  14  -8  -4    5.67    3.63
   8 -14  -4    6.71    3.61
  -8 -14   6   37.16    5.92
  14   8   6   36.45    6.18
 -14  -8   6   42.79    6.10
  -8  14  -6   29.17    5.19
   8 -14  -6   26.66    5.27
  14  -8  -6   39.62    5.00
  14  -8  -6   26.93    5.39
   8 -14  -6   37.49    5.33
  14   8   8   27.42    5.78
 -14  -8   8   28.34    5.52
  -8  14  -8   20.98    4.95
   8 -14  -8   31.35    5.91
  -8 -14   8   36.03    6.21
  14  -8  -8   23.76    4.46
  14  -8  -8   27.39    5.48
   8 -14  -8   36.02    5.92
  14  -8 -10    1.72    3.84
 -14  -8  10    1.23    4.25
  14   8  10    0.33    4.24
  -8  14 -10    6.02    4.22
  -8 -14  10    2.21    4.03
   8 -14 -10    0.78    4.24
  14   8  12    5.95    4.94
  -8 -14  12   -4.54    4.38
  -8  14 -12    1.78    4.14
   8 -14 -12   -4.05    4.36
  14  -8 -12    7.34    4.92
  14  -8 -14   15.19    5.35
 -14  -9 -13    9.92    4.67
 -14  -9 -11    2.31    3.75
  14  -9  11   14.64    5.31
 -14  -9  -9   10.91    4.63
  14  -9   9    4.98    4.31
  14  -9   7   41.25    6.37
  -9 -14  -7   39.39    6.26
 -14  -9  -7   49.70    6.53
  -9 -14  -5   34.98    5.84
  14  -9   5   21.44    5.08
 -14  -9  -5   25.96    5.17
  14  -9   3  -12.24    4.44
 -14  -9  -3   -6.14    3.87
 -14  -9  -1   32.55    5.43
  14   9  -1   33.71    5.12
  14  -9   1   32.65    5.22
  -9  14   1   31.91    4.35
  -9 -14  -1   32.21    5.76
  14  -9   1   26.00    5.41
   9 -14   1   25.62    5.44
 -14  -9   1   42.10    5.91
  14  -9  -1   29.07    5.01
  14   9   1   25.46    5.04
  -9 -14   1   24.40    5.23
  -9  14  -1   32.24    4.84
  14  -9  -1   31.13    5.67
   9 -14  -1   33.81    5.58
  -9 -14   3   -0.53    3.92
  14   9   3    1.02    3.58
   9 -14  -3   -0.63    3.24
  -9  14  -3    1.17    3.29
 -14  -9   3    3.47    4.22
  14  -9  -3    0.72    3.81
   9 -14  -3    0.10    3.45
  -9 -14   5   27.88    5.29
 -14   9  -5   24.02    4.73
  14   9   5   25.17    5.08
  -9  14  -5   24.48    5.07
   9 -14  -5   18.98    4.56
 -14  -9   5   26.64    5.30
  14  -9  -5   19.53    5.21
   9 -14  -5   24.72    5.26
 -14   9  -7   35.79    5.89
  14   9   7   51.42    6.80
 -14  -9   7   45.24    6.62
  -9  14  -7   32.75    5.66
   9 -14  -7   38.96    5.82
  14  -9  -7   49.30    5.81
  -9 -14   7   37.84    6.15
  14  -9  -7   44.76    6.49
   9 -14  -7   55.21    6.89
 -14   9  -9   19.93    5.35
  14   9   9   13.05    4.57
 -14  -9   9   12.04    5.17
  -9  14  -9   11.98    4.66
   9 -14  -9   13.58    4.55
  -9 -14   9   17.17    5.21
  14  -9  -9   17.19    4.64
  14  -9  -9   23.30    5.56
 -14   9 -11    1.50    4.05
  14   9  11    3.66    4.35
  -9  14 -11    3.86    4.34
  -9 -14  11    5.14    5.08
   9 -14 -11   -0.32    4.13
  14  -9 -11    4.89    4.16
  14  -9 -13    0.25    4.56
 -14 -10 -12   -1.38    4.42
 -14 -10 -10    0.97    3.99
  14 -10  10   -0.43    4.39
 -10 -14  -8   20.39    5.52
  14 -10   8   19.40    5.23
 -14 -10  -8   16.34    4.80
 -10 -14  -6   28.37    5.74
  14 -10   6   23.18    4.81
 -14 -10  -6   18.19    4.93
 -10 -14  -4    0.03    3.90
  14 -10   4    3.35    3.51
 -14 -10  -4   -3.40    3.91
 -14 -10  -2   12.52    4.88
  14 -10   2   15.36    4.17
 -10 -14  -2   12.91    5.31
  14 -10   2   10.26    4.14
  10 -14   2    1.83    3.81
 -14 -10   0   44.23    6.47
  14  10   0   40.20    5.70
  14 -10   0   40.82    5.53
 -10 -14   0   44.03    6.46
  14 -10   0   52.48    6.95
  10 -14   0   49.43    6.57
 -14 -10   2   15.71    4.97
  14 -10  -2   24.78    4.77
 -10 -14   2   15.78    4.85
  14  10   2   10.70    4.23
 -10  14  -2   13.02    3.95
  10 -14  -2   14.73    4.29
  14 -10  -2   23.98    5.25
  10 -14  -2   16.59    5.00
 -10 -14   4    2.48    3.89
 -14  10  -4    2.29    3.25
  14  10   4    4.67    3.54
 -10  14  -4    4.09    3.84
  10 -14  -4    0.05    3.35
 -14 -10   4    2.28    3.94
  14 -10  -4    4.54    3.98
  10 -14  -4   -0.80    3.58
 -10 -14   6   25.75    5.70
 -14  10  -6   27.10    5.35
  14  10   6   27.48    5.63
 -10  14  -6   22.05    5.01
  10 -14  -6   25.83    5.37
 -14 -10   6   26.54    5.57
  14 -10  -6   23.83    5.48
  10 -14  -6   20.47    5.54
 -14  10  -8   11.26    5.02
  14  10   8   23.28    5.54
 -10  14  -8   13.05    5.09
 -14 -10   8   15.50    5.09
  10 -14  -8   15.91    5.10
  14 -10  -8   27.82    5.25
 -10 -14   8   17.36    5.31
  14 -10  -8   12.15    4.75
  10 -14  -8   20.45    5.09
 -14  10 -10    4.68    4.41
  14  10  10   -0.10    4.37
 -10  14 -10   -5.43    4.13
  10 -14 -10    5.21    4.62
  14 -10 -10   -1.03    3.97
  14 -10 -12    5.40    4.55
 -14 -11 -11    3.64    4.59
 -14 -11  -9    2.36    4.18
 -11 -14  -7   16.35    5.17
 -14 -11  -7   10.94    4.95
 -11 -14  -5    7.33    4.44
 -14 -11  -5   14.30    5.24
  14 -11   3    2.01    3.63
 -14 -11  -3   -5.27    4.73
 -11 -14  -3   -1.65    4.09
  14 -11   3  -10.94    4.71
  11 -14   3    3.18    4.12
 -14 -11  -1   26.61    5.67
  14  11  -1   24.01    4.95
  14 -11   1   20.81    4.56
 -11 -14  -1   28.38    5.64
  14 -11   1   29.06    5.91
  11 -14   1   22.08    5.08
 -14 -11   1   15.76    4.61
  14 -11  -1   21.27    4.44
  14  11   1   22.80    4.81
 -11 -14   1   12.56    4.89
  14 -11  -1   11.63    4.74
  11 -14  -1   21.65    5.28
 -11 -14   3   -5.72    4.47
  14 -11  -3    3.55    3.67
  14  11   3   -1.07    4.13
 -11  14  -3   -1.57    3.55
  14 -11  -3   -2.95    3.86
  11 -14  -3   -4.21    4.27
 -14 -11   3    0.23    4.20
 -11 -14   5    1.82    4.06
 -14  11  -5    5.89    3.61
  14  11   5    8.63    4.37
 -11  14  -5    6.44    4.53
  11 -14  -5   13.50    4.43
 -14 -11   5    7.81    4.74
  14 -11  -5    9.20    4.73
  11 -14  -5    2.56    4.18
 -14  11  -7   13.28    4.93
  14  11   7    8.66    4.78
 -11  14  -7    7.20    4.59
 -14 -11   7    5.08    4.19
  11 -14  -7   12.42    4.55
 -11 -14   7   13.76    5.03
  14 -11  -7   12.98    5.22
  11 -14  -7    8.89    4.62
 -14  11  -9    1.44    4.16
  14  11   9   -3.39    4.35
 -11  14  -9   -1.15    4.10
  11 -14  -9    1.16    4.37
  14 -11  -9   -0.85    4.32
  11 -14  -9    6.01    4.73
  14  11  11    6.44    5.64
  11 -14 -11    2.69    4.99
  14 -11 -11    5.81    4.54
 -14 -12  -6   14.51    5.35
 -14 -12  -4    0.32    4.29
 -12 -14  -4    6.61    4.48
  14  12  -2    2.92    3.64
 -14 -12  -2    3.30    4.53
 -12 -14  -2   14.28    4.88
  14 -12   2    4.02    4.12
  12 -14   2   -7.20    4.91
 -14 -12   0   17.79    4.96
  14  12   0    7.25    3.90
 -12 -14   0   11.02    4.96
  14 -12   0   12.04    5.02
  12 -14   0   19.91    5.39
 -14 -12   2    4.23    4.58
 -12 -14   2    1.89    4.04
  14  12   2    8.25    4.33
  14 -12  -2   10.48    4.60
  12 -14  -2    1.79    3.89
  14  12   4    2.38    3.88
 -14 -12   4    4.49    4.41
  14 -12  -4   -5.85    4.21
  12 -14  -4    7.33    4.14
 -14  12  -6   12.62    4.53
  14  12   6   14.49    4.76
 -12  14  -6    9.95    3.98
  12 -14  -6   15.27    5.32
 -14  12  -8    4.03    4.42
  14  12   8    3.72    4.32
 -12  14  -8    1.16    4.30
  12 -14  -8   -4.03    4.62
  14  12  10    3.63    4.83
  12 -14 -10   -1.59    4.53
 -14  13  -7    7.25    5.11
 -13  14  -7   -0.72    4.27
 -15   0   1   53.58    4.97
  15   0  -1   39.86    4.36
   0 -15   1   42.24    5.42
  15   0   1   44.09    5.88
 -15   0  -1   42.04    4.27
   0 -15  -1   37.44    4.91
   0 -15  -1   41.27    3.84
  15   0   1   47.41    5.36
   0 -15   1   35.30    3.57
  15   0  -1   46.46    5.26
   0 -15  -3    4.48    3.74
  15   0  -3   -0.40    2.87
 -15   0   3    1.75    2.86
  15   0   3    8.66    4.14
 -15   0  -3    4.15    2.50
   0 -15   3    6.58    3.20
   0 -15   3    0.39    2.09
  15   0  -3    7.74    3.48
  15   0  -5    5.95    3.68
  15   0   5    9.06    4.15
   0 -15   5   -0.48    3.19
   0 -15  -5   16.48    4.43
  15   0  -5    6.09    3.01
 -15   0   5    8.94    3.54
   0 -15   7   10.73    3.85
  15   0  -7   14.26    4.28
 -15   0  -7    8.60    2.98
  15   0   7   13.11    4.92
   0 -15  -7   11.53    4.61
   0  15  -7   11.08    4.12
   0 -15  -7    6.39    3.80
  15   0  -9   -4.02    3.68
 -15   0  -9    1.47    3.03
   0 -15  -9   -2.27    3.86
  15   0   9   -0.56    3.89
   0 -15  -9    6.75    4.07
   0 -15   9    2.00    3.18
   0  15  -9    3.52    4.04
  15   0 -11    6.95    4.33
 -15   0 -11    4.36    3.16
  15   0  11    5.39    4.55
   0 -15  11    3.22    3.52
   0 -15 -11   11.54    4.78
   0  15 -11    2.27    4.04
  15   0 -13   16.04    5.27
 -15   0 -13    3.47    3.72
  15   0  13    2.49    4.78
   0 -15 -13   19.03    5.58
   0  15 -13   12.51    5.30
 -15   0 -15    1.75    3.77
 -15  -1 -16   -7.31    4.24
  15   1 -14   -1.93    4.49
 -15  -1 -14   11.30    4.28
  15   1 -12    6.95    4.41
 -15  -1 -12    5.66    3.45
  15  -1  12    9.70    4.93
  -1 -15 -12    4.50    4.19
   1  15 -12   10.80    4.94
  15   1 -10   -1.55    3.82
 -15  -1 -10   -2.69    3.07
  15  -1  10    6.96    4.68
  -1 -15 -10    7.15    4.47
   1 -15  10   -1.18    3.29
  -1 -15 -10    0.25    3.86
   1  15 -10   -0.38    3.75
  -1 -15  -8   11.10    4.53
  15   1  -8   20.17    4.87
 -15  -1  -8   17.50    3.48
  15  -1   8   12.24    4.47
  -1 -15  -8   20.41    4.78
   1 -15   8   16.83    4.09
   1  15  -8   16.66    4.97
  15   1  -6   26.00    4.94
   1 -15   6   31.65    4.64
  15  -1   6   35.15    5.94
  -1 -15  -6   28.90    5.46
  15   1  -6   33.29    4.93
  15   1  -4    7.06    3.20
  -1 -15  -4    4.56    3.77
  15  -1   4    9.62    4.45
   1 -15   4   11.03    3.72
 -15  -1  -4   10.91    2.74
  15   1  -4    6.47    3.28
   1 -15   2    3.13    2.94
  15   1  -2    2.75    2.88
  15  -1   2   -0.58    3.48
 -15  -1  -2    7.26    2.60
  -1 -15  -2    0.75    3.44
  15  -1   2    0.84    2.86
   1 -15   2    1.81    2.31
  15   1  -2   -1.69    2.87
 -15   1   2    4.80    2.84
 -15   1   0   30.55    3.84
  -1 -15   0   30.36    4.97
   1 -15   0   20.68    4.19
 -15  -1   0   22.65    3.74
  15  -1   0   21.05    4.18
  15   1   0   26.95    4.16
   1 -15   0   23.72    3.38
  15  -1  -2    3.47    2.78
 -15  -1   2    1.40    2.85
  15   1   2   -1.48    3.46
  15   1   2    9.12    3.28
  15  -1  -2    1.36    2.78
  -1 -15   2    5.66    3.45
   1 -15  -2    6.77    2.53
   1 -15  -2    7.78    3.78
  15  -1  -4    6.39    2.92
 -15  -1   4   12.95    3.55
  15   1   4    2.79    3.59
  -1 -15   4    9.97    3.60
   1 -15  -4   11.17    3.94
  15  -1  -4    5.71    3.24
  15  -1  -6   33.50    5.11
 -15  -1   6   28.61    4.61
  -1 -15   6   35.97    5.09
  15   1   6   23.47    5.02
   1 -15  -6   43.67    6.23
   1 -15  -6   37.21    5.49
  -1  15  -6   37.02    5.71
  15  -1  -6   40.04    5.36
  -1 -15   8    7.10    3.88
  15  -1  -8   10.59    3.97
 -15   1  -8   11.76    3.50
  15   1   8   14.72    4.94
   1 -15  -8   18.27    4.77
   1 -15  -8   24.70    5.50
  -1  15  -8   22.46    5.03
  15  -1 -10    0.88    3.82
 -15   1 -10   -1.87    3.20
  15   1  10    0.81    4.14
   1 -15 -10   -2.20    4.21
  -1 -15  10   -8.88    3.78
  -1  15 -10    5.15    4.21
  15  -1 -12   14.22    4.55
 -15   1 -12    1.37    3.33
  15   1  12    7.45    5.36
  -1 -15  12    5.39    3.95
   1 -15 -12   11.03    4.76
  -1  15 -12   17.83    5.18
  15  -1 -14    8.59    5.08
 -15   1 -14    1.41    3.58
 -15   1 -16    6.65    4.32
 -15  -2 -17    2.32    4.09
 -15  -2 -15    4.08    3.74
  15   2 -13    9.57    4.98
 -15  -2 -13   11.70    4.13
  15  -2  13   12.13    5.81
  -2 -15 -13   12.14    4.84
   2  15 -13   12.30    5.22
  15   2 -11   10.61    4.65
 -15  -2 -11    7.65    3.74
  15  -2  11    3.38    4.57
  -2 -15 -11    9.44    4.82
  -2 -15 -11   -1.13    4.45
   2  15 -11    7.49    4.43
  15   2  -9    4.98    4.23
 -15  -2  -9    6.49    3.14
  15  -2   9   -0.90    4.11
  -2 -15  -9    2.97    3.92
  -2 -15  -9    2.52    4.47
   2  15  -9    3.59    3.86
   2 -15   7   14.67    3.76
  15  -2   7   15.26    5.10
  -2 -15  -7    8.06    4.22
  15   2  -5   14.89    4.09
  -2 -15  -5    8.69    4.03
  15  -2   5   14.63    4.14
   2 -15   5   13.69    3.38
 -15  -2  -5   12.52    3.09
  15   2  -5   12.91    3.72
  15  -2   3    5.53    3.57
 -15  -2  -3    3.26    2.66
  -2 -15  -3    4.56    3.64
   2 -15   3   -3.07    3.15
  15   2  -3    1.22    3.21
   2 -15   1   28.75    4.41
  15  -2   1   33.37    5.20
  -2 -15  -1   36.14    5.53
 -15  -2  -1   40.09    4.60
  15  -2   1   26.53    4.62
   2 -15   1   31.97    3.94
  15   2  -1   34.39    4.66
  -2 -15   1   31.82    5.09
  15  -2  -1   24.37    3.46
  15   2   1   26.10    5.47
 -15  -2   1   37.71    4.61
   2 -15  -1   24.67    4.37
  15   2   1   24.45    4.04
  15  -2  -1   26.57    4.63
   2 -15  -1   24.89    3.44
  15  -2  -3   -3.03    2.82
  15   2   3   -0.13    3.40
 -15  -2   3    2.98    2.96
   2 -15  -3   -1.25    3.25
  -2 -15   3    2.07    3.30
  15   2   3   -3.41    3.06
  15  -2  -3    1.71    2.87
   2 -15  -3    0.18    2.44
  15  -2  -5   10.92    3.56
 -15  -2   5   10.27    3.35
  -2 -15   5   13.41    4.03
  15   2   5   11.60    4.41
   2 -15  -5   13.52    3.69
   2 -15  -5   15.32    4.63
  -2  15  -5    3.77    3.56
  15  -2  -5   11.58    3.59
  15  -2  -7   21.48    4.38
  -2 -15   7   21.51    4.70
 -15  -2   7   22.73    4.37
  15   2   7   16.05    4.80
   2 -15  -7   20.77    4.88
   2 -15  -7   24.70    5.13
  -2  15  -7   18.54    5.07
  15  -2  -7   13.83    4.02
  15  -2  -9   -5.06    4.25
 -15   2  -9    0.90    2.93
  15   2   9    2.32    4.02
   2 -15  -9    2.64    3.97
  -2  15  -9   -4.32    4.38
  -2 -15   9   -1.65    3.27
 -15  -2   9    3.64    3.69
  15  -2 -11   10.47    4.78
 -15   2 -11    3.06    3.68
  15   2  11   11.08    5.06
  -2 -15  11   -2.50    3.62
   2 -15 -11    6.16    4.66
  -2  15 -11   10.69    5.11
  15  -2 -13   11.16    5.19
 -15   2 -13   13.66    5.00
  -2 -15  13   25.87    5.42
  15   2  13    6.01    5.98
   2 -15 -13   10.16    4.61
  -2  15 -13    8.30    5.30
 -15   2 -15    8.65    4.72
 -15  -3 -16    5.92    4.24
  15   3 -14    8.68    5.46
 -15  -3 -14    6.22    3.97
  -3 -15 -12   15.89    5.45
  15   3 -12    4.18    4.18
  15  -3  12    5.64    4.43
  -3 -15 -12    4.88    4.04
   3  15 -12   12.87    5.36
  15   3 -10   -6.75    4.29
  15  -3  10    8.12    4.78
  -3 -15 -10    2.86    4.20
   3  15 -10    0.77    4.02
  15  -3   8    8.44    4.40
  -3 -15  -8    5.91    4.22
 -15  -3  -6   22.30    3.87
   3 -15   6   15.50    3.46
  -3 -15  -6   24.38    5.47
  15  -3   6   23.51    5.22
  15  -3   4    1.56    3.70
   3 -15   4    7.71    3.25
  -3 -15  -4   -1.17    3.75
  15   3  -4   11.18    3.68
 -15  -3  -4    3.86    2.63
   3 -15   2   12.87    3.44
  15  -3   2    8.26    3.67
  -3 -15  -2    8.63    4.35
 -15  -3  -2    7.06    3.03
  15  -3   2    5.49    3.52
   3 -15   2   11.55    3.18
  15   3  -2    6.32    3.07
 -15  -3   0   51.68    5.17
  -3 -15   0   47.19    5.86
  15  -3   0   38.09    5.33
   3 -15   0   46.39    5.25
  15  -3   0   45.59    5.66
   3 -15   0   36.40    4.44
  15   3   0   41.21    4.73
  15  -3  -2    8.32    2.90
   3 -15  -2    9.40    3.92
  15   3   2   10.21    4.29
 -15  -3   2    9.33    3.40
  -3 -15   2    4.54    3.58
  15   3   2    7.93    3.16
  15  -3  -2   12.32    4.05
   3 -15  -2   14.75    3.41
  -3  15  -2    9.32    3.94
  15  -3  -4    1.99    2.96
   3 -15  -4    1.60    3.21
  15   3   4   -0.02    4.12
 -15  -3   4    1.75    3.13
  -3 -15   4    0.60    3.27
  -3  15  -4   -0.37    3.18
  15  -3  -4    8.70    3.73
   3 -15  -4    1.30    3.08
  15  -3  -6   27.34    4.79
  -3 -15   6   25.51    5.16
 -15  -3   6   27.48    4.66
  15   3   6   28.75    5.47
   3 -15  -6   20.49    4.75
   3 -15  -6   16.86    4.78
  -3  15  -6   20.58    4.54
  15  -3  -6   23.35    4.56
  -3 -15   8    7.73    3.96
  15  -3  -8    5.08    3.81
 -15  -3   8    9.28    3.49
  15   3   8   23.15    5.26
   3 -15  -8    9.46    4.01
  -3  15  -8   14.30    4.94
  15  -3  -8   18.21    4.85
  15  -3 -10   -7.93    4.34
 -15  -3  10    2.60    3.78
  15   3  10   -2.48    4.47
   3 -15 -10   -3.39    4.18
  -3 -15  10   -4.02    3.58
  -3  15 -10    4.16    4.45
  15  -3 -12    9.83    4.71
 -15   3 -12    7.98    3.99
  15   3  12   10.31    5.41
  -3 -15  12   14.81    4.81
   3 -15 -12   11.58    4.91
  -3  15 -12    5.47    4.09
  15  -3 -14   -1.98    4.52
 -15   3 -14   -1.16    3.81
  -3 -15  14    9.61    4.64
  -3 -15  16   -1.90    4.41
  15   4 -13    8.05    5.66
  15  -4  13    4.26    5.16
  -4 -15 -13   -1.13    4.25
   4  15 -13    6.04    4.88
  15   4 -11   -1.67    4.16
  -4 -15 -11    3.82    4.29
  15  -4  11    3.29    4.65
   4  15 -11    8.45    5.03
  15  -4   9   -1.40    3.85
  -4 -15  -9   -0.26    4.32
  -4 -15  -7   23.53    5.52
 -15  -4  -7   28.87    4.47
  15  -4   7   30.84    5.55
 -15  -4  -5   15.43    3.84
  15  -4   5   16.35    4.50
  -4 -15  -5   22.98    5.15
 -15  -4  -3    2.35    3.03
  15  -4   3    6.96    3.87
  -4 -15  -3    0.07    3.81
   4 -15   3    0.04    2.67
  15   4  -3   -1.75    2.74
  -4 -15  -1   27.10    5.28
   4 -15   1   23.88    3.86
  15  -4   1   27.13    5.12
 -15  -4  -1   19.77    3.97
  15  -4   1   23.55    4.60
   4 -15   1   20.08    3.87
  15   4  -1   21.68    3.99
  15   4   1   25.15    5.18
 -15  -4   1   23.61    4.22
  -4 -15   1   23.92    4.80
  15  -4  -1   26.34    4.75
   4 -15  -1   22.91    4.08
  15   4   1   21.73    3.72
  -4  15  -1   26.71    4.64
   4 -15  -1   33.77    4.58
  15  -4  -3    1.14    2.92
  15   4   3    1.59    3.70
 -15  -4   3    2.93    3.02
  -4 -15   3   -4.13    3.75
   4 -15  -3   -2.17    3.22
  -4  15  -3    1.98    3.57
  15   4   3    7.32    2.96
  15  -4  -3    3.64    3.53
   4 -15  -3   -1.10    2.85
  15  -4  -5   16.44    4.10
  -4 -15   5   23.48    4.83
  15   4   5   30.13    5.52
 -15  -4   5   19.07    4.47
   4 -15  -5   13.99    4.55
   4 -15  -5   15.11    4.31
  -4  15  -5   14.25    4.61
  15  -4  -5   17.32    4.39
   4 -15  -5   20.88    4.21
  15  -4  -7   23.90    4.59
  -4 -15   7   22.51    5.12
 -15  -4   7   19.72    4.65
  15   4   7   19.59    5.39
   4 -15  -7   25.06    5.59
  -4  15  -7   20.50    4.96
  15  -4  -7   31.45    5.35
  15  -4  -9    2.14    3.68
 -15  -4   9    0.82    3.50
  15   4   9    4.68    4.39
   4 -15  -9    1.25    3.68
  -4  15  -9    9.56    4.45
  -4 -15   9    4.15    3.97
  15  -4 -11    2.70    4.09
 -15  -4  11    1.98    3.68
  15   4  11    0.02    4.66
  -4 -15  11    1.00    3.60
   4 -15 -11    1.38    4.13
  -4  15 -11   -1.24    4.00
  15  -4 -13   12.62    5.28
 -15   4 -13    7.37    4.23
  15   4  13   -1.64    4.67
  -4 -15  13    2.54    3.98
   4 -15 -13    0.80    4.29
 -15   4 -15    4.13    4.43
  -4 -15  15   -5.36    4.70
  15   5 -12    9.53    5.05
  -5 -15 -12    3.48    4.18
  15  -5  12    2.74    4.62
   5  15 -12    6.94    5.08
  15  -5  10   -9.73    4.64
  -5 -15 -10   -2.13    4.13
  -5 -15  -8   16.93    5.22
  15  -5   8   25.87    5.52
 -15  -5  -8   14.54    3.94
 -15  -5  -6   32.92    5.09
  15  -5   6   29.14    5.28
  -5 -15  -6   23.82    5.35
 -15  -5  -4    4.00    3.24
  15  -5   4    2.84    3.39
  -5 -15  -4    1.98    3.62
 -15  -5  -2    9.03    3.56
   5 -15   2   11.65    3.19
  -5 -15  -2    7.48    3.83
  15  -5   2   13.66    4.28
  15  -5   2   10.92    3.50
   5 -15   2   -1.24    3.18
  -5  15   2    6.63    3.15
  15   5   0   41.08    5.75
  15  -5   0   36.84    5.37
   5 -15   0   38.64    4.67
 -15  -5   0   41.87    5.08
  15  -5   0   41.97    6.04
  -5  15   0   40.42    5.15
   5 -15   0   36.93    4.92
  -5 -15   0   32.36    5.42
  15   5   2   10.45    4.29
   5 -15  -2    9.27    3.57
 -15  -5   2   13.40    4.13
  -5 -15   2   10.96    4.31
  -5  15  -2    9.43    3.64
  15  -5  -2   12.58    3.80
   5 -15  -2   13.73    3.65
  15   5   4    1.66    3.85
  -5 -15   4   -4.57    3.57
 -15  -5   4   -0.86    3.35
   5 -15  -4    1.09    3.68
  -5  15  -4    4.76    3.24
  15  -5  -4    4.46    3.86
   5 -15  -4    4.78    3.24
   5 -15  -4    2.33    3.01
  15  -5  -4    9.28    3.30
  -5 -15   6   24.49    5.48
  15   5   6   21.29    5.53
 -15  -5   6   35.59    5.30
   5 -15  -6   26.34    4.92
  -5  15  -6   32.38    5.12
  15  -5  -6   29.66    5.41
   5 -15  -6   40.72    5.52
  15  -5  -6   28.38    4.61
 -15  -5   8   10.47    4.06
  15   5   8   12.52    4.83
   5 -15  -8   19.45    4.88
  -5  15  -8   19.33    5.04
  -5 -15   8   18.43    4.74
  15  -5  -8   23.18    5.20
  15  -5  -8   16.05    4.33
  15  -5 -10   -4.19    4.43
 -15  -5  10   -0.72    4.05
  15   5  10    6.08    4.75
   5 -15 -10    6.47    4.27
  -5  15 -10    0.31    4.29
  -5 -15  10   -0.36    3.96
  15  -5 -12    2.92    4.20
 -15  -5  12   -0.26    4.20
  15   5  12   -9.71    5.33
  -5 -15  12   12.10    4.97
  -5  15 -12    6.87    5.16
   5 -15 -12    6.67    4.58
 -15   5 -14   -4.61    4.28
  -5 -15  14    8.63    4.91
  15  -5 -14    4.07    4.66
  15  -6  13   16.98    6.40
  15  -6  11    5.00    4.33
  -6 -15 -11    1.17    4.75
  -6 -15  -9    2.64    4.13
  15  -6   9   10.60    4.45
 -15  -6  -9   10.25    3.91
  15  -6   7   14.57    4.69
 -15  -6  -7   22.39    4.55
  -6 -15  -7   25.42    5.30
 -15  -6  -5   12.27    3.93
  15  -6   5    1.85    3.54
  -6 -15  -5    0.36    3.79
 -15  -6  -3    8.82    3.61
  -6 -15  -3    3.55    3.86
  15  -6   3    2.10    3.47
  -6  15   3    2.29    2.78
  -6 -15  -1   61.48    6.96
 -15  -6  -1   61.14    6.25
  15  -6   1   55.52    6.37
  -6  15   1   51.22    5.51
  15  -6   1   52.01    6.74
   6 -15   1   55.95    6.07
   6 -15  -1   56.52    5.35
  15  -6  -1   53.17    6.18
  15   6   1   52.46    6.33
  -6 -15   1   56.03    6.75
  -6  15  -1   58.02    5.91
 -15  -6   1   57.14    6.14
  15  -6  -1   45.99    6.32
   6 -15  -1   56.41    6.02
   6 -15  -3    0.28    3.19
  15   6   3   10.20    4.61
  -6 -15   3    5.25    3.60
   6 -15  -3    1.97    3.48
 -15  -6   3   12.59    4.18
  -6  15  -3    5.80    3.41
  15  -6  -3    5.93    3.66
   6 -15  -3    0.24    3.12
  -6 -15   5   12.02    4.51
  15   6   5   16.40    5.23
 -15  -6   5    7.91    3.75
   6 -15  -5    6.02    3.95
  -6  15  -5    3.16    3.45
  15  -6  -5   14.79    3.67
  15  -6  -5    8.28    4.29
   6 -15  -5    7.54    3.62
  -6 -15   7   26.44    5.05
  15   6   7   15.72    4.66
 -15  -6   7   30.76    5.42
   6 -15  -7   23.84    5.33
  -6  15  -7   29.03    5.58
  15  -6  -7   28.57    4.83
  15  -6  -7   23.52    5.61
   6 -15  -7   30.80    5.45
 -15  -6   9    5.22    4.14
  15   6   9    3.16    4.15
   6 -15  -9   14.60    4.97
  -6  15  -9    5.83    4.18
  -6 -15   9    9.89    4.97
  15  -6  -9    1.66    3.63
  15  -6  -9   16.24    5.24
 -15  -6  11    1.58    3.97
  15   6  11    3.18    4.67
  -6 -15  11    3.00    4.10
  -6  15 -11    2.69    4.36
   6 -15 -11    3.24    4.35
  15  -6 -11    6.39    4.35
  -6 -15  13    9.55    5.05
  15  -6 -13   12.54    5.08
  15  -7  12   -2.79    4.53
  -7 -15 -10    1.99    4.12
  15  -7  10    1.63    4.05
 -15  -7 -10   -1.31    3.39
  15  -7   8    9.73    4.49
 -15  -7  -8   18.38    4.61
  -7 -15  -8   19.92    4.94
  15  -7   6   29.68    5.71
 -15  -7  -6   24.90    5.02
  -7 -15  -6   24.62    5.53
  -7 -15  -4   -3.95    4.22
 -15  -7  -4    7.44    4.06
  15  -7   4    0.46    3.93
  -7 -15  -2   15.31    5.02
 -15  -7  -2   15.48    4.37
  15  -7   2   15.47    4.39
  -7  15   2   13.58    3.69
  15  -7   2   12.40    4.56
   7 -15   2    8.54    3.81
  15   7   0   45.28    6.38
  15  -7   0   43.02    5.81
  -7  15   0   41.91    5.26
  -7 -15   0   37.59    5.90
  15  -7   0   38.76    6.45
   7 -15   0   39.06    5.39
 -15  -7   0   52.97    6.13
  15   7   2    9.33    4.32
  -7 -15   2    7.63    4.00
  -7  15  -2   10.85    3.95
 -15  -7   2   15.63    4.43
  15  -7  -2    7.81    4.38
   7 -15  -2   21.47    4.77
  -7 -15   4    6.81    3.80
  15   7   4    4.25    3.90
   7 -15  -4   -0.77    3.87
 -15  -7   4    4.44    3.86
  -7  15  -4   -0.13    3.37
   7 -15  -4    8.60    3.57
  15  -7  -4   10.41    4.32
   7 -15  -4    0.48    3.45
  -7 -15   6   22.44    5.26
  15   7   6   28.89    5.52
 -15  -7   6   27.01    5.26
   7 -15  -6   23.33    5.37
  -7  15  -6   31.58    5.23
  15  -7  -6   27.77    5.05
  15  -7  -6   22.94    5.25
   7 -15  -6   34.86    5.32
 -15  -7   8   23.44    5.08
  15   7   8   14.83    5.18
   7 -15  -8   13.36    4.55
  -7  15  -8   22.62    4.99
  -7 -15   8   22.56    5.25
  15  -7  -8   23.97    4.87
  15  -7  -8   29.80    5.85
 -15  -7  10    4.95    4.00
  15   7  10   -6.09    4.62
  -7  15 -10    0.81    4.35
   7 -15 -10   -3.17    4.13
  -7 -15  10   -3.12    3.88
  15  -7 -10    2.23    4.05
  15   7  12    1.87    4.68
  -7 -15  12   11.26    5.05
  15  -7 -12    2.82    4.43
 -15  -8 -11    6.15    4.12
  15  -8  11   -7.67    4.85
  15  -8   9    6.64    4.45
  -8 -15  -9    9.57    4.62
 -15  -8  -9   -1.45    3.65
  15  -8   7   26.07    5.43
  -8 -15  -7   15.65    5.17
 -15  -8  -7   19.49    4.31
  -8 -15  -5   10.71    4.48
  15  -8   5    2.36    4.06
 -15  -8  -5    6.17    3.62
  -8 -15  -3    2.22    4.00
 -15  -8  -3    3.39    3.61
  15  -8   3    2.24    3.64
 -15  -8  -1   26.87    4.95
  15   8  -1   27.13    5.48
  15  -8   1   41.13    5.86
  -8  15   1   34.30    4.91
  -8 -15  -1   36.45    6.11
  15  -8   1   30.55    5.72
   8 -15   1   36.59    5.86
  15  -8  -1   20.26    4.68
  15   8   1   39.39    6.10
  -8 -15   1   23.32    5.52
  -8  15  -1   31.88    4.89
  15  -8  -1   37.23    5.98
   8 -15  -1   30.29    5.23
 -15  -8   1   29.70    5.18
  -8 -15   3   -2.35    3.69
  15   8   3   -0.62    3.84
   8 -15  -3    0.24    3.60
  -8  15  -3    2.70    3.37
 -15  -8   3    8.20    4.03
  15  -8  -3   -6.30    4.15
   8 -15  -3    3.36    3.78
  -8 -15   5   13.28    4.78
  15   8   5   12.11    4.86
   8 -15  -5    4.54    3.54
 -15  -8   5    9.22    4.05
  -8  15  -5    6.99    3.42
  15  -8  -5    4.92    4.19
   8 -15  -5    8.91    4.01
  -8 -15   7   16.02    5.15
  15   8   7   21.70    5.39
 -15  -8   7   16.17    4.97
  -8  15  -7   18.52    5.22
   8 -15  -7   19.89    4.78
  15  -8  -7   21.30    5.67
   8 -15  -7   18.93    4.82
 -15  -8   9    3.51    4.03
  15   8   9    5.43    4.68
  -8  15  -9    5.95    4.40
   8 -15  -9    2.96    4.19
  -8 -15   9    5.93    4.60
  15  -8  -9    0.92    4.02
  15  -8  -9    3.56    4.54
  15   8  11    0.76    4.66
   8 -15 -11   11.81    5.01
  15  -8 -11    6.87    4.73
  15  -8 -13    6.57    5.60
 -15  -9 -12    3.39    4.44
  15  -9  10  -13.47    5.20
 -15  -9 -10   -1.69    3.96
  15  -9   8   20.87    5.34
  -9 -15  -8   11.80    4.60
 -15  -9  -8    9.21    4.36
  -9 -15  -6   26.65    6.36
  15  -9   6   15.61    4.90
 -15  -9  -6   20.58    5.41
  -9 -15  -4    5.32    4.70
 -15  -9  -4    2.84    4.09
  15  -9   4    0.76    3.69
 -15  -9  -2   11.12    4.45
  15  -9   2   14.16    4.36
  -9 -15  -2    7.14    4.51
  15  -9   2   10.67    4.39
   9 -15   2    4.86    3.70
 -15  -9   0   37.53    5.92
  15   9   0   38.63    5.87
  15  -9   0   36.00    5.53
  -9 -15   0   36.26    5.96
  15  -9   0   26.77    5.67
   9 -15   0   27.85    5.28
  15  -9  -2    9.88    4.08
  15   9   2   16.68    4.68
  -9 -15   2    7.94    4.14
   9 -15  -2    9.87    3.77
  -9  15  -2    8.17    3.51
  15  -9  -2   11.76    4.91
   9 -15  -2    2.85    3.55
 -15  -9   2   12.07    4.21
  -9 -15   4    2.37    3.99
  15   9   4    6.47    4.42
   9 -15  -4   -0.43    3.50
  -9  15  -4   -0.98    3.98
 -15  -9   4    1.78    3.93
  15  -9  -4   -5.24    4.71
   9 -15  -4    4.32    4.19
  -9 -15   6   18.08    5.45
  15   9   6   15.70    4.47
  -9  15  -6   24.08    5.23
 -15  -9   6   16.59    4.90
   9 -15  -6   23.75    5.18
  15  -9  -6   19.87    5.32
   9 -15  -6   23.55    5.52
  15   9   8   18.44    5.43
 -15  -9   8   13.35    5.49
  -9  15  -8   19.22    5.25
   9 -15  -8   23.03    5.48
  -9 -15   8   26.22    5.96
  15  -9  -8   17.83    5.65
   9 -15  -8   24.48    5.83
  15   9  10    3.81    4.77
  -9  15 -10    2.39    4.20
   9 -15 -10    3.60    4.82
  15  -9 -10   -2.52    4.22
  15  -9 -12    5.82    4.98
 -15 -10 -11   -2.07    4.61
  15 -10   9    2.64    4.46
 -15 -10  -9    8.93    4.57
  15 -10   7   24.78    5.87
 -15 -10  -7   27.18    5.70
 -10 -15  -5   22.28    5.40
  15 -10   5   18.89    5.13
 -15 -10  -5   15.96    5.00
 -15 -10  -3    6.23    3.76
  15 -10   3   -6.25    4.35
  15 -10   3   -2.71    4.67
 -10 -15  -3    1.84    3.96
  10 -15   3   -3.48    4.11
 -15 -10  -1    8.87    4.18
  15  10  -1   15.98    4.55
  15 -10   1   14.34    4.52
 -10 -15  -1   16.73    5.53
  15 -10   1   14.65    4.63
  10 -15   1   14.05    4.82
 -15 -10   1   10.18    4.70
  15 -10  -1   12.52    4.09
  15  10   1   18.03    4.56
 -10 -15   1    4.53    4.12
  15 -10  -1    5.69    4.18
  10 -15  -1   16.50    5.37
 -10 -15   3   -3.06    4.20
  15 -10  -3  -12.39    4.34
  15  10   3   -3.80    3.87
 -10  15  -3   -0.87    3.72
 -15 -10   3   -5.10    4.15
  15 -10  -3   -3.99    4.11
  10 -15  -3   -0.45    3.64
 -10 -15   5   17.75    5.10
  15  10   5   21.96    5.27
 -10  15  -5   20.67    5.09
  10 -15  -5   13.73    4.76
 -15 -10   5   18.70    5.26
  15 -10  -5   15.47    5.33
  10 -15  -5   11.23    4.72
  15  10   7   22.04    5.65
 -10  15  -7   25.11    5.45
 -15 -10   7   25.86    5.93
  10 -15  -7   24.33    5.47
  10 -15  -7   23.65    5.82
 -15  10  -9   14.05    5.04
  15  10   9    6.31    4.88
 -10  15  -9    3.61    4.45
  10 -15  -9    4.18    4.50
  15  10  11   -5.58    5.08
  15 -10 -11    4.89    4.51
 -15 -11  -8   -2.56    4.70
 -15 -11  -6   15.09    5.65
 -15 -11  -4    3.46    4.08
  11 -15   4    0.38    4.15
 -15 -11  -2   11.64    4.76
  15  11  -2    5.70    3.87
 -11 -15  -2   -3.01    4.35
  15 -11   2    3.78    4.05
  11 -15   2    9.77    4.67
 -15 -11   0   18.20    5.27
  15  11   0   18.72    4.82
 -11 -15   0   22.21    5.56
  15 -11   0   17.41    5.64
  11 -15   0    8.13    4.42
 -15 -11   2    5.86    4.55
 -11 -15   2    4.90    4.88
  15  11   2    5.58    4.08
  15 -11  -2   -0.74    4.15
  11 -15  -2    2.61    4.19
  15  11   4   -2.32    4.07
 -11  15  -4    1.87    3.84
 -15 -11   4    0.21    4.26
  11 -15  -4   -1.17    4.05
  15  11   6    3.65    3.98
 -11  15  -6    4.81    4.21
  11 -15  -6    2.64    4.13
 -15  11  -8   -3.14    4.19
  15  11   8   -2.90    4.78
 -11  15  -8    3.82    4.68
  11 -15  -8   -5.52    4.71
  15  11  10   -9.50    5.86
  11 -15 -10   -0.74    4.74
  15  12  -3    9.81    4.33
  15  12  -1   14.77    4.63
  12 -15   1   11.27    4.99
  15  12   1   20.80    4.97
  12 -15  -1   13.74    5.41
  15  12   3    2.10    4.04
  15  12   5   -1.88    4.04
  15  12   7    0.63    4.42
 -12  15  -7   -0.09    4.50
 -16   0   0    7.21    3.04
   0 -16   0    6.60    3.60
  16   0   0    5.22    3.85
  16   0   0    8.37    3.56
  16   0  -2   -5.14    3.12
 -16   0   2    3.19    2.95
  16   0   2    2.77    3.70
   0 -16  -2    0.27    3.75
  16   0   2   -0.48    2.94
   0 -16   2   -3.87    3.77
  16   0  -2   -0.38    3.04
 -16   0   4   16.86    3.92
  16   0  -4   14.28    3.75
   0 -16  -4   17.47    4.96
  16   0   4   12.09    4.80
   0 -16   4   17.72    4.12
  16   0  -4    8.92    3.64
  16   0  -6   14.40    4.45
   0 -16   6   21.70    4.70
  16   0   6   25.32    5.79
   0 -16  -6   28.10    5.28
   0  16  -6   26.62    5.09
  16   0  -6   23.61    4.97
  16   0  -8    7.29    3.68
  16   0   8    8.75    4.80
   0 -16  -8    8.33    4.26
   0 -16  -8    6.73    4.28
   0  16  -8   12.44    4.86
   0 -16   8    6.45    3.46
  16   0 -10    9.28    4.63
  16   0  10    2.16    4.50
   0 -16 -10    0.41    4.27
   0 -16 -10    3.72    4.32
   0 -16  10    3.41    3.51
   0  16 -10   -4.61    4.52
  16   0 -12    6.94    5.06
 -16   0 -12    8.58    4.13
 -16   0 -14    0.86    3.77
 -16   0 -16   -6.44    4.92
  16   1 -13    3.12    4.83
  16   1 -11    8.58    4.55
  -1 -16 -11    9.11    4.77
  16  -1  11    8.32    5.31
  -1 -16 -11    9.94    4.89
   1  16 -11    9.63    5.09
  16   1  -9   -5.88    4.24
  16  -1   9    5.21    4.38
  -1 -16  -9    1.65    3.92
   1  16  -9   -1.01    4.08
   1 -16   7   13.80    3.97
  16   1  -7    9.95    4.36
  16  -1   7    9.05    4.55
  -1 -16  -7    4.39    4.24
  16   1  -5    9.65    3.90
  -1 -16  -5   -2.59    3.68
   1 -16   5    3.86    3.29
  16  -1   5   11.77    4.40
  16   1  -5    6.63    3.67
  16   1  -3    2.62    3.35
  16  -1   3    6.56    4.14
   1 -16   3    3.82    3.27
  -1 -16  -3    3.17    3.95
  16  -1   3   -3.02    3.67
  16   1  -3    4.15    3.37
   1 -16   1   38.75    5.40
  16   1  -1   32.94    4.39
  16  -1   1   33.39    5.57
  -1 -16  -1   38.54    5.66
 -16  -1  -1   37.55    4.48
  16  -1   1   33.93    5.11
  16   1  -1   44.20    5.34
 -16   1   1   35.17    4.46
  -1 -16   1   38.53    5.61
 -16  -1   1   44.89    5.05
  16   1   1   43.34    6.49
   1 -16  -1   38.64    5.41
  16   1   1   34.85    4.88
  16  -1  -1   36.74    5.29
   1 -16  -3    6.33    3.86
  16  -1  -3    3.52    2.99
 -16  -1   3    7.71    3.45
  16   1   3    4.92    4.25
  -1 -16   3    8.60    3.95
  16   1   3    6.31    3.45
  16  -1  -3    1.59    2.96
  16  -1  -5    6.13    3.70
 -16  -1   5    4.41    3.73
  -1 -16   5    4.22    3.71
  16   1   5    7.88    4.56
   1 -16  -5    7.02    3.81
  16  -1  -5    5.02    3.49
  -1  16  -5    2.13    3.48
  16  -1  -7   10.01    3.97
  -1 -16   7    4.12    3.63
  16   1   7    2.89    3.98
   1 -16  -7   12.46    4.64
   1 -16  -7   16.40    4.76
  -1  16  -7    3.38    3.85
  16  -1  -7   18.65    4.83
  16  -1  -9    5.75    4.19
  16   1   9    4.74    4.41
   1 -16  -9   -2.85    4.03
   1 -16  -9   -2.49    4.37
  -1 -16   9   -2.17    3.55
  -1  16  -9   -2.01    3.83
  16  -1 -11    0.61    4.02
 -16   1 -11    8.43    4.03
  16   1  11   11.23    5.44
   1 -16 -11    6.23    4.94
  -1 -16  11   12.44    4.56
  -1  16 -11   16.12    5.57
  16  -1 -13   12.93    5.07
 -16   1 -13   16.98    4.93
 -16   1 -15   -0.15    4.10
  16   2 -12    2.20    4.20
  16   2 -10   -4.92    4.54
  16  -2  10    0.56    4.47
  -2 -16 -10   -4.81    4.43
   2  16 -10   -2.76    3.93
  16   2  -8   16.05    4.99
  16  -2   8   18.94    5.37
  -2 -16  -8   15.08    5.11
  16   2  -6   21.31    4.62
   2 -16   6   22.62    4.41
  -2 -16  -6   27.24    5.30
  16  -2   6   13.51    4.95
  16   2  -4    5.96    3.39
  16  -2   4    0.72    3.78
   2 -16   4    6.25    3.54
  -2 -16  -4    0.85    3.84
  16   2  -4    2.31    3.47
   2 -16   2   16.18    3.87
  16  -2   2   19.29    4.80
  -2 -16  -2   13.00    4.59
 -16  -2  -2   17.29    3.79
  16  -2   2   10.87    3.84
   2 -16   2    7.52    2.82
  16   2  -2   19.91    4.06
  -2 -16   0   46.61    5.98
  16   2   0   44.76    6.12
  16  -2   0   37.67    5.86
   2 -16   0   44.42    5.40
 -16  -2   0   47.13    5.07
  16  -2   0   42.59    5.58
   2 -16   0   38.95    4.44
  16   2   0   39.61    4.94
  16   2   2   13.27    4.72
 -16  -2   2   14.05    3.65
   2 -16  -2   11.73    3.96
  -2 -16   2   12.87    4.29
  16   2   2   11.77    3.94
  16  -2  -2   15.90    4.07
   2 -16  -2   16.61    3.50
  16  -2  -4    1.92    3.05
 -16  -2   4    8.79    3.57
  16   2   4   -2.42    3.72
   2 -16  -4    7.16    4.13
  -2 -16   4   -1.39    3.57
  16   2   4   -0.29    2.93
  16  -2  -4    4.73    3.62
  -2  16  -4   -0.08    3.43
   2 -16  -4    1.82    2.84
  16  -2  -6   21.47    4.13
 -16  -2   6   18.43    4.37
  -2 -16   6   20.53    4.67
   2 -16  -6   21.89    5.33
  16   2   6   20.18    5.47
   2 -16  -6   23.91    5.06
  -2  16  -6   25.12    5.22
  16  -2  -6   21.50    4.82
  -2 -16   8   17.46    4.89
  16  -2  -8   18.23    4.61
 -16  -2   8    5.43    3.76
   2 -16  -8   13.33    4.63
  16   2   8   11.88    5.22
   2 -16  -8   14.75    5.14
  -2  16  -8   18.80    5.07
  16  -2 -10   -4.45    4.47
  16   2  10  -10.67    5.38
   2 -16 -10    6.47    4.47
  -2 -16  10   -4.76    4.19
  -2  16 -10    6.46    4.68
  16  -2 -12    9.73    5.12
 -16   2 -12    7.24    4.27
  -2 -16  12    1.84    3.96
 -16   2 -14    1.08    3.94
  16   3 -11    9.73    4.98
  -3 -16 -11   -0.90    4.33
  16  -3  11   -0.16    4.99
   3  16 -11   -1.97    5.09
  16   3  -9   -5.70    4.36
  16  -3   9    2.33    4.31
  -3 -16  -9    4.33    4.52
  16   3  -7   12.65    4.60
  -3 -16  -7   11.23    4.24
  16  -3   7   22.08    5.55
  16  -3   5   11.96    4.47
  -3 -16  -5    5.88    4.35
  16  -3   3   -4.82    4.05
  -3 -16  -3    3.27    4.11
 -16  -3  -3   -2.60    2.75
   3 -16   3    1.67    3.08
  16  -3   3   -7.67    3.82
   3 -16   3   -2.08    2.85
  16   3  -3   -0.14    3.00
   3 -16   1   22.20    4.31
  -3 -16  -1   21.62    5.02
  16  -3   1   20.72    4.63
 -16  -3  -1   22.92    4.29
  16  -3   1   25.17    4.90
   3 -16   1   14.02    3.16
  16   3  -1   21.94    3.83
  16   3   1   15.50    4.53
 -16  -3   1   21.11    4.22
   3 -16  -1   18.72    4.16
  16  -3  -1   13.03    4.05
  16   3   1   19.45    3.87
   3 -16  -1   14.90    3.38
  -3 -16   1   24.23    4.98
   3 -16  -3   -2.10    3.24
  16   3   3   -3.89    4.27
 -16  -3   3    3.35    3.32
  -3 -16   3    1.77    3.72
  16   3   3    5.21    3.22
  -3  16  -3    7.23    3.70
  16  -3  -3    1.49    3.11
   3 -16  -3   -2.20    3.09
  16  -3  -5   13.87    3.73
   3 -16  -5   11.38    4.47
 -16  -3   5   13.81    4.34
  -3 -16   5    8.24    3.86
  16   3   5    8.23    4.75
  -3  16  -5    9.31    4.26
  16  -3  -5   17.55    4.55
   3 -16  -5   12.72    3.85
   3 -16  -7   11.12    4.45
  16  -3  -7   20.72    4.58
  -3 -16   7   14.80    4.34
 -16  -3   7   10.24    4.18
  16   3   7    6.62    4.32
   3 -16  -7   18.20    5.04
  -3  16  -7   14.60    4.68
  16  -3  -7    7.13    3.91
  16  -3  -9    2.76    3.86
 -16  -3   9   11.62    4.52
  16   3   9    3.02    4.28
   3 -16  -9    7.00    4.01
  -3  16  -9    9.56    5.07
  -3 -16   9    1.62    3.76
  16  -3 -11    7.87    4.81
  16   3  11    2.48    4.77
   3 -16 -11   -3.56    4.51
  -3 -16  11    0.92    4.01
  -3  16 -11   -2.16    4.48
  16  -3 -13    9.18    5.72
 -16   3 -13    8.32    4.73
  -3 -16  13    3.96    4.45
 -16   3 -15   -2.02    4.26
  16   4 -12    4.66    5.26
  16   4 -10    4.18    4.48
  16  -4  10   -2.55    4.47
  -4 -16 -10    6.56    4.72
   4  16 -10    1.38    4.39
  -4 -16  -8   14.35    4.97
  16  -4   8   11.38    4.74
  16  -4   6   31.74    5.82
  -4 -16  -6   20.94    5.18
  16  -4   4    4.24    3.56
  -4 -16  -4    1.80    4.05
 -16  -4  -4    0.77    2.97
   4 -16   2    5.27    3.23
  -4 -16  -2    5.45    4.03
  16  -4   2    3.99    4.03
 -16  -4  -2    1.51    3.03
  16  -4   2   -1.81    3.67
   4 -16   2    4.35    3.33
  -4 -16   0   11.52    4.38
  16   4   0    4.11    4.08
  16  -4   0   14.86    4.45
   4 -16   0   13.54    4.01
 -16  -4   0   17.69    4.00
  16  -4   0   14.74    4.22
   4 -16   0   11.37    3.38
  -4  16   0   19.67    4.27
   4 -16  -2   12.01    3.80
  16   4   2    1.40    3.79
 -16  -4   2    5.20    3.44
  -4 -16   2    7.62    4.26
  -4  16  -2   -0.82    3.49
  16  -4  -2    1.92    3.13
   4 -16  -2    2.80    2.79
  16   4   4   13.39    5.07
 -16  -4   4    8.91    3.97
  -4 -16   4    6.68    3.98
   4 -16  -4    0.68    3.37
  -4  16  -4    9.48    4.07
  16  -4  -4    5.45    3.65
   4 -16  -4   11.92    3.42
  16  -4  -6   24.86    4.89
  -4 -16   6   20.92    5.04
 -16  -4   6   21.00    4.76
   4 -16  -6   23.13    5.02
  16   4   6   23.55    5.78
   4 -16  -6   25.99    5.35
  -4  16  -6   26.18    5.22
  16  -4  -6   17.39    4.58
  16  -4  -8   12.64    4.49
 -16  -4   8   15.21    4.83
  16   4   8   14.04    5.25
   4 -16  -8    8.43    4.66
  -4  16  -8   13.48    5.07
  16  -4  -8   17.92    5.38
  -4 -16   8   10.86    4.39
  16  -4 -10    1.39    3.99
 -16  -4  10    2.63    3.94
  16   4  10    3.69    5.20
   4 -16 -10   -4.53    4.53
  -4  16 -10    4.47    4.75
  -4 -16  10    1.03    3.73
  16  -4 -12    7.53    4.68
  -4 -16  12    2.92    4.21
 -16   4 -14    6.36    4.64
  -4 -16  14   12.03    5.08
  16   5 -11    0.04    4.23
  16  -5  11    1.67    4.88
  -5 -16  -9    8.23    4.86
  16  -5   9    7.95    4.37
  16  -5   7   16.51    4.81
  -5 -16  -7   23.07    5.44
 -16  -5  -5   16.53    4.06
  16  -5   5   12.93    4.55
  -5 -16  -5   12.07    4.64
  -5 -16  -3   -3.32    3.99
  16  -5   3   -6.50    3.98
  16  -5   3   -6.03    4.47
   5 -16   3   -2.94    3.26
  -5  16   3   -2.30    3.48
 -16  -5  -3    0.01    3.13
  -5 -16  -1   33.69    5.88
  16  -5   1   25.14    5.03
 -16  -5  -1   29.62    4.92
  16  -5   1   26.13    4.99
   5 -16   1   31.53    4.97
  -5  16   1   35.20    5.07
  16  -5  -1   26.05    5.10
  16   5   1   24.30    5.57
 -16  -5   1   28.65    4.89
   5 -16  -1   32.26    4.77
  -5 -16   1   27.98    5.78
  -5  16  -1   22.72    4.76
  16  -5  -1   27.13    5.20
   5 -16  -1   31.51    4.69
  16   5   3   -2.43    3.88
   5 -16  -3    1.24    3.32
  -5 -16   3    0.11    3.70
 -16  -5   3    1.01    3.54
  -5  16  -3    2.48    3.65
  16  -5  -3    0.45    3.25
   5 -16  -3    1.96    3.17
  -5 -16   5   11.57    4.22
  16   5   5   10.45    4.86
 -16  -5   5   21.16    5.15
   5 -16  -5    6.88    3.96
  -5  16  -5   11.54    4.31
   5 -16  -5   15.26    4.28
  16  -5  -5   12.17    4.48
   5 -16  -5    6.40    3.51
  -5 -16   7   23.14    5.03
 -16  -5   7   19.03    4.95
  16   5   7   31.75    6.40
   5 -16  -7   25.55    5.60
  -5  16  -7   31.75    5.83
  16  -5  -7   36.18    6.18
  16  -5  -7   26.82    4.76
 -16  -5   9    0.94    4.17
  16   5   9    7.29    4.91
   5 -16  -9   -0.99    4.51
  -5  16  -9   12.34    4.95
  -5 -16   9    0.41    3.92
  16  -5  -9   19.95    5.68
  16  -5  -9    5.79    4.47
 -16  -5  11    5.28    4.28
  16   5  11   -2.36    5.01
   5 -16 -11   -2.46    4.31
  -5 -16  11    6.02    4.60
  16  -5 -11    6.72    4.64
  -5 -16  13    3.34    4.53
  16  -5 -13   15.95    5.82
  16  -6  10   -5.00    4.31
  16  -6   8   16.46    5.34
  -6 -16  -8   20.06    5.74
 -16  -6  -6   21.66    4.81
  16  -6   6   16.56    4.98
  -6 -16  -6   20.64    5.32
 -16  -6  -4    8.60    3.64
  -6 -16  -4   -0.47    4.15
  16  -6   4    2.83    4.00
  -6 -16  -2   22.02    5.61
  16  -6   2   15.55    4.60
  -6  16   2   11.50    3.76
  16  -6   2   11.65    4.58
   6 -16   2   10.35    4.12
 -16  -6  -2   12.51    4.01
  16   6   0   43.66    6.55
  16  -6   0   45.97    6.28
 -16  -6   0   45.72    6.13
  -6  16   0   42.20    5.40
  -6 -16   0   43.89    6.46
  16  -6   0   48.51    6.56
   6 -16   0   37.09    5.36
  16   6   2   21.53    5.37
  -6 -16   2    5.73    4.24
 -16  -6   2   13.63    4.20
  -6  16  -2    9.28    4.08
  16  -6  -2   15.81    5.02
   6 -16  -2    9.70    3.61
   6 -16  -4   -2.07    3.45
  -6 -16   4    0.60    4.08
  16   6   4    0.91    4.21
   6 -16  -4    4.43    4.11
 -16  -6   4   10.13    4.03
  -6  16  -4    5.56    3.78
  16  -6  -4   -3.61    4.02
   6 -16  -4    1.17    3.26
  -6 -16   6   18.36    5.05
   6 -16  -6   29.22    5.21
  16   6   6   19.08    5.35
 -16  -6   6   22.89    5.16
   6 -16  -6   18.18    5.40
  -6  16  -6   28.67    5.49
  16  -6  -6   23.56    5.11
   6 -16  -6   23.58    4.99
 -16  -6   8   11.88    4.47
  16   6   8   24.71    6.15
   6 -16  -8   22.20    5.48
  -6  16  -8   23.03    5.53
  -6 -16   8   22.54    5.58
  16  -6  -8   13.70    4.42
  16  -6  -8   24.77    5.70
 -16  -6  10    1.62    3.97
  16   6  10   -5.03    5.04
   6 -16 -10    6.46    4.61
  -6  16 -10    4.29    4.43
  -6 -16  10    4.88    4.58
  16  -6 -10    8.51    4.68
  -6 -16  12   10.01    5.00
  16  -6 -12    3.93    4.48
  16  -7  11    6.18    4.72
  16  -7   9   -1.55    4.38
 -16  -7  -7   13.88    4.22
  16  -7   7   12.52    4.82
  -7 -16  -7   18.17    5.43
 -16  -7  -5    9.68    3.87
  -7 -16  -5    3.61    4.26
  16  -7   5   10.66    4.72
 -16  -7  -3    9.87    4.10
  -7 -16  -3    3.14    3.98
  16  -7   3    3.60    4.14
  16  -7   3    1.38    4.11
   7 -16   3   -1.08    3.76
  16   7  -1   30.59    5.70
  16  -7   1   37.37    5.76
  -7  16   1   36.66    5.07
  -7 -16  -1   39.59    6.60
  16  -7   1   32.13    6.00
   7 -16   1   45.85    6.02
 -16  -7  -1   37.83    5.50
  16  -7  -1   36.33    5.70
  16   7   1   41.56    6.14
  -7 -16   1   42.82    6.88
  -7  16  -1   33.24    4.98
 -16  -7   1   44.84    6.11
  16  -7  -1   34.39    6.10
   7 -16  -1   39.22    5.60
  16   7   3    4.14    4.00
  -7 -16   3    6.88    4.02
 -16  -7   3    2.63    3.77
  -7  16  -3    8.74    4.14
  16  -7  -3   -0.93    3.64
   7 -16  -3    2.59    3.71
  -7 -16   5    5.31    4.19
  16   7   5    0.56    4.11
 -16  -7   5    3.90    3.79
   7 -16  -5   13.30    4.66
  -7  16  -5   11.99    4.61
  16  -7  -5   15.70    4.92
   7 -16  -5    6.87    3.92
  -7 -16   7   19.42    5.34
  16   7   7   23.84    6.13
 -16  -7   7   23.87    5.43
   7 -16  -7   20.45    5.32
  -7  16  -7   19.08    4.97
  16  -7  -7   14.24    4.89
   7 -16  -7   26.14    5.53
 -16  -7   9    1.20    4.08
  16   7   9    3.61    4.72
   7 -16  -9    7.87    4.92
  -7  16  -9   -2.84    4.65
  -7 -16   9    2.51    4.40
  16  -7 -11   -6.78    4.93
  16  -8  10    5.74    4.43
  16  -8   8    6.08    4.32
 -16  -8  -8    7.97    4.27
  -8 -16  -6   15.90    5.34
 -16  -8  -6   18.40    4.90
  16  -8   6    8.44    4.51
  -8 -16  -4   -1.05    4.13
 -16  -8  -4    1.56    3.94
  16  -8   4   -2.31    4.25
 -16  -8  -2    7.47    4.32
  16  -8   2    8.47    4.02
  16  -8   2    5.35    4.16
   8 -16   2    5.67    3.93
  -8 -16  -2    7.70    4.34
  16  -8   0   19.71    4.75
  -8 -16   0   19.18    5.46
  -8  16   0   26.36    4.78
  16  -8   0   17.80    4.95
   8 -16   0   24.82    5.29
 -16  -8   0   34.43    5.72
  16  -8  -2    1.12    3.57
  -8 -16   2    6.30    4.61
  -8  16  -2    9.21    4.38
 -16  -8   2   13.90    4.82
  16  -8  -2    6.54    4.13
   8 -16  -2   10.44    3.92
  -8 -16   4   -3.78    4.40
  16   8   4   -4.40    4.69
   8 -16  -4    4.99    3.77
 -16  -8   4   -4.96    4.34
  -8  16  -4    1.52    3.67
  16  -8  -4    5.72    4.14
   8 -16  -4    1.91    3.54
  -8 -16   6   13.32    5.25
  16   8   6   18.83    5.43
 -16  -8   6   14.36    4.67
   8 -16  -6   23.06    5.44
  -8  16  -6   15.56    4.91
  16  -8  -6   23.63    5.95
   8 -16  -6   20.55    5.58
 -16  -8   8   14.56    4.87
  16   8   8    5.22    4.44
  -8  16  -8   10.87    4.66
   8 -16  -8    8.05    4.71
  -8 -16   8   -0.98    4.25
   8 -16 -10   -0.87    4.65
  16  -8 -12    5.13    5.12
  16  -9   9   -3.96    5.00
 -16  -9  -9    6.32    4.85
  16  -9   7   12.08    5.03
 -16  -9  -7    9.88    4.93
 -16  -9  -5    6.59    4.22
  16  -9   5    7.61    4.69
 -16  -9  -3    3.78    3.84
  16  -9   3   -1.94    3.72
  16  -9   3   -7.65    4.81
   9 -16   3    3.11    3.88
  -9 -16  -3    3.28    4.81
 -16  -9  -1    9.84    4.53
  16   9  -1   24.22    5.22
  16  -9   1    6.02    4.16
  -9 -16  -1    3.67    4.34
  16  -9   1    9.88    4.79
   9 -16   1   12.49    4.77
  16  -9  -1   15.75    4.67
  16   9   1   10.99    4.34
  -9 -16   1   16.68    5.34
 -16  -9   1   17.97    5.10
  16  -9  -1    5.08    3.94
   9 -16  -1   14.63    4.70
  16  -9  -3   -5.06    4.12
  -9 -16   3   11.44    4.86
  16   9   3   -1.73    3.99
   9 -16  -3    4.86    4.26
  -9  16  -3   -3.81    3.51
 -16  -9   3   -1.01    3.90
  16  -9  -3   -2.23    3.93
   9 -16  -3  -10.92    4.29
  -9 -16   5   14.25    5.03
  16   9   5   12.34    4.43
   9 -16  -5    2.20    4.19
  -9  16  -5    4.37    4.33
 -16  -9   5    4.48    4.27
   9 -16  -5   10.33    4.87
  16   9   7   14.21    5.24
  -9  16  -7   10.43    4.66
   9 -16  -7    5.95    4.45
   9 -16  -7   12.09    5.19
  16   9   9   -1.03    4.86
   9 -16  -9    0.25    4.36
  16 -10  10   -6.22    5.66
 -16 -10 -10    6.60    4.76
  16 -10   8   -1.31    4.55
 -16 -10  -8    4.90    4.78
  16 -10   6    0.04    4.31
 -16 -10  -6    8.39    4.63
 -16 -10  -4    0.54    3.97
  16 -10   4    4.53    4.15
  10 -16   4   -4.27    4.47
 -16 -10  -2    7.75    4.36
  16  10  -2    5.72    4.09
  16 -10   2    4.53    3.85
  10 -16   2    5.72    4.12
 -16 -10   0   26.20    5.92
  16  10   0   11.00    4.36
  16 -10   0   15.56    4.83
  10 -16   0   12.16    5.00
  16 -10  -2   13.34    4.28
  16  10   2    2.00    4.03
 -16 -10   2    2.50    4.07
  10 -16  -2    3.10    4.19
  16  10   4    7.72    4.86
 -10  16  -4   -2.10    4.09
 -16 -10   4   -3.39    4.78
  10 -16  -4  -11.36    4.80
  16  10   6    8.10    5.17
 -10  16  -6    3.85    4.18
  10 -16  -6    5.19    4.68
  10 -16  -6    8.21    4.70
  16  10   8   -7.24    5.46
 -10  16  -8    6.28    4.88
  10 -16  -8    1.11    4.29
 -16 -11  -3    7.35    4.82
  16  11  -3   -4.64    4.39
  11 -16   3   -2.29    4.66
 -16 -11  -1    6.99    4.53
  16  11  -1   12.57    4.88
  11 -16   1   14.15    4.79
  16  11   1    8.15    4.50
  11 -16  -1   -1.33    4.13
  16  11   3   -6.20    4.92
  11 -16  -3    5.57    4.59
  16  11   5    0.12    4.29
  16  11   7    0.34    4.63
 -11  16  -7    1.19    4.26
  16  12  -4    3.78    4.38
  16  12  -2    7.10    4.56
  16  12   0   14.96    5.00
  16  12   2   -1.65    4.35
  16  12   4   -0.46    4.35
   0 -17   1   17.25    4.41
   0 -17  -1   14.70    4.25
  17   0   1    5.40    4.33
  17   0   1   11.28    3.75
  17   0  -1   10.56    3.93
  17   0   3   -7.15    4.32
   0 -17   3   -3.61    3.69
   0 -17  -3   -1.01    3.71
  17   0   3   -1.42    3.46
  17   0  -3   -0.22    3.34
 -17   0   3   -0.46    3.00
  17   0  -5    1.62    3.37
   0 -17  -5    5.36    3.80
   0 -17   5    8.41    3.92
  17   0   5    9.82    4.96
  17   0  -5    8.73    3.84
   0 -17   7    4.63    3.76
  17   0  -7   13.77    4.30
  17   0   7   13.54    5.29
   0 -17  -7    6.08    4.49
   0  17  -7    2.82    4.20
  17   0  -9   -1.18    4.05
   0 -17  -9   -5.40    4.57
  17   0   9   -9.41    5.31
   0  17  -9   -1.42    3.98
  17   0 -11    5.81    4.81
  17   1 -12   13.27    5.39
  17   1 -10    6.24    4.75
  -1 -17 -10    7.18    4.31
  17   1  -8   14.02    4.73
  17  -1   8    2.99    4.50
  -1 -17  -8    1.03    4.22
   1  17  -8   13.29    5.11
  17   1  -6    6.46    4.18
   1 -17   6   22.08    4.81
  -1 -17  -6   13.98    4.90
  17  -1   6   21.07    5.87
  17   1  -4    0.28    3.45
  17  -1   4   10.39    4.40
   1 -17   4    1.06    3.48
  -1 -17  -4   -2.01    4.08
  17  -1   4    4.97    3.76
  17   1  -4   -1.65    3.41
  17  -1   2   15.79    4.73
  -1 -17  -2   13.41    4.71
   1 -17   2    2.67    3.30
  17  -1   2    0.45    3.46
  17   1  -2   13.00    4.01
  -1 -17   0   28.80    5.27
   1 -17   0   31.39    5.65
  17   1   0   26.50    5.66
  17  -1   0   22.20    5.46
  17  -1   0   29.23    4.99
  17   1   0   19.61    4.29
 -17  -1   2    4.84    3.10
  17   1   2    8.80    4.20
   1 -17  -2    9.20    4.14
  -1 -17   2   11.07    4.29
  17   1   2    8.85    3.81
  17  -1  -2   12.77    4.20
   1 -17  -4    0.95    3.85
 -17  -1   4    0.76    3.39
  17   1   4   -5.82    4.11
  -1 -17   4   -5.91    3.87
  17   1   4   -1.23    3.38
  17  -1  -4   -1.17    3.25
  17  -1  -6   13.62    4.24
  -1 -17   6    7.44    3.93
  17   1   6   21.43    5.82
   1 -17  -6   12.30    4.54
  -1  17  -6    6.21    4.41
  17  -1  -6   20.84    4.96
 -17  -1   6   12.63    4.05
  17  -1  -8    5.13    4.10
   1 -17  -8   11.38    4.85
  17   1   8   12.89    5.13
  -1  17  -8    9.00    4.68
  -1 -17   8    8.92    4.11
  17  -1 -10   -3.72    4.48
  -1 -17  10    4.62    3.83
   1 -17 -10   -3.84    4.52
  17  -1 -12    6.78    5.04
  17   2 -11    5.02    4.78
  17   2  -9    3.73    4.83
  17  -2   9   -0.45    4.60
  -2 -17  -9   -2.84    4.17
   2  17  -9    2.14    4.39
  17   2  -7   18.10    5.09
  -2 -17  -7   10.97    4.88
  17  -2   7   20.55    5.93
  17   2  -5    6.92    3.84
  17  -2   5    5.69    4.24
  -2 -17  -5    3.71    4.33
  17   2  -5    6.47    4.10
  17   2  -3    7.14    3.66
  17  -2   3   -2.22    3.93
  -2 -17  -3    4.36    4.06
   2 -17   3   -2.86    3.39
  17  -2   3   -5.68    3.80
  17   2  -3   -3.07    3.77
   2 -17   1   25.34    4.94
  -2 -17  -1   29.09    5.60
  17  -2   1   27.44    5.70
  17  -2   1   22.34    4.73
  17   2  -1   19.68    4.39
  17   2   1   32.34    5.72
 -17  -2   1   17.25    3.71
   2 -17  -1   29.51    5.14
  17   2   1   21.09    4.20
  17  -2  -1   22.94    4.76
  -2 -17   1   25.35    5.25
 -17  -2   3   -1.35    3.45
  17   2   3    0.01    3.92
  -2 -17   3    3.22    3.98
  17   2   3    4.93    3.53
  17  -2  -3    7.61    3.66
   2 -17  -3    7.38    4.26
  -2  17  -3    3.29    3.94
 -17  -2   5    1.71    3.43
  -2 -17   5    3.52    3.73
  17   2   5   12.47    4.85
   2 -17  -5    2.34    3.91
  -2  17  -5    5.46    3.94
  17  -2  -5   13.30    4.51
  17  -2  -7   14.31    4.87
  -2 -17   7    9.86    3.94
 -17  -2   7   18.98    4.95
   2 -17  -7   14.63    4.42
  17   2   7    9.95    5.01
  -2  17  -7   10.49    4.51
  17  -2  -7   20.31    4.97
  17  -2  -9   15.28    5.05
  17   2   9    1.26    4.53
   2 -17  -9    6.61    4.63
   2 -17  -9    5.80    4.45
  -2  17  -9    9.52    4.52
  -2 -17   9    5.78    3.88
  17  -2 -11    9.93    5.25
  -2 -17  11    7.47    4.48
  17   3 -10    9.75    4.97
  17   3  -8   11.87    4.82
  -3 -17  -8    3.91    5.04
  17  -3   8   10.63    5.37
  17   3  -6   20.69    5.22
  17  -3   6   17.75    5.30
  -3 -17  -6   20.06    5.26
  17  -3   4   -0.78    4.16
  -3 -17  -4    1.75    4.39
  -3 -17  -2   10.03    4.61
  17  -3   2   12.22    4.45
  17  -3   2    5.65    3.50
   3 -17   2    5.55    3.59
  17   3  -2    2.54    3.12
  -3 -17   0   20.13    5.29
   3 -17   0   26.80    5.19
  17   3   0   33.37    6.07
  17  -3   0   26.34    5.50
 -17  -3   0   13.63    4.07
  17  -3   0   20.92    4.61
  17   3   2    5.42    3.99
 -17  -3   2    4.92    3.47
  -3 -17   2   14.27    4.67
   3 -17  -2    4.08    3.61
  17  -3  -2    6.28    3.95
  -3  17  -2    8.33    3.90
   3 -17  -4    2.15    4.02
 -17  -3   4    5.21    3.47
  17   3   4    0.43    4.22
  -3 -17   4   -2.26    3.82
  -3  17  -4    7.08    4.19
  17  -3  -4   -3.16    3.63
   3 -17  -6   20.22    5.61
  -3 -17   6   18.98    4.90
 -17  -3   6   14.60    4.25
  17   3   6    8.99    4.97
  -3  17  -6   18.67    5.20
  17  -3  -6   13.85    4.28
  -3 -17   8   11.39    4.76
  17  -3  -8    7.63    4.11
 -17  -3   8   10.70    4.41
   3 -17  -8   11.23    4.60
  17   3   8   17.13    5.70
   3 -17  -8   15.46    5.30
  -3  17  -8    8.74    4.77
  17  -3  -8   26.90    5.74
  17  -3 -10    4.15    4.33
  -3 -17  10   -0.44    3.94
  17  -3 -12    5.13    5.19
  -3 -17  12    4.65    4.86
 -17   3 -14    6.88    4.44
  17   4 -11   -7.18    4.93
  17   4  -9    4.95    4.08
  17  -4   9    1.28    4.61
  17   4  -7   19.38    5.22
  17  -4   7   21.37    5.80
  -4 -17  -7   14.59    5.12
  17  -4   5   11.16    4.85
  -4 -17  -5   23.86    6.15
  -4 -17  -3    5.32    3.99
  17  -4   3    1.53    3.89
  17  -4   3   -3.07    3.61
   4 -17   3   -0.26    3.03
  -4 -17  -1   12.95    4.78
  17   4  -1   25.24    6.02
  17  -4   1   15.42    4.66
 -17  -4  -1   21.67    4.24
  17  -4   1   15.55    4.33
   4 -17   1   15.62    3.89
  -4  17   1   16.40    4.21
  17  -4  -1   19.06    4.84
  17   4   1   16.22    5.27
 -17  -4   1   17.66    4.38
   4 -17  -1   17.77    4.35
  -4 -17   1   13.83    4.69
  17  -4  -1   13.93    4.10
  -4  17  -1   21.45    4.86
   4 -17  -1   20.55    4.25
   4 -17  -3   -4.73    3.99
  17   4   3   -3.31    4.60
 -17  -4   3    1.63    3.38
  -4 -17   3   -8.96    4.28
  -4  17  -3    1.41    3.88
  17  -4  -3    2.04    3.76
   4 -17  -3    1.65    3.28
  -4 -17   5    7.97    4.39
 -17  -4   5   11.28    4.16
  17   4   5    6.41    4.94
   4 -17  -5   10.04    4.00
  -4  17  -5   10.26    3.75
  17  -4  -5    9.25    4.30
   4 -17  -5   18.35    4.59
   4 -17  -7   17.32    4.88
  -4 -17   7   21.13    5.61
 -17  -4   7   20.00    5.05
  17   4   7   17.56    5.44
   4 -17  -7   19.84    5.40
  -4  17  -7   13.64    4.54
  17  -4  -7   20.50    5.36
  17  -4  -9    6.45    4.51
 -17  -4   9   -2.99    4.05
   4 -17  -9    3.58    4.55
  -4  17  -9    9.47    4.99
  -4 -17   9    4.77    4.49
  17  -4 -11  -10.01    5.03
  -4 -17  11    5.28    4.52
  -4 -17  13    6.42    4.82
  17   5 -10   -5.12    4.80
  17  -5   8    4.92    4.38
  17  -5   6   15.34    4.88
  -5 -17  -6   20.81    5.69
  -5 -17  -4    2.94    4.41
  17  -5   4    0.47    4.00
   5 -17   4    3.23    3.52
 -17  -5  -4    2.12    3.52
  -5 -17  -2    7.87    4.84
  17  -5   2   12.51    4.84
 -17  -5  -2    5.34    3.45
  17  -5   2    7.15    3.93
   5 -17   2    8.30    3.64
  -5  17   2    9.17    3.76
  17   5   0   20.56    5.55
  17  -5   0   26.54    5.26
 -17  -5   0   27.94    5.06
  -5 -17   0   33.34    6.23
  -5  17   0   25.15    4.59
  17  -5   0   19.39    4.95
   5 -17   0   21.86    4.58
  17   5   2   10.66    4.56
 -17  -5   2    6.82    4.00
  -5 -17   2    6.36    4.74
  -5  17  -2   -1.90    3.57
   5 -17  -2   12.93    4.49
  17  -5  -2    2.47    3.75
   5 -17  -2    8.35    3.84
  -5 -17   4    0.47    4.22
  17   5   4   -2.57    4.14
 -17  -5   4   -0.28    3.62
   5 -17  -4    6.14    3.82
  -5  17  -4    5.20    4.04
  17  -5  -4   10.21    4.37
   5 -17  -4   -0.10    3.19
  -5 -17   6   13.79    5.05
 -17  -5   6   19.56    5.03
  17   5   6   10.57    5.59
   5 -17  -6   19.53    5.34
   5 -17  -6   19.73    5.02
  -5  17  -6   18.70    5.14
  17  -5  -6   18.36    5.21
   5 -17  -6   26.87    5.44
 -17  -5   8    7.39    4.14
  17   5   8   -2.13    4.79
   5 -17  -8    9.90    4.66
   5 -17  -8    4.77    4.12
  -5  17  -8   11.99    4.98
  -5 -17   8    5.30    4.89
  17  -5  -8   11.55    5.14
  -5 -17  10   -5.48    4.88
  17  -5 -12    5.64    4.91
  17  -6   9    1.32    4.34
  17  -6   7   24.63    5.72
 -17  -6  -5    6.38    3.89
  -6 -17  -5    6.02    4.91
  17  -6   5   11.63    4.81
  -6 -17  -3    0.11    3.97
  17  -6   3    1.16    3.77
  17  -6   3   -6.26    4.00
   6 -17   3   -5.05    3.71
 -17  -6  -3    5.61    4.00
  17   6  -1    6.15    4.52
  17  -6   1    4.74    4.10
 -17  -6  -1    9.01    4.08
  -6  17   1    7.24    3.85
  17  -6   1   10.12    4.58
   6 -17   1   12.70    4.18
  -6 -17  -1   14.26    4.84
  17  -6  -1   14.44    4.93
  17   6   1   15.23    5.29
 -17  -6   1    9.53    4.27
  -6 -17   1    7.98    4.87
  -6  17  -1    4.22    3.51
  17  -6  -1    5.05    4.13
   6 -17  -1    9.54    3.72
  17   6   3   -2.06    4.23
  -6 -17   3   -5.67    4.04
 -17  -6   3   -5.40    4.20
  -6  17  -3    2.90    3.83
  17  -6  -3   -1.37    3.91
   6 -17  -3    3.33    3.27
   6 -17  -5   14.87    4.62
  -6 -17   5   14.79    5.15
  17   6   5   11.01    4.72
 -17  -6   5   19.60    4.80
   6 -17  -5   13.67    4.81
  -6  17  -5   14.73    4.96
  17  -6  -5   20.11    5.28
   6 -17  -5    3.86    3.75
  -6 -17   7   20.40    5.67
   6 -17  -7   21.71    5.56
 -17  -6   7   16.62    5.00
  17   6   7   32.53    6.68
   6 -17  -7   24.66    5.71
  -6  17  -7   16.93    4.93
  17  -6  -7   24.65    5.79
   6 -17  -9    9.31    4.85
  -6 -17   9    7.53    4.38
  17  -7   8   12.69    4.98
 -17  -7  -6   14.51    4.58
  17  -7   6   11.56    5.12
 -17  -7  -4    0.10    3.82
  -7 -17  -4   -2.95    4.52
  17  -7   4    0.70    4.13
  17  -7   4  -12.37    5.38
   7 -17   4   -6.64    4.09
  17  -7   2   14.81    5.20
  17  -7   2    9.67    4.74
   7 -17   2   11.52    4.37
 -17  -7  -2    2.96    3.88
  -7 -17  -2   14.99    4.81
  17   7   0   26.38    5.65
  17  -7   0   17.81    5.11
  -7 -17   0   24.92    6.00
  -7  17   0   31.73    5.30
 -17  -7   0   35.64    5.87
  17  -7   0   31.65    6.06
   7 -17   0   21.67    5.02
  17  -7  -2    4.11    3.92
  17   7   2   12.42    5.07
  -7 -17   2   13.34    5.03
 -17  -7   2   13.67    4.89
  -7  17  -2    9.20    3.94
  17  -7  -2    7.12    4.49
   7 -17  -2    0.03    3.51
  -7 -17   4   -1.36    4.10
  17   7   4    0.46    4.33
 -17  -7   4    1.18    3.93
  -7  17  -4    6.55    3.95
  17  -7  -4   -1.94    4.06
   7 -17  -4   -1.84    3.60
  -7 -17   6   15.96    5.47
  17   7   6   15.26    5.11
 -17  -7   6   10.69    4.51
   7 -17  -6    2.01    4.40
  -7  17  -6   14.76    5.24
   7 -17  -6   16.22    4.81
   7 -17  -8   10.34    5.20
  -7  17  -8    8.13    4.72
  17  -8   7   10.21    5.27
 -17  -8  -5   10.51    4.51
  17  -8   5    5.52    4.67
 -17  -8  -3   -1.20    4.14
  17  -8   3   -7.97    4.79
   8 -17   3   -2.94    3.66
  17   8  -1   16.50    5.34
  17  -8   1   22.51    5.66
  17  -8   1    8.12    4.79
   8 -17   1   19.82    5.32
 -17  -8  -1   12.48    4.80
  17  -8  -1   16.07    5.15
  17   8   1   28.47    5.84
  -8 -17   1   10.38    5.15
 -17  -8   1   13.46    5.02
  17  -8  -1    7.38    4.57
   8 -17  -1   22.01    5.26
  17  -8  -3   -0.54    3.94
  17   8   3   -2.54    4.62
 -17  -8   3   -0.08    3.96
  -8  17  -3    3.19    3.84
   8 -17  -3    0.09    3.98
  17   8   5    8.12    4.82
 -17  -8   5    9.32    4.77
   8 -17  -5    6.76    4.37
  -8  17  -5    6.47    3.96
   8 -17  -5    0.12    4.29
   8 -17  -7   15.91    5.14
  -8  17  -7    6.92    4.74
   8 -17  -7   17.94    5.40
  17  -9   8    5.31    4.98
 -17  -9  -6    4.33    4.40
  17  -9   6    8.37    5.05
 -17  -9  -4    4.08    4.25
  17  -9   4    3.62    4.60
   9 -17   4    0.86    4.00
 -17  -9  -2    8.57    4.62
  17   9  -2    4.66    4.68
  17  -9   2   10.52    4.89
   9 -17   2    3.49    4.39
  17   9   0    8.42    4.80
  17  -9   0   17.72    5.22
 -17  -9   0   16.99    5.34
   9 -17   0    8.62    4.66
  17  -9  -2    3.06    3.99
  17   9   2    2.21    4.52
 -17  -9   2    4.76    4.17
   9 -17  -2    3.69    4.05
  17   9   4   -7.87    5.13
  -9  17  -4    0.66    4.26
   9 -17  -4   -2.12    3.88
  17   9   6    2.35    4.80
   9 -17  -6    1.36    4.33
  -9  17  -6    0.87    4.24
   9 -17  -6    8.01    5.00
  17 -10   7   11.02    5.71
 -17 -10  -5    7.56    4.79
  17 -10   5    5.78    4.79
 -17 -10  -3    0.71    4.58
  17  10  -3    5.71    4.65
  17 -10   3    0.97    4.68
  10 -17   3    8.54    4.88
 -17 -10  -1   16.17    5.44
  17  10  -1   21.07    5.55
  17 -10   1    8.85    4.75
  10 -17   1    1.70    4.17
  17 -10  -1    6.03    4.35
  17  10   1   11.23    5.34
  10 -17  -1   12.62    4.77
  17 -10  -3    4.13    4.28
  17  10   3   -0.33    4.30
  10 -17  -3   -4.24    4.37
  17  10   5   -1.66    4.73
 -10  17  -5    4.19    4.28
  10 -17  -7    2.83    4.67
  17  11  -2   -0.11    4.37
  17  11   0   11.66    5.03
  17  11   2    6.66    4.52
  17  12  -1   13.80    5.69
   0 -18   0   43.10    6.50
  18   0   0   45.24    7.16
  18   0   0   48.99    6.22
  18   0   2   22.39    5.25
   0 -18  -2   14.85    4.98
   0 -18   2   12.75    4.34
  18   0   2    4.55    3.76
  18   0  -2   24.91    5.27
  18   0   4   -5.28    4.55
   0 -18   4   -1.79    3.78
   0 -18  -4    7.66    4.69
  18   0   4   -0.50    3.50
  18   0  -4    3.27    3.63
   0 -18  -6    7.35    4.49
   0 -18   6    2.00    3.64
  18   0   6   -2.85    4.48
   0  18  -6    7.61    4.45
  18   0  -6    9.07    4.46
  18   0  -8    0.07    4.05
   0 -18  -8   13.32    5.10
  18   0 -10    1.62    4.31
  18   1 -11    4.81    5.48
  18   1  -9    6.24    5.01
  18   1  -7    6.82    4.55
  -1 -18  -7   18.44    5.48
  18  -1   5   -1.75    4.72
  -1 -18  -5   10.26    5.03
  18   1  -5    2.68    3.44
  18  -1   3   -5.42    4.39
  -1 -18  -3    9.68    4.63
   1 -18   3    1.96    3.73
  18  -1   3    3.10    3.83
  18   1  -3   -4.64    3.93
  -1 -18  -1   18.82    4.84
  18   1  -1    4.59    4.38
  18  -1   1   17.01    5.38
  18  -1   1   12.71    4.58
  18   1  -1   14.61    4.31
   1 -18   1   13.43    4.28
  18  -1  -1   18.84    5.73
   1 -18  -1    9.63    4.45
  18   1   1    9.50    4.73
  -1 -18   1   14.10    4.89
  18   1   1   16.88    4.50
  18  -1  -1   11.73    4.31
  18   1   3    0.93    4.53
  -1 -18   3   -1.77    4.10
   1 -18  -3    3.41    4.37
  18   1   3   -3.59    3.57
  18  -1  -3    5.33    3.61
   1 -18  -5    1.44    4.14
  -1 -18   5    5.17    4.39
  18   1   5   10.29    4.96
  18   1   5    9.73    4.18
  -1  18  -5   12.71    5.04
  18  -1  -5    6.27    4.09
 -18  -1   5    6.00    3.59
  -1 -18   7   12.98    4.62
   1 -18  -7    3.76    4.21
  18  -1  -9    5.83    4.38
  18  -1 -11    0.78    4.64
  18   2 -10   -1.29    4.95
  18   2  -8    2.85    4.15
  18   2  -6    9.70    4.49
  18  -2   6   13.94    5.55
  -2 -18  -6   12.53    4.90
  18  -2   4    3.84    4.41
  18  -2   4    3.86    4.18
  18   2  -4    4.76    4.01
  -2 -18  -2   -1.84    4.33
  18  -2   2    1.91    4.33
   2 -18   2    4.48    3.49
  18  -2   2    5.68    4.08
  18   2  -2    3.31    3.67
  -2 -18   0   14.63    4.61
   2 -18   0   13.76    4.53
  18   2   0   17.12    5.49
  18  -2   0   15.08    5.11
  18  -2   0    8.84    3.88
  18   2   0    8.31    3.58
  18   2   2    1.84    4.23
   2 -18  -2   -3.90    3.76
  -2 -18   2   -1.70    4.01
  18  -2  -2    5.97    3.66
  -2  18  -2    3.21    3.99
   2 -18  -4   -1.00    4.27
 -18  -2   4    1.41    3.55
  18   2   4   -0.83    4.35
  -2 -18   4    2.60    4.11
  -2  18  -4    0.51    3.85
  18  -2  -4    2.83    3.66
 -18  -2   6    9.00    3.83
  -2 -18   6   11.38    4.90
   2 -18  -6   15.13    5.00
  -2  18  -6   11.82    4.72
  18  -2  -6   16.70    5.11
   2 -18  -8   14.40    5.17
  -2 -18   8    7.11    4.39
  18  -2 -10   -4.09    4.42
  18   3  -9    3.84    4.64
  18   3  -7   21.00    5.43
  18   3  -5    9.88    4.56
  18  -3   5   19.54    5.50
  -3 -18  -5    8.57    4.79
  -3 -18  -3    4.34    4.29
  18  -3   3    2.64    4.04
  18  -3   3   -2.19    3.78
  -3 -18  -1    9.33    4.44
  18   3  -1    9.00    5.00
  18  -3   1    8.44    4.36
  18  -3   1    4.30    3.60
  18  -3  -1    4.39    4.15
  18   3   1   18.88    5.58
   3 -18  -1   12.55    4.49
  -3 -18   1    8.67    4.68
  18  -3  -1   18.64    4.79
  -3  18  -1   11.20    4.41
 -18  -3   3    1.11    3.46
  18   3   3    4.25    4.17
  -3 -18   3   -6.64    4.66
   3 -18  -3   -0.75    3.86
  -3  18  -3    4.83    3.65
  18  -3  -3   -3.53    3.94
 -18  -3   5    6.38    3.68
  -3 -18   5   15.54    4.98
   3 -18  -5   23.44    5.55
  18   3   5   14.46    5.64
  -3  18  -5   12.96    4.82
  18  -3  -5    9.28    4.40
  -3 -18   7   17.52    5.38
 -18  -3   7   24.84    5.58
  -3  18  -7   19.08    5.42
   3 -18  -7   13.45    5.03
  18  -3  -7   15.27    4.95
   3 -18  -9    4.00    4.90
  -3 -18   9    2.19    4.31
  -3 -18  11    2.84    4.39
  18   4  -8   -3.77    4.54
  18   4  -6   10.95    4.35
  18  -4   6    4.05    4.33
  -4 -18  -4   -4.50    4.28
  18  -4   4    2.64    4.00
  18  -4   4   -5.66    4.26
  -4 -18  -2   17.07    5.82
  18  -4   2   20.14    5.69
  18  -4   2   33.43    5.98
  -4  18   2   20.85    4.72
  18   4   0   59.40    8.41
  18  -4   0   53.18    7.21
 -18  -4   0   48.90    6.23
  -4 -18   0   51.91    7.18
  18  -4   0   39.06    6.21
  -4  18   0   37.26    6.06
  18   4   2   15.16    5.82
 -18  -4   2   19.89    4.57
   4 -18  -2   17.49    4.62
  -4 -18   2   12.29    5.00
  -4  18  -2   30.94    5.62
  18  -4  -2   17.92    4.56
   4 -18  -4   -1.52    3.99
 -18  -4   4    6.76    4.14
  -4 -18   4    1.81    4.45
  18   4   4   -5.12    4.49
  -4  18  -4   -1.64    4.11
  18  -4  -4    2.42    3.64
  -4 -18   6   15.87    5.08
 -18  -4   6    9.03    4.48
   4 -18  -6    1.31    4.44
  -4  18  -6   10.23    4.75
  18  -4  -6    8.26    4.65
 -18  -4   8    4.86    4.52
   4 -18  -8    4.15    4.32
  -4 -18   8    7.00    5.03
  -4 -18  10    3.35    4.61
  18   5  -9    8.30    5.24
  18  -5   5   11.13    4.97
  -5 -18  -3    0.92    4.41
  18  -5   3   -1.37    4.04
  18  -5   3    1.13    3.93
  18   5  -1   11.48    5.27
  18  -5   1   14.00    4.88
 -18  -5  -1    4.37    3.43
  -5  18   1   11.65    4.65
  18  -5   1    3.23    3.76
  -5 -18  -1    6.54    4.94
  18  -5  -1    9.85    4.71
  18   5   1   10.55    5.38
 -18  -5   1    1.90    3.60
  -5 -18   1    4.47    4.57
  -5  18  -1    3.08    3.97
  18  -5  -1    0.67    3.54
  18   5   3   -3.34    4.81
 -18  -5   3   -6.37    4.09
  -5 -18   3    0.39    4.45
  -5  18  -3   -4.64    4.24
  18  -5  -3   -5.37    4.27
  -5 -18   5   16.80    5.85
 -18  -5   5   10.93    4.90
   5 -18  -5   10.58    4.46
  -5  18  -5   19.74    5.42
  18  -5  -5   13.10    4.78
  -5 -18   7   22.58    5.69
 -18  -5   7   29.23    6.06
   5 -18  -7   20.59    5.51
   5 -18  -7   28.07    6.22
   5 -18  -9   12.48    5.43
  18  -6   4   -4.04    4.10
   6 -18   4    1.21    3.64
  18   6  -2    3.28    4.54
  18  -6   2    0.32    4.00
 -18  -6  -2    4.36    3.88
  18  -6   2    4.45    4.04
   6 -18   2    3.79    3.69
  18   6   0   19.85    5.59
  18  -6   0    9.71    4.32
 -18  -6   0   20.54    5.12
  -6 -18   0   17.16    6.08
  -6  18   0   18.78    5.03
  18  -6   0   11.03    4.55
   6 -18   0    6.68    3.89
  18  -6  -2    2.49    4.27
  18   6   2   12.66    5.20
  -6 -18   2    8.97    5.05
 -18  -6   2    7.68    4.60
  -6  18  -2    2.34    4.27
  18  -6  -2    3.49    3.95
   6 -18  -2   10.19    4.23
  -6 -18   4   -0.42    4.85
 -18  -6   4    0.46    4.12
  -6  18  -4    0.79    3.94
 -18  -6   6    9.39    5.24
  -6  18  -6    1.07    4.19
   6 -18  -8    0.34    4.67
  18  -7   5   -1.76    4.76
   7 -18   5    7.45    4.24
  18  -7   3    3.66    4.22
   7 -18   3    0.63    3.86
 -18  -7  -3    2.77    4.24
  18   7  -1    8.09    4.59
  18  -7   1   10.65    4.96
 -18  -7  -1    5.64    4.44
   7 -18   1    7.06    4.10
  18  -7  -1    9.13    4.92
  18   7   1    1.40    4.80
 -18  -7   1    4.35    3.99
  -7  18  -1    2.16    3.78
   7 -18  -1    3.87    3.76
  18  -7  -3    0.36    4.10
 -18  -7   3    7.51    4.87
  -7  18  -3    1.59    3.90
   7 -18  -3    1.92    3.78
 -18  -7   5    7.05    4.50
  -7  18  -5    5.17    4.15
   7 -18  -5   12.25    4.52
 -18  -8  -4    0.57    4.03
  18  -8   4    2.03    4.50
   8 -18   4   -5.30    4.78
  18  -8   2    2.29    4.52
 -18  -8  -2    5.17    4.39
   8 -18   2   -3.55    4.24
  18  -8   0   22.58    5.66
 -18  -8   0   14.84    5.15
   8 -18   0   10.94    4.74
  18  -8  -2    8.72    4.81
 -18  -8   2    3.42    4.33
   8 -18  -2    4.35    4.52
  -8  18  -4    2.53    4.46
   8 -18  -4   -6.28    4.44
   8 -18  -6   -1.49    4.84
   8 -18  -6   12.20    5.23
 -18  -9  -5    0.81    4.21
 -18  -9  -3   -0.74    4.48
  18  -9   3    0.14    4.76
   9 -18   3    3.20    4.55
  18  -9   1    6.26    4.99
 -18  -9  -1   14.01    5.37
   9 -18   1   12.28    4.89
  18  -9  -1    8.29    4.52
   9 -18  -1   13.25    5.18
  18  -9  -3    4.43    4.31
   9 -18  -3   -2.40    4.59
  -9  18  -5   -1.62    4.41
   0 -19  -1   14.93    4.82
   0 -19   1   24.47    5.57
  19   0   1   16.15    4.70
  19   0  -1   10.15    4.61
   0 -19  -3    7.24    4.55
   0 -19   3    6.81    4.26
  19   0   3   -3.09    4.02
  19   0  -3   -3.08    3.85
   0 -19  -5   -2.53    4.53
  19   0   5   -3.53    4.17
  19   0  -5    6.63    4.38
  -1 -19  -4   -1.59    4.95
  19  -1   4   -1.18    3.80
  19   1  -4    1.57    3.84
  -1 -19  -2    4.38    4.80
   1 -19   2    3.17    4.00
  19  -1   2    0.18    3.93
  19   1  -2    6.56    3.99
   1 -19   0   16.29    5.01
  19  -1   0   21.06    5.16
  19   1   0    9.03    4.27
  -1 -19   0   16.87    4.65
   1 -19  -2    7.88    4.57
  -1 -19   2   17.49    5.14
  19  -1  -2   12.08    4.66
  -1 -19   4   -2.74    4.28
   1 -19  -4    2.47    4.24
  19  -1  -4   -7.11    4.39
   1 -19  -6    4.54    5.40
  -1 -19   6    6.25    4.36
  19  -1  -6   17.47    5.23
  19  -2   5    7.96    4.62
  -2 -19  -3    3.90    4.92
  19  -2   3    0.74    3.93
  -2 -19  -1    4.83    4.42
  19  -2   1    2.57    4.03
   2 -19  -1    6.34    4.66
  -2 -19   1    3.23    4.31
  19  -2  -1    4.58    4.24
  -2 -19   3    0.20    4.53
   2 -19  -3    5.10    4.32
  -2  19  -3   -0.45    3.92
  19  -2  -3    4.12    3.68
  -2 -19   5    7.04    4.73
  19  -2  -5    9.66    4.73
   2 -19  -5    2.63    4.80
  -2 -19   7    8.02    4.73
   2 -19  -7   -0.24    4.77
  19  -3   4    2.04    4.18
  -3 -19  -2   10.47    5.10
  19  -3   2    4.66    4.43
  19  -3   0   20.58    5.55
  -3  19   0   30.23    5.74
   3 -19  -2    7.28    4.35
  -3 -19   2   14.57    5.35
  -3  19  -2   11.00    4.81
  19  -3  -2    9.73    4.44
  -3 -19   4    4.27    4.56
   3 -19  -4   -0.74    4.11
  -3  19  -4   -4.80    4.82
  19  -3  -4   -2.06    4.20
  -3 -19   6    5.25    5.21
 -19  -3   6    2.34    4.05
   3 -19  -6    8.14    4.95
  -3 -19   8    7.20    5.03
 -19  -3   8    3.40    4.27
  19  -4   3   -0.53    3.74
  19  -4   1    7.22    4.20
  -4  19   1   -5.26    4.32
  -4 -19   1    4.98    5.19
  -4  19  -1    5.86    4.10
  19  -4  -1    1.96    3.97
  -4 -19   3   -6.37    4.55
  -4  19  -3    5.58    4.43
  19  -4  -3    2.71    4.04
   4 -19  -5   19.28    5.68
  -4 -19   5   15.67    5.01
 -19  -4   5   12.15    4.80
 -19  -4   7   29.17    6.30
   4 -19  -7   18.12    5.92
  -5  19   0   31.96    5.90
 -19  -5   2   11.78    4.74
  -5  19  -2   10.99    4.84
 -19  -5   4    2.87    4.44
  -5  19  -4    6.45    4.75
 -19  -5   6    0.61    4.38
 -19  -6   1    7.94    4.60
  -6  19  -1    6.39    4.75
 -19  -6   3    5.69    4.44
  -6  19  -3    6.75    4.53
 -19  -7   0    9.79    5.13
 -19  -7   2    0.51    4.44
 -19  -8  -1   -2.76    4.40
   0 -20   0    8.07    4.66
   0 -20  -2    7.74    4.85
   0 -20   2    5.84    4.59
  20  -1   5    0.08    4.18
  20  -1   3   -1.76    4.27
  -1 -20  -1   10.01    5.37
  20  -1   1    0.05    4.03
   1 -20  -1   10.86    5.19
  20  -1  -1    1.61    4.32
   1 -20  -3    0.89    4.56
  -1 -20   3   -2.13    4.90
  20  -1  -3   -6.06    4.09
  20  -1  -5    9.28    4.85
  20  -2   2    4.63    4.44
  20  -2   0   18.01    5.25
  -2 -20   2    5.87    4.92
  20  -2  -2    9.95    4.70
  -2 -20   4    6.98    5.01
   2 -20  -4   -1.46    4.46
  -2 -20   6   10.91    5.39
  -3  20   1    1.86    4.20
   3 -20  -5    9.07    5.29
  -4  20   0   14.34    5.30
   0   0   0    0.00    0.00
;
_shelx_hkl_checksum              5671
_shelx_fab_file
;
    2    2    0   -125.95      0.03
   -1    3    0     41.12     -0.01
    1    3    0     39.63     -0.02
    3    3    0     85.20     -0.03
   -2    4    0    -10.70      0.01
    0    4    0     82.84     -0.01
    2    4    0    -10.03     -0.01
    4    4    0      6.77     -0.02
   -3    5    0      0.02      0.00
   -1    5    0    -31.31      0.02
    1    5    0    -29.35      0.03
    3    5    0      0.83      0.00
    5    5    0    -22.43      0.02
   -4    6    0     -2.53     -0.01
   -2    6    0    -14.64     -0.01
    0    6    0     35.10     -0.01
    2    6    0    -13.02      0.02
    4    6    0     -3.10      0.01
    6    6    0      4.55      0.01
   -5    7    0     -6.07      0.01
   -3    7    0      6.12      0.01
   -1    7    0      0.99     -0.01
    1    7    0      1.02     -0.02
    3    7    0      7.06     -0.02
    5    7    0     -4.97      0.01
    7    7    0     -5.48      0.01
   -6    8    0     -0.52      0.00
   -4    8    0     -4.37      0.00
   -2    8    0     -0.38      0.02
    0    8    0      8.18      0.02
    2    8    0     -2.24      0.00
    4    8    0     -2.94     -0.01
    6    8    0     -0.68     -0.02
    8    8    0     -1.82      0.00
   -7    9    0     -0.24     -0.01
   -5    9    0      3.11     -0.01
   -3    9    0      5.48      0.00
   -1    9    0     -0.22      0.00
    1    9    0     -0.24      0.02
    3    9    0      5.54      0.02
    5    9    0      3.73      0.02
    7    9    0     -1.31     -0.01
    9    9    0      3.35     -0.01
   -8   10    0     -1.83      0.03
   -6   10    0     -0.23      0.01
   -4   10    0     -3.47     -0.01
   -2   10    0     -0.44     -0.01
    0   10    0      1.17     -0.01
    2   10    0      0.00     -0.01
    4   10    0     -1.06      0.00
    6   10    0      0.05      0.02
    8   10    0     -1.23      0.02
   10   10    0      2.10     -0.02
   -9   11    0      0.29     -0.02
   -7   11    0     -0.89      0.00
   -5   11    0     -5.85      0.02
   -3   11    0     -0.98      0.01
   -1   11    0      0.60     -0.01
    1   11    0     -0.27      0.01
    3   11    0     -1.93     -0.01
    5   11    0     -2.32     -0.01
    7   11    0     -1.04      0.01
    9   11    0      0.35      0.03
   11   11    0     -0.18      0.02
  -10   12    0     -0.98      0.00
   -8   12    0     -3.56     -0.02
   -6   12    0     -0.71     -0.02
   -4   12    0      1.12      0.01
   -2   12    0     -0.43      0.02
    0   12    0      0.16      0.01
    2   12    0     -0.42      0.00
    4   12    0      1.52      0.00
    6   12    0      0.55     -0.02
    8   12    0     -3.04     -0.02
   10   12    0      1.16      0.00
   12   12    0     -0.68      0.02
  -11   13    0      1.27      0.00
   -9   13    0     -0.38      0.01
   -7   13    0      0.70      0.01
   -5   13    0     -0.16     -0.02
   -3   13    0      2.87     -0.02
   -1   13    0      1.50     -0.01
    1   13    0      3.46      0.01
    3   13    0      3.62      0.01
    5   13    0      0.23      0.00
    7   13    0     -0.94      0.00
    9   13    0     -2.21     -0.02
   11   13    0     -1.74     -0.03
   13   13    0     -4.80     -0.02
  -12   14    0      0.93      0.00
  -10   14    0      0.56      0.01
   -8   14    0     -1.78      0.00
   -6   14    0      1.01      0.02
   -4   14    0      0.81      0.02
   -2   14    0      2.14     -0.01
    0   14    0      1.46      0.00
    2   14    0      1.53      0.00
    4   14    0     -1.31      0.01
    6   14    0     -0.88      0.01
    8   14    0      0.46      0.01
   10   14    0      0.00      0.02
   12   14    0     -2.26      0.01
  -11   15    0     -2.13     -0.01
   -9   15    0     -0.20      0.00
   -7   15    0     -0.81     -0.01
   -5   15    0      0.77     -0.01
   -3   15    0     -0.37      0.02
   -1   15    0     -2.72      0.02
    1   15    0      1.08     -0.01
    3   15    0      1.96     -0.02
    5   15    0     -1.99     -0.01
    7   15    0     -0.16     -0.01
    9   15    0     -0.61     -0.01
   11   15    0      2.11      0.00
   -8   16    0      0.10     -0.01
   -6   16    0     -0.26      0.00
   -4   16    0      0.49     -0.01
   -2   16    0      0.14     -0.02
    0   16    0     -0.06      0.01
    2   16    0     -0.20      0.02
    4   16    0      0.23      0.00
    6   16    0      0.04     -0.02
    8   16    0     -1.47     -0.01
   -7   17    0      1.05      0.01
   -5   17    0     -2.59      0.00
   -3   17    0     -1.97      0.00
   -1   17    0     -0.39      0.00
    1   17    0     -0.87      0.00
    3   17    0     -1.71      0.00
    5   17    0     -1.52      0.02
    7   17    0      0.13      0.00
   -4   18    0      1.01      0.00
   -2   18    0      2.29      0.00
    0   18    0      0.87      0.00
    2   18    0      0.67     -0.01
    4   18    0      1.57     -0.01
    0    3    1    -53.09    -29.20
    0    5    1      0.52     -8.01
    0    7    1     -5.97     -3.87
    0    9    1     -0.03     -2.52
    0   11    1      0.40      1.21
    0   13    1      0.00     -4.14
    0   15    1      1.15      2.46
    0   17    1      0.61     -1.68
    1   18    1      0.54      0.88
    1   16    1     -1.89     -0.73
    1   14    1      0.69     -2.38
    1   12    1      0.45      3.78
    1   10    1     -0.94     -4.96
    1    8    1     -1.05      2.71
    1    6    1      3.88     -5.81
    1    4    1      9.64      2.51
    1    2    1     51.51    -10.87
   -1    2    1     50.72     -7.87
   -1    4    1     10.00      0.61
   -1    6    1      4.82     -3.40
   -1    8    1      0.07      6.64
   -1   10    1      0.14      0.39
   -1   12    1      0.39      2.34
   -1   14    1     -0.33     -3.06
   -1   16    1     -0.86      1.32
   -1   18    1      0.62      1.15
    2   17    1     -0.23     -1.71
    2   15    1      1.18     -2.76
    2   13    1     -1.10      0.32
    2   11    1      0.20     -0.45
    2    9    1      1.87      3.08
    2    7    1     -0.03      2.18
    2    5    1     19.02      6.43
    2    3    1     -2.22      8.92
   -2    3    1     -2.92      9.86
   -2    5    1     17.26      4.60
   -2    7    1     -0.13      3.96
   -2    9    1      1.23      3.43
   -2   11    1      0.21      1.15
   -2   13    1      0.42      1.85
   -2   15    1      1.11      1.14
   -2   17    1     -0.30     -2.40
    3   18    1      1.41      2.25
    3   16    1     -0.74     -1.66
    3   14    1      1.04      1.44
    3   12    1      1.13      0.01
    3   10    1     -0.44     -1.31
    3    8    1     -1.33      2.30
    3    6    1     -2.40     -4.68
    3    4    1    -12.37      0.88
   -3    4    1    -12.04      9.99
   -3    6    1     -2.91     -1.79
   -3    8    1     -1.84     -1.28
   -3   10    1     -0.24     -2.45
   -3   12    1      0.51     -1.36
   -3   14    1     -0.20     -1.23
   -3   16    1      0.39      1.04
   -3   18    1      0.12     -2.28
    4   17    1     -0.84      1.30
    4   15    1      0.66      0.79
    4   13    1     -0.11     -1.23
    4   11    1      1.08      0.14
    4    9    1      0.68     -2.60
    4    7    1     -3.11      2.70
    4    5    1      2.12     -2.83
   -4    5    1      2.25      5.46
   -4    7    1     -3.15      7.83
   -4    9    1     -0.31     -4.57
   -4   11    1      0.05     -0.35
   -4   13    1     -0.59     -2.52
   -4   15    1     -0.71     -1.55
   -4   17    1     -0.46      2.20
    5   16    1     -0.36     -0.08
    5   14    1      1.16      0.24
    5   12    1      1.73     -0.56
    5   10    1     -0.48      2.55
    5    8    1     -0.21      0.25
    5    6    1      1.39      8.26
   -5    6    1      0.11      0.66
   -5    8    1      0.13      4.63
   -5   10    1     -0.24      4.61
   -5   12    1      0.89     -1.67
   -5   14    1      2.11     -3.04
   -5   16    1     -0.35      3.29
    6   17    1      0.65      0.01
    6   15    1     -1.18      1.38
    6   13    1     -1.54     -1.72
    6   11    1     -0.52      2.26
    6    9    1      0.01      1.31
    6    7    1     -1.71     -3.44
   -6    7    1     -1.56     -2.74
   -6    9    1     -0.78      1.13
   -6   11    1     -0.75     -0.61
   -6   13    1     -1.36      1.43
   -6   15    1      0.00     -3.04
   -6   17    1      2.05     -2.17
    7   16    1     -0.12      1.45
    7   14    1     -1.43     -2.99
    7   12    1      0.27     -1.42
    7   10    1     -1.24     -0.78
    7    8    1     -0.42     -3.35
   -7    8    1      0.07     -2.40
   -7   10    1     -0.76     -0.41
   -7   12    1      0.47     -0.92
   -7   14    1     -0.46     -0.03
   -7   16    1     -1.41     -0.40
    8   15    1     -0.43      2.14
    8   13    1     -0.07     -0.18
    8   11    1      0.07     -1.83
    8    9    1      1.05      1.07
   -8    9    1      0.51     -1.64
   -8   11    1     -0.46     -2.87
   -8   13    1     -1.36      0.58
   -8   15    1      0.40      0.85
    9   16    1      0.98     -0.65
    9   14    1     -0.30     -1.49
    9   12    1      1.64     -1.23
    9   10    1     -0.76      0.48
   -9   10    1     -0.42      2.89
   -9   12    1      1.23     -2.86
   -9   14    1      0.03     -1.77
   -9   16    1     -0.84     -0.80
   10   15    1     -0.13     -2.66
   10   13    1     -1.96      0.01
   10   11    1     -0.36     -1.22
  -10   11    1     -0.14      1.47
  -10   13    1     -1.24     -1.52
  -10   15    1     -0.08     -1.66
   11   14    1     -2.34      0.82
   11   12    1      0.35     -0.93
  -11   12    1     -0.49     -2.53
  -11   14    1     -1.67     -0.27
   12   13    1      0.27      0.45
  -12   13    1      0.27      1.28
    0    2    2     21.91     25.50
    0    4    2    -31.08     16.09
    0    6    2     -1.94      7.47
    0    8    2      0.51      1.95
    0   10    2      1.38      1.00
    0   12    2     -3.05      5.60
    0   14    2     -0.93     -0.77
    0   16    2      1.30     -1.97
    0   18    2     -0.73     -0.51
    1   17    2      2.23     -0.35
    1   15    2     -2.67      1.66
    1   13    2      0.37      0.57
    1   11    2     -0.85     -1.33
    1    9    2     -1.68      0.76
    1    7    2     -3.99     -3.55
    1    5    2      1.08     -7.63
    1    3    2     -2.36    -33.02
   -1    3    2     -3.71    -29.80
   -1    5    2      1.63     -3.66
   -1    7    2     -6.56     -0.18
   -1    9    2     -3.40      1.79
   -1   11    2     -1.52     -1.98
   -1   13    2      2.70      0.14
   -1   15    2      0.53      1.75
   -1   17    2     -0.33      0.33
    2   18    2     -1.33      0.02
    2   16    2     -0.21     -3.03
    2   14    2     -1.61     -2.20
    2   12    2     -1.40     -0.33
    2   10    2      0.64      0.30
    2    8    2     -3.67     -4.81
    2    6    2      6.66      0.00
    2    4    2    -17.53     -2.25
    2    2    2     35.52      3.22
   -2    4    2    -18.17     -1.18
   -2    6    2      9.71     -6.67
   -2    8    2     -3.65     -5.75
   -2   10    2      0.36     -1.42
   -2   12    2     -1.67      1.46
   -2   14    2     -1.63     -2.18
   -2   16    2      1.63     -0.22
   -2   18    2     -1.52     -0.23
    3   17    2      0.03      0.67
    3   15    2     -2.57      2.02
    3   13    2      0.22     -0.18
    3   11    2     -0.04     -0.57
    3    9    2     -3.45      2.86
    3    7    2      0.83      8.21
    3    5    2      3.39      6.13
    3    3    2     -6.49     -2.06
   -3    5    2      4.50      8.51
   -3    7    2      0.19     12.35
   -3    9    2     -1.38      3.03
   -3   11    2      0.60     -2.06
   -3   13    2     -1.14     -1.69
   -3   15    2     -1.97     -0.16
   -3   17    2     -1.23      0.44
    4   18    2      1.00     -0.29
    4   16    2      0.93      0.14
    4   14    2      2.47     -0.46
    4   12    2     -2.52      2.86
    4   10    2      1.85      2.82
    4    8    2      0.29     -6.55
    4    6    2      5.78     -2.76
    4    4    2     -5.33     -8.99
   -4    6    2      6.02     -1.14
   -4    8    2      0.67      0.09
   -4   10    2      2.22      2.08
   -4   12    2     -0.83      2.46
   -4   14    2      1.16     -2.07
   -4   16    2      2.51      0.15
   -4   18    2      1.82     -1.39
    5   17    2     -0.85     -0.53
    5   15    2      0.03     -0.69
    5   13    2      0.78     -2.49
    5   11    2      2.18     -5.08
    5    9    2     -1.69     -0.54
    5    7    2      3.32      2.39
    5    5    2      8.59      0.61
   -5    7    2      3.25      3.07
   -5    9    2     -1.00     -3.37
   -5   11    2      3.26     -4.71
   -5   13    2      0.03     -0.90
   -5   15    2     -1.80      0.17
   -5   17    2     -0.37      0.25
    6   16    2     -0.08      1.55
    6   14    2      2.50     -0.49
    6   12    2     -1.21      2.64
    6   10    2      1.57      2.21
    6    8    2      1.07      0.10
    6    6    2     -1.96      2.78
   -6    8    2      0.38      1.57
   -6   10    2      2.25     -0.11
   -6   12    2      1.17      0.62
   -6   14    2     -0.76     -3.48
   -6   16    2      1.23     -0.96
    7   17    2     -0.93      0.55
    7   15    2      0.76      1.53
    7   13    2      1.81      2.03
    7   11    2      1.46      0.06
    7    9    2      1.30      0.76
    7    7    2      2.48     -1.51
   -7    9    2      0.99      0.48
   -7   11    2      0.73      2.13
   -7   13    2      0.18     -0.31
   -7   15    2      1.31      0.20
   -7   17    2     -1.91      0.52
    8   16    2     -1.33     -0.82
    8   14    2     -1.45     -3.41
    8   12    2     -0.18     -1.01
    8   10    2      1.10     -2.02
    8    8    2     -0.67      0.34
   -8   10    2      0.36     -1.22
   -8   12    2     -0.32      1.67
   -8   14    2      0.43     -0.43
   -8   16    2      0.52     -0.46
    9   15    2      0.25     -0.87
    9   13    2      0.21     -0.45
    9   11    2     -1.01     -1.88
    9    9    2     -1.82      1.82
   -9   11    2      0.78     -1.19
   -9   13    2      0.44     -2.94
   -9   15    2     -0.07     -1.64
   10   14    2      2.48      0.62
   10   12    2     -0.56      3.57
   10   10    2      1.22      0.43
  -10   12    2     -0.82      0.61
  -10   14    2     -1.16     -0.23
   11   15    2     -3.57     -0.16
   11   13    2     -0.16     -0.76
   11   11    2      1.36     -1.21
  -11   13    2     -1.38      0.29
  -11   15    2      1.75      1.13
   12   14    2      3.82     -1.87
   12   12    2     -1.77     -0.04
  -12   14    2     -1.10     -0.85
   13   13    2      1.52      0.98
    0    1    3    -37.63    -33.41
    0    3    3    -24.21     16.38
    0    5    3    -13.47     -7.17
    0    7    3      0.74     -2.52
    0    9    3     -4.88     -3.58
    0   11    3      1.45      1.65
    0   13    3     -2.56      6.61
    0   15    3      3.22     -4.96
    0   17    3     -0.02     -1.34
    1   18    3     -1.43     -1.96
    1   16    3      0.40      3.00
    1   14    3     -1.52      2.56
    1   12    3      0.98     -4.10
    1   10    3     -2.36      3.62
    1    8    3      5.83      2.81
    1    6    3    -14.55      5.48
    1    4    3      9.45     -2.37
    1    2    3    -14.81      3.70
   -1    2    3    -14.27      1.02
   -1    4    3     10.25      2.52
   -1    6    3    -14.27      4.10
   -1    8    3      6.00     -1.95
   -1   10    3     -1.66     -1.09
   -1   12    3      0.32     -4.37
   -1   14    3     -2.27      2.04
   -1   16    3     -2.33      2.12
   -1   18    3      0.69     -0.97
    2   17    3      2.15     -0.42
    2   15    3      0.07      0.46
    2   13    3     -1.46      2.66
    2   11    3      2.46      2.64
    2    9    3     -3.95     -2.86
    2    7    3      6.13      1.14
    2    5    3     -6.08     -2.50
    2    3    3    -10.30      6.98
   -2    3    3     -8.97      5.96
   -2    5    3     -4.84     -1.77
   -2    7    3      6.34      1.99
   -2    9    3     -4.65     -1.62
   -2   11    3      1.40      0.15
   -2   13    3     -1.80      0.58
   -2   15    3      1.04     -3.85
   -2   17    3      0.37     -0.32
    3   18    3     -2.04     -1.66
    3   16    3      0.23      1.77
    3   14    3     -2.45     -2.34
    3   12    3     -1.74     -1.40
    3   10    3     -1.60      0.11
    3    8    3      3.87     -2.09
    3    6    3     -7.56      0.07
    3    4    3      3.28    -11.47
   -3    4    3      4.98    -14.26
   -3    6    3     -8.19     -1.64
   -3    8    3      3.82     -0.30
   -3   10    3      0.24      1.19
   -3   12    3     -0.61      0.08
   -3   14    3      2.33      1.32
   -3   16    3      1.07      1.32
   -3   18    3      2.98      2.89
    4   17    3      1.32     -0.94
    4   15    3     -1.40     -1.56
    4   13    3     -0.28      0.17
    4   11    3      0.64     -0.94
    4    9    3     -2.80      1.79
    4    7    3      4.93     -5.47
    4    5    3      1.49      5.73
   -4    5    3      1.80      3.22
   -4    7    3      7.42     -5.16
   -4    9    3     -3.73      3.86
   -4   11    3      1.19     -2.76
   -4   13    3     -0.77      1.66
   -4   15    3     -2.41     -0.67
   -4   17    3     -0.97     -3.28
    5   16    3      2.70     -0.78
    5   14    3      0.40      3.10
    5   12    3     -0.06      1.46
    5   10    3      0.77     -1.87
    5    8    3      2.24      4.26
    5    6    3     -0.68     -6.51
   -5    6    3     -1.31      0.20
   -5    8    3      3.33     -0.53
   -5   10    3      4.02     -1.58
   -5   12    3     -0.24      0.04
   -5   14    3     -1.62      0.16
   -5   16    3      1.18     -3.30
    6   17    3     -0.67      0.25
    6   15    3     -1.77     -1.13
    6   13    3     -0.85      0.84
    6   11    3     -0.57     -0.58
    6    9    3     -2.50     -3.12
    6    7    3      2.42     -4.33
   -6    7    3      4.05     -3.48
   -6    9    3     -4.31     -3.44
   -6   11    3     -0.14      0.87
   -6   13    3      0.88      1.47
   -6   15    3     -0.05      1.67
   -6   17    3      1.17      0.93
    7   16    3      1.22     -2.56
    7   14    3      3.60      2.15
    7   12    3      1.61     -2.50
    7   10    3      1.22     -1.22
    7    8    3      4.55      6.13
   -7    8    3      1.94      3.56
   -7   10    3      2.00      0.05
   -7   12    3      0.91     -1.97
   -7   14    3      0.61     -1.61
   -7   16    3     -0.24      2.82
    8   15    3     -0.43     -0.57
    8   13    3      1.24      2.12
    8   11    3      3.46      7.59
    8    9    3     -0.69      2.01
   -8    9    3      0.31      3.03
   -8   11    3      1.63      3.05
   -8   13    3      2.20     -0.30
   -8   15    3     -0.28     -3.95
    9   16    3     -0.78      0.06
    9   14    3     -0.22      2.34
    9   12    3     -1.23     -1.33
    9   10    3     -0.77      0.30
   -9   10    3      0.86      0.23
   -9   12    3      0.81      3.18
   -9   14    3     -1.40      1.83
   -9   16    3      0.53      2.81
   10   15    3     -0.78      0.50
   10   13    3      3.34     -1.03
   10   11    3     -0.60      2.23
  -10   11    3     -3.46     -3.04
  -10   13    3      2.43      2.45
  -10   15    3      0.55      0.83
   11   14    3      1.18      0.25
   11   12    3     -0.25     -1.59
  -11   12    3      0.59     -1.38
  -11   14    3     -0.28     -2.08
   12   13    3      1.20      1.10
  -12   13    3      1.44      2.44
    0    0    4     47.19      0.00
    0    2    4    -26.53     28.13
    0    4    4    -13.17      8.47
    0    6    4     -7.78      3.99
    0    8    4      0.60     -1.35
    0   10    4      0.26     -3.66
    0   12    4     -1.35     -5.99
    0   14    4     -1.67     -0.64
    0   16    4     -2.02     -0.99
    0   18    4     -2.64      0.67
    1   17    4      0.03      0.72
    1   15    4      1.64      1.17
    1   13    4      0.15     -2.04
    1   11    4      0.76      1.43
    1    9    4      2.10     -0.64
    1    7    4     -2.97      0.09
    1    5    4     12.14     -2.63
    1    3    4    -11.15      2.85
    1    1    4      5.59      0.13
   -1    3    4     -9.60     -1.42
   -1    5    4     12.36     -6.66
   -1    7    4     -3.03     -2.71
   -1    9    4      3.18      0.49
   -1   11    4      1.90      2.98
   -1   13    4      0.15     -1.30
   -1   15    4      0.43      0.40
   -1   17    4      2.92     -0.31
    2   18    4     -0.11      0.49
    2   16    4      1.58     -0.13
    2   14    4      2.19      0.11
    2   12    4      1.42      3.07
    2   10    4      1.87     -1.29
    2    8    4      7.98      0.96
    2    6    4      0.10     -1.80
    2    4    4     10.97      2.64
    2    2    4      0.38     -5.28
   -2    4    4     11.76      0.22
   -2    6    4     -0.52      4.49
   -2    8    4      8.91      0.36
   -2   10    4      1.07     -0.57
   -2   12    4      0.76      1.54
   -2   14    4      1.58      1.47
   -2   16    4      1.27     -2.17
   -2   18    4      1.04      0.27
    3   17    4      1.16     -0.97
    3   15    4      2.37      1.16
    3   13    4     -1.74     -0.10
    3   11    4     -0.66     -1.71
    3    9    4      2.78     -2.56
    3    7    4     -9.61     -1.46
    3    5    4     -4.30     -4.96
    3    3    4    -12.99      1.06
   -3    5    4     -4.79     -2.42
   -3    7    4     -8.89     -3.89
   -3    9    4      2.48     -1.75
   -3   11    4     -1.97     -2.29
   -3   13    4     -1.34     -1.56
   -3   15    4     -1.74     -0.04
   -3   17    4     -1.69      0.21
    4   16    4      0.36     -1.48
    4   14    4     -5.50      0.05
    4   12    4     -0.31      0.67
    4   10    4     -3.15     -0.65
    4    8    4      0.25      0.15
    4    6    4     -7.62     -6.96
    4    4    4     -2.55     12.81
   -4    6    4     -6.36     -7.58
   -4    8    4      0.32     -5.74
   -4   10    4     -3.08      0.48
   -4   12    4      2.49      1.14
   -4   14    4     -0.04      3.17
   -4   16    4      1.87     -1.33
    5   17    4     -1.55      0.24
    5   15    4      0.44     -0.95
    5   13    4     -1.08     -0.33
    5   11    4     -1.70      0.29
    5    9    4      3.37     -3.29
    5    7    4     -0.37      6.46
    5    5    4      6.77     -2.15
   -5    7    4     -1.37      2.42
   -5    9    4      4.30     -0.52
   -5   11    4     -2.66      3.73
   -5   13    4     -2.36     -0.31
   -5   15    4      2.09     -0.18
   -5   17    4      0.63      2.44
    6   16    4      3.17     -1.18
    6   14    4     -1.54      0.94
    6   12    4      1.82      0.34
    6   10    4     -0.70      2.33
    6    8    4      0.73      1.39
    6    6    4      1.01     -5.59
   -6    8    4      1.48      1.94
   -6   10    4     -2.84      2.18
   -6   12    4      1.11     -0.70
   -6   14    4      0.36      1.87
   -6   16    4     -2.12     -1.33
    7   17    4      0.04      0.03
    7   15    4      0.26      0.25
    7   13    4     -1.26      2.97
    7   11    4     -0.41      2.67
    7    9    4      0.12     -1.88
    7    7    4     -4.55      3.21
   -7    9    4      1.97     -2.75
   -7   11    4      0.66      0.59
   -7   13    4     -1.17      1.49
   -7   15    4     -1.18      0.85
   -7   17    4      0.73      0.77
    8   16    4      2.19      0.42
    8   14    4      1.66     -0.66
    8   12    4      0.67     -1.17
    8   10    4     -0.53     -1.13
    8    8    4      0.03     -1.15
   -8   10    4     -2.10     -3.14
   -8   12    4      0.73     -1.39
   -8   14    4      2.12      0.63
   -8   16    4      1.93      0.48
    9   15    4      1.08      0.41
    9   13    4      0.42     -1.15
    9   11    4      0.32      2.63
    9    9    4      2.46     -1.00
   -9   11    4      0.19      1.20
   -9   13    4     -0.46     -1.56
   -9   15    4     -0.84      1.22
   10   14    4     -0.31      1.85
   10   12    4     -0.04      3.73
   10   10    4     -0.06      0.99
  -10   12    4     -0.10      4.61
  -10   14    4      2.38      2.37
   11   13    4      1.55     -1.44
   11   11    4      0.38     -0.98
  -11   13    4      3.46     -0.82
   12   12    4     -0.16      1.71
   13   13    4     -0.62     -1.07
    0    1    5     32.74     -7.77
    0    3    5     36.91    -11.03
    0    5    5      7.48      0.79
    0    7    5      9.73     -2.41
    0    9    5      4.79      3.06
    0   11    5      0.66     -1.20
    0   13    5      3.00     -1.99
    0   15    5      0.65     -0.90
    0   17    5      0.85      0.54
    1   18    5     -0.36      1.18
    1   16    5      0.01      0.44
    1   14    5     -0.53     -2.67
    1   12    5     -0.96     -4.04
    1   10    5      4.35     -2.13
    1    8    5     -8.90     -1.07
    1    6    5     15.99     -2.45
    1    4    5    -14.35      5.77
    1    2    5     -3.40      0.24
   -1    2    5     -5.02      4.58
   -1    4    5    -14.03      4.35
   -1    6    5     15.20     -1.28
   -1    8    5     -8.93      1.34
   -1   10    5      5.18     -0.38
   -1   12    5      0.31     -3.32
   -1   14    5     -0.32     -2.28
   -1   16    5      0.57     -0.53
   -1   18    5     -1.32      0.60
    2   17    5     -1.21      1.13
    2   15    5      0.16     -2.05
    2   13    5      0.84      0.11
    2   11    5     -1.81     -4.33
    2    9    5      1.12      0.80
    2    7    5     -6.30     -7.88
    2    5    5     -9.99      4.10
    2    3    5      9.86      8.56
   -2    3    5      8.59      6.70
   -2    5    5     -9.89      2.00
   -2    7    5     -4.58     -5.67
   -2    9    5      0.06      1.10
   -2   11    5     -2.85     -0.41
   -2   13    5     -1.12     -0.86
   -2   15    5     -0.86      0.80
   -2   17    5     -1.80     -0.69
    3   16    5      0.52     -1.20
    3   14    5      0.46      1.22
    3   12    5      0.63     -0.10
    3   10    5      4.00      0.05
    3    8    5     -2.79      2.39
    3    6    5     16.48     -4.49
    3    4    5      4.49      2.11
   -3    4    5      3.19      2.13
   -3    6    5     14.91     -5.72
   -3    8    5     -2.04     -0.50
   -3   10    5      3.69      0.23
   -3   12    5      1.02      2.43
   -3   14    5     -0.77      2.50
   -3   16    5      2.27      0.67
    4   17    5     -0.23      0.14
    4   15    5      1.01      0.29
    4   13    5      0.78      0.12
    4   11    5      0.53     -1.94
    4    9    5      1.68      0.89
    4    7    5     -1.80      3.08
    4    5    5     -7.29      6.60
   -4    5    5     -7.70      5.56
   -4    7    5     -2.45      3.40
   -4    9    5      0.77     -1.50
   -4   11    5      0.09      0.99
   -4   13    5      0.41     -4.63
   -4   15    5      0.17     -0.48
   -4   17    5     -1.10      0.89
    5   16    5     -0.54      2.33
    5   14    5     -0.17     -0.58
    5   12    5     -3.03      3.13
    5   10    5     -0.19      2.94
    5    8    5     -5.70     -2.51
    5    6    5     -1.60      2.79
   -5    6    5     -1.82     -3.42
   -5    8    5     -5.36      0.44
   -5   10    5     -1.29     -0.40
   -5   12    5     -1.94      0.66
   -5   14    5      1.43      1.75
   -5   16    5      0.22      3.51
    6   17    5      0.05     -1.18
    6   15    5     -1.30     -1.21
    6   13    5     -0.88     -2.13
    6   11    5      1.26     -2.16
    6    9    5     -2.08      3.00
    6    7    5     -0.72     -7.36
   -6    7    5      0.59     -6.69
   -6    9    5     -1.22      4.34
   -6   11    5     -0.97      1.50
   -6   13    5      0.17      0.35
   -6   15    5     -0.23      0.62
   -6   17    5     -1.89     -0.01
    7   16    5      0.98      1.16
    7   14    5      1.19     -3.66
    7   12    5     -2.61     -1.43
    7   10    5      0.99     -1.89
    7    8    5     -1.04     -2.11
   -7    8    5     -0.65      1.31
   -7   10    5      0.73     -2.66
   -7   12    5     -1.56     -3.06
   -7   14    5     -0.62      1.28
   -7   16    5      1.35     -1.84
    8   15    5     -0.96      2.28
    8   13    5     -1.14      4.20
    8   11    5     -1.02     -1.59
    8    9    5     -1.38      5.21
   -8    9    5      0.13      1.94
   -8   11    5     -1.26      0.39
   -8   13    5     -0.61      2.14
   -8   15    5     -0.09      2.44
    9   14    5      1.70     -0.54
    9   12    5     -0.53      0.14
    9   10    5     -1.44     -1.65
   -9   10    5     -1.45     -1.20
   -9   12    5      0.96     -2.93
   -9   14    5      0.91      2.40
   10   15    5      1.78     -2.48
   10   13    5     -0.65     -0.32
   10   11    5      2.74     -6.41
  -10   11    5      0.99     -1.48
  -10   13    5     -0.17     -4.09
  -10   15    5      1.38     -2.30
   11   14    5     -1.17      0.00
   11   12    5     -0.99     -0.87
  -11   12    5      1.51     -0.55
  -11   14    5      0.00      2.23
   12   13    5      0.42      3.20
  -12   13    5      0.57      1.14
    0    0    6    -12.66     -0.03
    0    2    6     19.14    -13.27
    0    4    6     23.69      0.79
    0    6    6     -4.02      0.62
    0    8    6      6.96      0.18
    0   10    6     -1.99     -2.86
    0   12    6      1.46      1.87
    0   14    6     -0.90     -2.43
    0   16    6     -0.19     -0.39
    0   18    6      2.45      1.67
    1   17    6     -0.54     -1.49
    1   15    6     -1.32      0.49
    1   13    6      0.96     -1.72
    1   11    6     -2.22      2.09
    1    9    6     -2.90      1.03
    1    7    6      1.33     -1.10
    1    5    6      2.29     -1.01
    1    3    6      6.74     -3.59
    1    1    6     20.04      2.07
   -1    3    6      7.28     -4.14
   -1    5    6      2.22     -0.04
   -1    7    6      1.85     -0.08
   -1    9    6     -3.98     -0.93
   -1   11    6     -2.34      0.33
   -1   13    6      1.32     -1.04
   -1   15    6     -0.34      2.10
   -1   17    6     -1.68      1.17
    2   16    6     -1.82      0.31
    2   14    6     -1.23      0.23
    2   12    6      1.94     -2.99
    2   10    6     -2.76      0.34
    2    8    6      3.25     -0.05
    2    6    6     -7.37      5.06
    2    4    6      3.31      3.01
    2    2    6     -9.32      1.95
   -2    4    6      1.81      3.99
   -2    6    6     -6.89      2.44
   -2    8    6      2.18     -0.30
   -2   10    6     -2.00      0.78
   -2   12    6      1.71     -1.47
   -2   14    6     -1.21     -0.01
   -2   16    6     -1.17      1.31
    3   17    6     -0.38      1.50
    3   15    6     -0.81     -0.57
    3   13    6      1.97     -2.51
    3   11    6      1.13      0.20
    3    9    6     -2.37     -1.96
    3    7    6      4.01      2.47
    3    5    6      5.49     -4.09
    3    3    6     -8.50     -2.48
   -3    5    6      3.87     -3.12
   -3    7    6      2.76      2.47
   -3    9    6     -2.40     -1.58
   -3   11    6      1.12      1.27
   -3   13    6      0.18     -2.54
   -3   15    6     -0.44     -1.63
   -3   17    6      0.35     -0.58
    4   16    6     -0.72      0.69
    4   14    6      2.08     -0.62
    4   12    6      1.30     -0.19
    4   10    6     -1.92      4.74
    4    8    6      1.92     -2.58
    4    6    6      1.07      4.88
    4    4    6     17.19     -3.66
   -4    6    6      1.45      0.99
   -4    8    6      1.63      1.44
   -4   10    6     -1.56      2.92
   -4   12    6     -0.21     -0.11
   -4   14    6      1.24     -0.46
   -4   16    6     -0.31      2.29
    5   17    6     -1.22      0.94
    5   15    6      0.43      1.28
    5   13    6      1.55      0.07
    5   11    6      0.55     -1.87
    5    9    6     -0.23     -1.05
    5    7    6      0.27      3.57
    5    5    6     -0.64     -0.14
   -5    7    6      0.76      4.61
   -5    9    6     -0.58     -0.73
   -5   11    6     -0.13     -4.35
   -5   13    6      0.02      1.45
   -5   15    6     -3.41      1.98
   -5   17    6     -1.69     -1.34
    6   16    6      0.04      0.78
    6   14    6      0.06     -1.67
    6   12    6      0.78     -1.59
    6   10    6     -2.41      0.91
    6    8    6      0.37     -3.26
    6    6    6     -4.26      1.66
   -6    8    6     -0.10      0.92
   -6   10    6     -1.10     -0.68
   -6   12    6      1.03     -2.28
   -6   14    6      1.73     -1.09
   -6   16    6      1.02     -0.33
    7   15    6     -1.17     -0.25
    7   13    6      0.17     -2.11
    7   11    6     -2.62      1.20
    7    9    6     -0.42     -0.93
    7    7    6     -2.06      2.00
   -7    9    6     -0.79      0.04
   -7   11    6     -0.06      1.33
   -7   13    6     -0.55     -0.19
   -7   15    6      0.57      1.08
    8   16    6     -0.88     -0.73
    8   14    6     -2.27      0.86
    8   12    6      0.34     -3.01
    8   10    6     -1.00     -3.78
    8    8    6      0.32     -1.05
   -8   10    6     -1.48     -0.14
   -8   12    6     -0.66     -0.46
   -8   14    6      1.46      0.56
   -8   16    6     -2.37     -1.82
    9   15    6      0.09     -0.80
    9   13    6      0.24     -0.33
    9   11    6     -2.29     -1.20
    9    9    6     -0.86     -1.45
   -9   11    6      0.90     -0.86
   -9   13    6     -1.97     -0.01
   -9   15    6     -0.63     -0.77
   10   14    6     -2.03     -0.22
   10   12    6      0.42     -1.13
   10   10    6     -1.15     -0.19
  -10   12    6     -0.40     -1.98
  -10   14    6     -0.12     -0.65
   11   13    6     -0.26     -1.87
   11   11    6      2.52      0.84
  -11   13    6     -1.53     -0.35
   12   12    6     -0.25      0.09
    0    1    7     -8.40     -5.79
    0    3    7     -0.89     -1.02
    0    5    7     -4.67     -2.91
    0    7    7     -4.05      2.64
    0    9    7     -2.68      2.00
    0   11    7     -2.10      1.44
    0   13    7     -1.00      5.07
    0   15    7     -1.10      2.20
    0   17    7     -0.77      0.27
    1   16    7     -1.18      0.27
    1   14    7      1.17      1.96
    1   12    7     -1.30      2.48
    1   10    7      1.12      1.79
    1    8    7     -0.03     -1.77
    1    6    7     -3.57      2.12
    1    4    7      3.41     -1.67
    1    2    7     -3.20     -3.91
   -1    2    7     -2.00     -7.30
   -1    4    7      1.90      0.62
   -1    6    7     -3.99      2.17
   -1    8    7      0.02     -2.74
   -1   10    7      0.06      1.41
   -1   12    7     -1.27      2.41
   -1   14    7      1.60      1.99
   -1   16    7     -0.49      0.85
    2   17    7     -0.82     -0.02
    2   15    7     -1.79      0.56
    2   13    7      0.12      0.13
    2   11    7     -1.04      0.91
    2    9    7     -2.61      2.07
    2    7    7      5.76      7.72
    2    5    7      3.94      0.36
    2    3    7      4.18     -2.37
   -2    3    7      3.72     -2.42
   -2    5    7      3.30     -0.53
   -2    7    7      3.92      5.07
   -2    9    7     -2.25      1.41
   -2   11    7      0.09     -4.47
   -2   13    7      0.73     -1.10
   -2   15    7     -1.10     -0.62
   -2   17    7      0.18      0.95
    3   16    7     -0.56      0.22
    3   14    7      1.51     -0.62
    3   12    7     -2.80      2.44
    3   10    7      0.22      3.35
    3    8    7     -2.03     -0.70
    3    6    7     -0.04      4.47
    3    4    7     -1.81      3.95
   -3    4    7      0.08      5.81
   -3    6    7      0.59      5.11
   -3    8    7     -2.86     -1.32
   -3   10    7      0.49      1.61
   -3   12    7     -2.06      2.10
   -3   14    7      0.96     -0.32
   -3   16    7     -2.56      0.69
    4   17    7     -1.46      1.56
    4   15    7      0.00      1.24
    4   13    7      3.09     -1.61
    4   11    7      0.68     -2.39
    4    9    7     -0.36     -0.40
    4    7    7      1.58     -2.37
    4    5    7     -1.91     -3.09
   -4    5    7      0.27     -1.43
   -4    7    7      1.60      0.89
   -4    9    7     -1.14      4.08
   -4   11    7     -0.81     -4.05
   -4   13    7      1.20      1.40
   -4   15    7     -0.51     -0.12
   -4   17    7     -1.34     -1.98
    5   16    7     -0.74     -1.58
    5   14    7      0.44      0.60
    5   12    7     -0.11     -1.56
    5   10    7      0.69     -1.20
    5    8    7     -0.40      3.19
    5    6    7      4.72     -5.68
   -5    6    7      3.38     -3.03
   -5    8    7      0.19     -1.99
   -5   10    7      2.65     -0.54
   -5   12    7     -0.84     -0.28
   -5   14    7     -1.03     -0.82
   -5   16    7      0.92     -3.27
    6   15    7     -0.33      0.55
    6   13    7      1.86     -0.23
    6   11    7     -0.78      0.66
    6    9    7      1.73     -1.05
    6    7    7      2.32      2.76
   -6    7    7      0.10      4.11
   -6    9    7      0.92     -1.56
   -6   11    7      1.13     -0.48
   -6   13    7      1.73     -0.46
   -6   15    7     -1.62      0.32
    7   16    7     -1.34      0.76
    7   14    7     -0.15      3.66
    7   12    7     -0.48     -0.95
    7   10    7     -2.26     -3.62
    7    8    7      0.17     -0.70
   -7    8    7     -1.97     -2.29
   -7   10    7     -1.25     -1.99
   -7   12    7     -0.21     -1.18
   -7   14    7      0.35     -0.84
   -7   16    7     -0.71     -0.03
    8   15    7     -1.06     -2.84
    8   13    7     -1.63     -4.34
    8   11    7      1.53      2.30
    8    9    7     -2.29      0.08
   -8    9    7      0.14      4.49
   -8   11    7      0.72      3.46
   -8   13    7     -0.91     -1.40
   -8   15    7     -0.98     -2.43
    9   14    7     -0.67      0.66
    9   12    7     -0.04     -0.83
    9   10    7      1.20      2.83
   -9   10    7      0.66      2.77
   -9   12    7      0.42      2.21
   -9   14    7      0.93      0.96
   10   13    7     -0.71     -0.06
   10   11    7     -0.82      2.29
  -10   11    7     -1.95     -1.14
  -10   13    7     -1.64     -0.65
   11   12    7      0.10     -1.00
  -11   12    7     -1.02      0.51
   12   13    7     -0.29     -1.42
  -12   13    7     -0.98     -0.38
    0    0    8     -6.73      0.00
    0    2    8    -15.36     20.91
    0    4    8    -12.59     -1.23
    0    6    8      2.48      6.25
    0    8    8     -1.54      4.89
    0   10    8      0.46      0.85
    0   12    8      0.24     -0.55
    0   14    8      1.22      4.47
    0   16    8      0.61      0.43
    1   17    8     -0.08      0.27
    1   15    8      1.94     -0.47
    1   13    8     -1.98      1.27
    1   11    8      2.04      5.54
    1    9    8     -1.93     -1.88
    1    7    8     -0.10      1.70
    1    5    8     -4.82     -0.10
    1    3    8     -5.71     -0.48
    1    1    8    -12.55     -3.11
   -1    3    8     -5.73      2.33
   -1    5    8     -4.52      1.87
   -1    7    8     -0.21     -0.35
   -1    9    8     -0.42      0.01
   -1   11    8      1.39      5.51
   -1   13    8     -1.10      3.28
   -1   15    8     -0.77      1.66
   -1   17    8     -2.21      0.10
    2   16    8     -1.41      0.98
    2   14    8      0.89      2.65
    2   12    8     -0.71      3.54
    2   10    8      3.17     -0.32
    2    8    8     -2.06      2.23
    2    6    8      0.96     -0.33
    2    4    8     -2.07    -10.37
    2    2    8      6.37      0.31
   -2    4    8     -1.97    -11.56
   -2    6    8      0.77     -1.73
   -2    8    8     -1.85      5.06
   -2   10    8      2.67     -0.30
   -2   12    8     -0.82      2.09
   -2   14    8      1.17     -0.73
   -2   16    8      1.82     -1.00
    3   17    8     -0.24     -0.55
    3   15    8      0.74      2.11
    3   13    8     -1.53      0.63
    3   11    8     -1.45      2.20
    3    9    8      0.09     -0.94
    3    7    8      1.47     -0.29
    3    5    8     -6.45      1.23
    3    3    8      7.78      3.41
   -3    5    8     -5.86      3.65
   -3    7    8      0.20     -0.79
   -3    9    8      0.18     -1.90
   -3   11    8     -1.91     -2.65
   -3   13    8      0.83      2.20
   -3   15    8     -0.60     -0.40
   -3   17    8     -0.33     -0.04
    4   16    8     -0.66     -2.60
    4   14    8      1.29     -0.61
    4   12    8     -1.75      2.72
    4   10    8     -0.16     -0.94
    4    8    8     -1.13      2.27
    4    6    8     -0.31      3.11
    4    4    8     -8.61      0.52
   -4    6    8     -0.18      3.68
   -4    8    8     -1.37      0.23
   -4   10    8     -0.23     -1.65
   -4   12    8      0.60      2.41
   -4   14    8     -0.31      0.77
   -4   16    8     -0.60      1.26
    5   15    8     -1.87      0.67
    5   13    8     -0.41     -2.15
    5   11    8      1.75     -0.73
    5    9    8      0.64     -0.82
    5    7    8      1.40      1.42
    5    5    8     -2.13     -2.73
   -5    7    8     -0.20     -0.92
   -5    9    8     -0.65     -0.98
   -5   11    8      1.58      2.58
   -5   13    8     -0.55     -0.37
   -5   15    8      0.80     -4.68
    6   16    8     -0.44      0.42
    6   14    8      0.14      2.17
    6   12    8     -1.75      1.98
    6   10    8      2.28     -1.20
    6    8    8     -0.45     -0.66
    6    6    8      0.26      0.15
   -6    8    8      1.87     -0.23
   -6   10    8      2.40      0.46
   -6   12    8     -0.60      3.49
   -6   14    8     -1.26     -4.75
   -6   16    8     -1.01      0.39
    7   15    8      0.31     -0.50
    7   13    8     -0.60      3.08
    7   11    8      0.11      2.26
    7    9    8     -1.02      2.92
    7    7    8      1.43      0.71
   -7    9    8     -1.88      0.73
   -7   11    8      0.14      0.47
   -7   13    8     -1.05      2.94
   -7   15    8     -0.15      0.69
    8   14    8      0.11     -2.98
    8   12    8      0.76      1.08
    8   10    8      1.60     -0.96
    8    8    8     -0.35     -0.09
   -8   10    8     -0.40     -5.23
   -8   12    8      0.83      2.79
   -8   14    8     -0.28     -5.00
    9   13    8      0.50     -0.95
    9   11    8      0.61     -0.86
    9    9    8      1.38     -0.03
   -9   11    8      0.49     -1.17
   -9   13    8     -0.47     -1.13
   10   14    8     -0.30     -0.62
   10   12    8     -1.69      5.62
   10   10    8      1.33     -0.10
  -10   12    8     -0.92      7.11
  -10   14    8     -0.06     -2.44
   11   13    8     -0.60      2.69
   11   11    8     -3.54     -0.77
  -11   13    8     -0.55      3.23
   12   12    8      0.60      0.44
    0    1    9     -6.21     -0.47
    0    3    9    -13.67      2.55
    0    5    9      1.93     -3.67
    0    7    9     -2.51     -2.42
    0    9    9      4.09      2.74
    0   11    9     -0.10     -0.85
    0   13    9      1.29     -0.34
    0   15    9     -1.14     -1.23
    0   17    9     -0.27      0.39
    1   16    9      3.38      0.68
    1   14    9      0.50      0.43
    1   12    9      3.92      1.14
    1   10    9     -1.39     -1.36
    1    8    9      1.63     -0.43
    1    6    9     -0.10     -1.56
    1    4    9     -2.52      4.46
    1    2    9      4.26     -1.93
   -1    2    9      4.48     -0.59
   -1    4    9     -1.60      3.71
   -1    6    9     -0.94     -0.44
   -1    8    9      0.60      1.90
   -1   10    9     -1.91     -0.35
   -1   12    9      2.24      1.73
   -1   14    9     -1.54     -1.24
   -1   16    9     -0.33     -0.91
    2   17    9      1.48      0.02
    2   15    9     -0.20     -1.92
    2   13    9      0.41      0.65
    2   11    9     -1.68     -1.90
    2    9    9      4.77      3.20
    2    7    9     -5.15     -2.46
    2    5    9      1.42     -0.08
    2    3    9     -5.73      3.18
   -2    3    9     -7.24      3.70
   -2    5    9      2.01     -2.42
   -2    7    9     -4.27     -0.75
   -2    9    9      4.30      0.33
   -2   11    9     -1.33      2.38
   -2   13    9      0.25      0.81
   -2   15    9      3.81     -0.20
   -2   17    9      2.28     -1.56
    3   16    9      1.14     -0.61
    3   14    9     -2.27      1.54
    3   12    9      2.80     -0.12
    3   10    9     -1.78     -1.70
    3    8    9      0.37      0.26
    3    6    9     -7.74     -3.20
    3    4    9     -4.55     -0.66
   -3    4    9     -4.37      1.19
   -3    6    9     -7.88     -3.88
   -3    8    9      2.40      1.07
   -3   10    9     -1.25      0.83
   -3   12    9      2.25      1.68
   -3   14    9     -0.64      2.59
   -3   16    9      0.14      0.45
    4   15    9     -2.08      0.69
    4   13    9     -2.29      3.23
    4   11    9     -0.06     -0.50
    4    9    9      3.49     -0.61
    4    7    9     -1.44     -0.60
    4    5    9      3.71     -1.26
   -4    5    9      2.78     -2.55
   -4    7    9     -2.90      2.88
   -4    9    9      3.12     -1.96
   -4   11    9      1.37      3.26
   -4   13    9     -1.94     -1.90
   -4   15    9     -0.24      0.17
    5   16    9      2.87      0.13
    5   14    9     -0.64     -0.10
    5   12    9      0.05      3.55
    5   10    9     -2.98      4.23
    5    8    9      0.30      0.07
    5    6    9     -3.69      5.27
   -5    6    9     -3.03     -1.00
   -5    8    9      0.00     -1.57
   -5   10    9     -2.82      0.72
   -5   12    9      1.80      0.25
   -5   14    9      1.08     -0.22
   -5   16    9      0.24      1.53
    6   15    9      0.85     -1.62
    6   13    9     -1.43     -0.24
    6   11    9      2.15      0.32
    6    9    9      1.08      2.70
    6    7    9     -1.11     -0.06
   -6    7    9     -1.73     -0.94
   -6    9    9      0.98     -0.63
   -6   11    9     -0.76      3.61
   -6   13    9     -0.28      0.85
   -6   15    9      2.67     -0.43
    7   14    9      0.04     -0.30
    7   12    9      0.40     -0.34
    7   10    9      2.87     -0.61
    7    8    9     -0.56     -3.26
   -7    8    9     -0.12     -0.23
   -7   10    9      1.13      2.68
   -7   12    9     -0.19     -1.31
   -7   14    9     -2.40      1.83
    8   15    9      1.41      1.14
    8   13    9      2.00      2.10
    8   11    9     -2.33      0.94
    8    9    9     -0.32      4.98
   -8    9    9      3.00     -5.76
   -8   11    9     -2.37     -0.35
   -8   13    9     -0.30     -1.29
   -8   15    9     -1.13     -0.41
    9   14    9      0.18      1.42
    9   12    9     -0.74      2.78
    9   10    9      2.04     -0.22
   -9   10    9     -1.04     -0.09
   -9   12    9      1.99     -2.24
   -9   14    9      0.63      1.94
   10   13    9      1.04     -1.63
   10   11    9     -0.76     -3.63
  -10   11    9      0.52      1.96
  -10   13    9      0.09      1.17
   11   12    9     -1.49      0.79
  -11   12    9     -0.16     -2.30
    0    0   10      1.59      0.00
    0    2   10      9.54     -4.78
    0    4   10      1.18     -1.24
    0    6   10      1.86     -5.31
    0    8   10     -3.29     -1.49
    0   10   10      0.11     -2.67
    0   12   10     -2.74     -0.90
    0   14   10      0.28     -6.97
    0   16   10      2.27     -2.22
    1   15   10     -1.74      0.58
    1   13   10      1.49     -1.30
    1   11   10     -0.25     -4.60
    1    9   10      1.32      0.31
    1    7   10     -0.19     -5.17
    1    5   10     -0.45      2.16
    1    3   10      3.00     -1.06
    1    1   10      2.51      1.47
   -1    3   10      3.70     -0.65
   -1    5   10     -0.88      0.92
   -1    7   10     -0.64     -2.18
   -1    9   10      1.02     -0.75
   -1   11   10      0.88     -2.28
   -1   13   10      2.36     -1.41
   -1   15   10     -0.25     -1.04
    2   16   10      1.44     -0.18
    2   14   10     -0.74     -1.25
    2   12   10      0.33     -0.34
    2   10   10     -0.50     -2.09
    2    8   10     -0.78      0.52
    2    6   10      1.75     -1.66
    2    4   10     -1.65      3.03
    2    2   10      0.26      0.90
   -2    4   10     -1.24      2.24
   -2    6   10      4.38      2.15
   -2    8   10     -1.02     -2.57
   -2   10   10      0.04      0.32
   -2   12   10     -1.28      0.23
   -2   14   10     -0.58      1.29
   -2   16   10      0.76      0.60
    3   15   10     -0.26     -1.74
    3   13   10     -0.43     -0.22
    3   11   10      0.87     -1.21
    3    9   10     -1.35      1.33
    3    7   10     -1.52     -2.11
    3    5   10      5.44      1.32
    3    3   10     -1.76     -4.42
   -3    5   10      3.63     -1.31
   -3    7   10     -0.79     -3.56
   -3    9   10     -1.31      1.25
   -3   11   10      1.62      3.50
   -3   13   10     -0.12     -1.73
   -3   15   10     -1.04      0.88
    4   16   10      3.14      1.96
    4   14   10     -0.96     -0.27
    4   12   10      2.56     -0.55
    4   10   10      3.59      0.19
    4    8   10      0.27      1.07
    4    6   10      0.69     -3.87
    4    4   10     -0.20      2.77
   -4    6   10      1.56     -4.51
   -4    8   10      1.45      0.83
   -4   10   10      5.02      2.39
   -4   12   10     -1.24     -1.11
   -4   14   10      2.37     -1.20
   -4   16   10      4.26     -2.74
    5   15   10      0.15     -0.49
    5   13   10     -1.01      1.74
    5   11   10     -1.32     -1.49
    5    9   10     -0.06     -1.20
    5    7   10     -0.42     -3.27
    5    5   10     -1.91      1.02
   -5    7   10     -0.63     -1.99
   -5    9   10     -1.91      1.58
   -5   11   10     -1.69     -2.46
   -5   13   10      0.63      0.98
   -5   15   10     -0.11      5.33
    6   14   10     -0.60     -0.85
    6   12   10      1.20      1.52
    6   10   10     -2.86      1.79
    6    8   10     -2.12      2.87
    6    6   10      1.60     -1.23
   -6    8   10     -0.69      1.07
   -6   10   10     -1.37     -0.71
   -6   12   10     -0.06     -0.61
   -6   14   10      0.27      4.78
    7   15   10      1.36     -0.18
    7   13   10      3.71     -1.48
    7   11   10      1.32      0.89
    7    9   10      1.99      1.72
    7    7   10      1.53      3.49
   -7    9   10      0.71      0.97
   -7   11   10      1.43     -2.78
   -7   13   10      1.57     -2.43
   -7   15   10      1.77     -0.80
    8   14   10     -0.63      3.03
    8   12   10     -0.26     -3.33
    8   10   10      1.39     -1.03
    8    8   10      3.30      0.53
   -8   10   10      1.17      1.08
   -8   12   10     -0.17     -0.21
   -8   14   10     -0.25      2.75
    9   13   10     -0.56      2.94
    9   11   10     -1.90      1.45
    9    9   10     -2.82     -3.57
   -9   11   10     -1.05      2.32
   -9   13   10     -0.20      2.97
   10   12   10      3.05     -6.52
   10   10   10     -1.84      5.26
  -10   12   10      2.50     -8.17
   11   11   10      1.65     -0.39
    0    1   11      8.79     -1.38
    0    3   11      4.90     -0.98
    0    5   11     -0.45      1.77
    0    7   11      3.51     -1.52
    0    9   11     -4.23     -2.25
    0   11   11      2.09      0.41
    0   13   11     -4.88     -3.93
    0   15   11      2.07     -1.37
    1   16   11     -1.87     -1.30
    1   14   11     -0.03      1.21
    1   12   11     -2.71     -3.14
    1   10   11     -0.80     -1.52
    1    8   11     -0.79     -1.21
    1    6   11     -2.04      4.25
    1    4   11      6.32     -4.00
    1    2   11      1.79      0.79
   -1    2   11      1.29     -0.11
   -1    4   11      7.12     -5.71
   -1    6   11     -2.08      1.00
   -1    8   11      0.87     -3.61
   -1   10   11     -1.22     -0.84
   -1   12   11     -0.99     -4.49
   -1   14   11      1.14      2.38
   -1   16   11     -0.88      1.20
    2   15   11      2.34      0.79
    2   13   11     -2.78     -2.15
    2   11   11      2.64      1.40
    2    9   11     -2.88     -2.43
    2    7   11      4.29     -1.88
    2    5   11      2.30     -1.29
    2    3   11      2.27      0.15
   -2    3   11      2.54     -0.28
   -2    5   11      3.35      0.52
   -2    7   11      5.13     -4.00
   -2    9   11     -2.43     -0.98
   -2   11   11      3.85     -2.09
   -2   13   11     -2.93     -1.46
   -2   15   11      0.81     -3.19
    3   16   11      0.35     -0.26
    3   14   11      2.79     -1.81
    3   12   11      0.39     -1.52
    3   10   11     -0.12      0.94
    3    8   11     -0.70     -2.43
    3    6   11      3.22      2.04
    3    4   11      2.56      0.48
   -3    4   11      3.50     -1.94
   -3    6   11      2.75      4.02
   -3    8   11      0.56     -2.15
   -3   10   11     -2.71      0.75
   -3   12   11      1.17     -2.02
   -3   14   11     -0.56      0.48
   -3   16   11     -1.27      0.58
    4   15   11     -0.79     -1.12
    4   13   11     -2.76     -2.65
    4   11   11      0.39     -0.48
    4    9   11     -1.80      0.53
    4    7   11      0.06     -2.08
    4    5   11      1.52      2.42
   -4    5   11      1.21      2.11
   -4    7   11      1.02     -4.06
   -4    9   11     -2.16      1.90
   -4   11   11     -0.06     -2.02
   -4   13   11     -0.97      2.14
   -4   15   11      3.91     -0.60
    5   14   11      4.58      0.75
    5   12   11      0.80     -1.63
    5   10   11      0.81     -1.73
    5    8   11      0.09      1.90
    5    6   11      2.28     -3.16
   -5    6   11      4.40     -0.31
   -5    8   11      3.32     -0.62
   -5   10   11      0.59      0.51
   -5   12   11      0.31     -3.16
   -5   14   11     -0.80      1.52
    6   15   11     -0.30      1.32
    6   13   11      1.24     -0.33
    6   11   11      1.78     -3.25
    6    9   11      2.16     -1.95
    6    7   11      1.41     -3.68
   -6    7   11      1.01      0.65
   -6    9   11      1.34     -1.61
   -6   11   11      0.87     -4.14
   -6   13   11     -0.68      0.52
   -6   15   11     -0.86      0.56
    7   14   11     -0.84     -1.37
    7   12   11     -0.07      0.78
    7   10   11     -0.96     -1.94
    7    8   11      2.25      2.49
   -7    8   11     -0.53      1.65
   -7   10   11     -0.74      2.16
   -7   12   11      1.13      0.44
   -7   14   11      3.60      1.51
    8   13   11     -1.99     -0.46
    8   11   11      0.10      0.02
    8    9   11     -1.81      1.28
   -8    9   11     -1.04      4.77
   -8   11   11      1.19     -0.88
   -8   13   11      0.20      0.71
    9   12   11      2.07      0.55
    9   10   11      0.78     -0.88
   -9   10   11      1.68      0.40
   -9   12   11     -2.20     -0.56
   10   11   11      0.89     -0.16
  -10   11   11      0.71     -1.41
   11   12   11      0.66      0.36
  -11   12   11      1.87     -0.79
    0    0   12     10.92      0.00
    0    2   12      0.14     -1.38
    0    4   12      6.27      2.71
    0    6   12      0.05     -0.26
    0    8   12      4.39     -1.12
    0   10   12     -1.64     -1.85
    0   12   12     -0.28     -0.93
    0   14   12     -1.64      1.25
    1   15   12      0.19      1.97
    1   13   12      0.93      0.63
    1   11   12     -0.59      3.21
    1    9   12      1.02     -1.03
    1    7   12     -0.46      5.60
    1    5   12      1.30     -0.56
    1    3   12      0.86     -2.16
    1    1   12      1.90     -1.06
   -1    3   12      1.08     -1.02
   -1    5   12      1.48     -0.24
   -1    7   12     -0.34      2.31
   -1    9   12      1.67     -0.16
   -1   11   12     -0.56      0.57
   -1   13   12      1.33      0.16
   -1   15   12     -1.97      4.17
    2   14   12     -1.73     -1.72
    2   12   12     -0.93     -0.38
    2   10   12     -2.40      2.89
    2    8   12      1.71     -0.34
    2    6   12     -2.52     -1.55
    2    4   12      0.64      3.32
    2    2   12     -3.03      1.86
   -2    4   12      1.42      1.39
   -2    6   12     -1.32     -4.05
   -2    8   12      2.42      3.61
   -2   10   12     -1.85     -0.59
   -2   12   12     -1.38      0.77
   -2   14   12      0.18     -3.10
    3   15   12      0.75      0.63
    3   13   12      1.79     -1.57
    3   11   12     -1.81     -0.63
    3    9   12      0.29     -3.75
    3    7   12      1.71      3.96
    3    5   12     -1.03     -1.04
    3    3   12      6.00      2.25
   -3    5   12     -1.56     -0.46
   -3    7   12      0.27      2.64
   -3    9   12      0.84     -3.85
   -3   11   12     -2.49     -4.73
   -3   13   12      2.49     -0.84
   -3   15   12     -3.09      1.00
    4   14   12      1.65      1.47
    4   12   12      1.24      0.01
    4   10   12     -1.69      1.30
    4    8   12      2.02     -1.02
    4    6   12      0.95      1.15
    4    4   12      2.76     -2.01
   -4    6   12      2.14      0.58
   -4    8   12      2.77     -0.62
   -4   10   12     -2.15     -4.95
   -4   12   12      1.36      1.53
   -4   14   12     -1.18     -0.48
    5   15   12     -0.75     -1.41
    5   13   12      0.68     -4.04
    5   11   12     -0.35      0.23
    5    9   12      0.14     -3.69
    5    7   12     -0.50      1.88
    5    5   12     -0.24     -2.23
   -5    7   12      0.11      2.65
   -5    9   12     -0.48     -1.77
   -5   11   12     -0.69      0.60
   -5   13   12      1.55     -1.66
   -5   15   12     -2.26     -1.98
    6   14   12     -2.34      1.73
    6   12   12     -2.16     -4.24
    6   10   12      0.79     -1.16
    6    8   12      0.36     -1.71
    6    6   12     -0.50      0.98
   -6    8   12      0.84      3.71
   -6   10   12      0.56      1.26
   -6   12   12     -1.22      3.09
   -6   14   12     -1.73     -3.09
    7   13   12     -1.06      2.04
    7   11   12      0.73      3.78
    7    9   12     -0.48     -3.66
    7    7   12      0.93     -1.28
   -7    9   12      0.47     -0.28
   -7   11   12     -1.28      1.99
   -7   13   12      0.28      0.85
    8   12   12      2.61     -2.68
    8   10   12      1.16     -0.49
    8    8   12      0.01     -1.09
   -8   10   12      0.07     -4.54
   -8   12   12      2.83     -0.77
    9   13   12     -1.00     -0.69
    9   11   12      0.81      1.37
    9    9   12     -0.03     -2.08
   -9   11   12      0.54      2.15
   -9   13   12     -1.01     -1.09
   10   12   12     -1.43      3.64
   10   10   12      1.51     -1.05
  -10   12   12     -1.54      3.29
   11   11   12      1.51     -1.10
    0    1   13     -3.28     -0.97
    0    3   13      2.15      0.98
    0    5   13      1.10      1.67
    0    7   13     -0.41      0.04
    0    9   13      4.37      5.54
    0   11   13     -2.14      1.60
    0   13   13      2.28      5.13
    0   15   13      0.69     -2.08
    1   14   13      1.26      2.40
    1   12   13      2.16      1.24
    1   10   13      1.64      2.79
    1    8   13     -1.75      1.94
    1    6   13      3.16     -1.14
    1    4   13     -4.27      3.50
    1    2   13     -1.11     -1.59
   -1    2   13     -0.81     -1.93
   -1    4   13     -5.84      2.51
   -1    6   13      3.07      1.56
   -1    8   13     -1.97      1.50
   -1   10   13      1.74      0.08
   -1   12   13      0.70      0.68
   -1   14   13     -2.12      2.41
    2   15   13     -2.53     -2.02
    2   13   13      0.53      1.21
    2   11   13     -1.76     -2.61
    2    9   13      2.58      2.90
    2    7   13     -0.81     -0.50
    2    5   13     -2.83      1.92
    2    3   13      1.02     -1.45
   -2    3   13      0.58      0.24
   -2    5   13     -4.07      0.70
   -2    7   13     -1.94      0.59
   -2    9   13      2.12      0.70
   -2   11   13     -1.76     -2.34
   -2   13   13      0.78     -0.04
   -2   15   13      1.84     -0.75
    3   14   13      2.36      1.71
    3   12   13     -0.21     -0.50
    3   10   13      1.82     -1.21
    3    8   13     -0.06      2.59
    3    6   13      0.17      0.25
    3    4   13     -1.63     -0.28
   -3    4   13     -0.88      0.62
   -3    6   13      0.38      0.04
   -3    8   13     -1.68      1.93
   -3   10   13      3.05      0.55
   -3   12   13     -0.29     -1.69
   -3   14   13     -0.03      0.41
    4   13   13     -2.55      2.33
    4   11   13     -2.18     -2.50
    4    9   13      0.33      0.21
    4    7   13     -1.38     -0.73
    4    5   13     -3.07      1.21
   -4    5   13     -3.82      0.81
   -4    7   13     -1.53      5.44
   -4    9   13      0.56     -0.74
   -4   11   13     -1.53      0.91
   -4   13   13     -2.31      1.10
    5   14   13     -1.07     -1.34
    5   12   13     -0.20      2.59
    5   10   13     -2.14      3.27
    5    8   13     -1.31     -0.98
    5    6   13     -0.23      4.19
   -5    6   13     -0.82      0.12
   -5    8   13     -2.53      0.86
   -5   10   13     -0.03      2.00
   -5   12   13      0.24      1.86
   -5   14   13      0.65     -1.02
    6   13   13     -0.39      0.87
    6   11   13      1.78     -0.41
    6    9   13      0.20      2.73
    6    7   13     -1.21     -1.80
   -6    7   13     -0.78     -3.12
   -6    9   13     -0.79     -1.68
   -6   11   13      0.40      0.19
   -6   13   13     -0.51     -2.46
    7   12   13     -2.03     -0.45
    7   10   13     -0.47     -0.34
    7    8   13     -1.96     -6.22
   -7    8   13     -2.15      0.60
   -7   10   13      0.66      0.20
   -7   12   13     -2.51      1.15
    8   13   13     -0.57      0.43
    8   11   13     -1.76     -1.06
    8    9   13     -0.47      1.65
   -8    9   13      1.09     -1.21
   -8   11   13     -0.71      2.27
   -8   13   13     -0.85     -0.92
    9   12   13      1.78      1.72
    9   10   13      1.91      0.83
   -9   10   13      0.89     -1.05
   -9   12   13      0.85      1.05
   10   11   13      0.95     -1.13
  -10   11   13     -1.90      1.04
    0    0   14    -11.34      0.00
    0    2   14     -2.56      3.38
    0    4   14     -3.81     -2.97
    0    6   14     -0.09     -1.24
    0    8   14     -2.22     -0.66
    0   10   14     -0.14      2.84
    0   12   14      0.56      0.57
    0   14   14     -0.28     -2.35
    1   13   14      2.98      1.00
    1   11   14      1.59     -0.18
    1    9   14     -0.41      0.32
    1    7   14      1.07      3.81
    1    5   14     -0.40     -1.32
    1    3   14     -2.29      3.01
    1    1   14     -2.46     -2.25
   -1    3   14     -1.52      4.70
   -1    5   14     -2.72      1.34
   -1    7   14     -0.84      4.45
   -1    9   14     -2.01      0.67
   -1   11   14      1.78      2.00
   -1   13   14      0.70      0.37
    2   14   14     -0.36      0.76
    2   12   14     -0.67      0.41
    2   10   14      2.56     -0.41
    2    8   14     -0.45     -1.85
    2    6   14      0.55      0.70
    2    4   14     -0.35     -3.02
    2    2   14      0.72     -0.97
   -2    4   14     -1.89     -0.43
   -2    6   14      0.26      5.52
   -2    8   14      0.47     -0.17
   -2   10   14      2.04      0.13
   -2   12   14     -0.10      0.94
   -2   14   14     -0.60      0.66
    3   13   14     -0.10      0.24
    3   11   14     -1.03      0.79
    3    9   14      0.47     -1.29
    3    7   14     -1.49      1.84
    3    5   14      0.20     -3.22
    3    3   14     -3.02      0.45
   -3    5   14     -1.73     -0.51
   -3    7   14     -1.50     -2.02
   -3    9   14     -2.01      1.52
   -3   11   14      2.08      3.61
   -3   13   14     -0.73     -1.53
    4   14   14     -2.27      0.83
    4   12   14     -0.99      1.82
    4   10   14      1.93      2.88
    4    8   14     -0.53      2.77
    4    6   14     -1.57      0.67
    4    4   14     -2.30      3.82
   -4    6   14     -1.69     -1.22
   -4    8   14     -3.22      1.97
   -4   10   14      1.19      3.60
   -4   12   14     -3.25      0.77
   -4   14   14      0.45     -0.40
    5   13   14      1.66     -0.50
    5   11   14     -0.49      1.80
    5    9   14     -0.59     -2.51
    5    7   14     -0.24      3.55
    5    5   14     -1.72     -2.23
   -5    7   14     -1.45      0.52
   -5    9   14      1.68      0.44
   -5   11   14      0.44     -0.03
   -5   13   14     -1.11     -0.90
    6   12   14     -1.74      1.58
    6   10   14     -3.54      0.91
    6    8   14     -1.87      1.66
    6    6   14     -1.24     -3.46
   -6    8   14     -1.68     -0.42
   -6   10   14     -0.37      0.40
   -6   12   14      2.10     -0.93
    7   11   14     -1.26      3.92
    7    9   14      0.51      0.17
    7    7   14     -1.21      3.93
   -7    9   14     -1.02     -1.00
   -7   11   14     -1.98      0.31
    8   12   14     -1.75     -0.55
    8   10   14      0.14     -2.52
    8    8   14     -1.16      2.29
   -8   10   14     -0.01      0.41
   -8   12   14     -1.38     -0.76
    9   11   14     -1.67     -0.15
    9    9   14      0.61      0.13
   -9   11   14     -0.38      0.07
   10   10   14     -1.79      1.49
    0    1   15     -0.06      1.95
    0    3   15     -2.48      0.35
    0    5   15     -2.35     -3.07
    0    7   15      0.44      2.56
    0    9   15     -4.54     -0.66
    0   11   15      2.30     -0.78
    0   13   15      0.03     -5.02
    1   14   15      0.09      0.03
    1   12   15     -0.94      0.87
    1   10   15      1.56     -5.75
    1    8   15      0.85     -2.01
    1    6   15     -1.33     -0.61
    1    4   15      2.73     -3.26
    1    2   15     -3.01      1.07
   -1    2   15     -4.22      1.32
   -1    4   15      2.37      0.75
   -1    6   15     -2.73      0.47
   -1    8   15     -0.39      1.10
   -1   10   15      0.88     -0.97
   -1   12   15     -1.35      1.26
   -1   14   15      1.67     -1.20
    2   13   15     -3.87     -1.51
    2   11   15     -0.03      1.56
    2    9   15     -2.36     -1.62
    2    7   15      1.30     -1.60
    2    5   15      1.45     -0.71
    2    3   15     -1.84      2.27
   -2    3   15     -3.02      0.75
   -2    5   15      2.77     -4.48
   -2    7   15     -0.26     -0.51
   -2    9   15     -1.97     -0.55
   -2   11   15     -1.74      3.27
   -2   13   15     -0.09      0.00
    3   12   15      2.30      3.10
    3   10   15     -1.31      1.76
    3    8   15     -1.33      1.22
    3    6   15     -1.52      0.59
    3    4   15     -0.35     -1.63
   -3    4   15     -0.29      3.02
   -3    6   15     -0.42     -0.65
   -3    8   15     -0.38     -0.99
   -3   10   15     -0.67      1.00
   -3   12   15      0.15      1.11
    4   13   15      0.62     -0.80
    4   11   15      2.02      1.04
    4    9   15     -0.97      0.15
    4    7   15      1.46     -2.03
    4    5   15      2.20     -1.13
   -4    5   15      2.46      1.14
   -4    7   15     -0.88     -0.54
   -4    9   15      0.83      0.24
   -4   11   15      0.60     -0.20
   -4   13   15      1.76     -1.01
    5   12   15     -1.14     -0.25
    5   10   15      0.41     -2.55
    5    8   15      2.23      0.88
    5    6   15     -0.19     -1.07
   -5    6   15     -0.23     -1.21
   -5    8   15     -0.82     -0.48
   -5   10   15      0.37      0.88
   -5   12   15     -0.83     -2.01
    6   11   15     -0.45      0.87
    6    9   15      0.07      2.07
    6    7   15     -0.62      1.60
   -6    7   15      0.23      1.37
   -6    9   15      0.72     -0.81
   -6   11   15     -0.59     -0.22
    7   12   15      1.65      0.16
    7   10   15     -2.19     -0.29
    7    8   15      0.84      3.35
   -7    8   15      0.91     -0.63
   -7   10   15      0.71     -0.57
   -7   12   15      1.51     -1.48
    8   11   15     -0.56     -1.03
    8    9   15      0.52      1.28
   -8    9   15     -2.15      1.24
   -8   11   15     -0.09     -1.37
    9   10   15     -2.74      1.16
   -9   10   15     -0.78     -0.22
    0    0   16     -3.82      0.01
    0    2   16      0.81     -1.84
    0    4   16     -0.64     -2.07
    0    6   16      1.52     -3.03
    0    8   16      3.15     -2.83
    0   10   16      1.54     -4.59
    0   12   16     -1.67     -1.34
    1   13   16     -3.19     -3.00
    1   11   16     -2.62     -1.57
    1    9   16     -0.71     -0.93
    1    7   16     -2.70     -1.41
    1    5   16      0.59      3.42
    1    3   16     -1.13     -0.54
    1    1   16      1.06      4.35
   -1    3   16     -3.55     -3.94
   -1    5   16      1.38     -1.23
   -1    7   16     -1.71     -5.61
   -1    9   16     -0.33     -1.92
   -1   11   16     -1.03      0.44
   -1   13   16      0.37     -0.22
    2   12   16      2.46      1.97
    2   10   16     -1.34      2.50
    2    8   16     -0.72      0.55
    2    6   16     -0.89     -2.51
    2    4   16     -3.41     -0.29
    2    2   16      4.36     -0.66
   -2    4   16      1.62     -1.20
   -2    6   16      1.09     -2.50
   -2    8   16      0.12      2.55
   -2   10   16     -2.91      0.51
   -2   12   16     -1.07     -0.06
    3   11   16      1.80     -2.13
    3    9   16     -0.72     -0.47
    3    7   16      2.54     -1.58
    3    5   16      3.20      0.35
    3    3   16      0.21     -3.49
   -3    5   16      2.96      2.28
   -3    7   16     -0.61     -0.47
   -3    9   16      1.17     -1.40
   -3   11   16      0.82     -1.59
    4   12   16     -1.64      0.77
    4   10   16     -2.54      0.21
    4    8   16     -1.51     -2.59
    4    6   16      0.97     -1.49
    4    4   16     -0.89     -0.16
   -4    6   16      1.38      0.05
   -4    8   16      3.30     -1.25
   -4   10   16     -4.46     -3.57
   -4   12   16      3.40      0.45
    5   11   16      3.69     -3.65
    5    9   16      1.33      2.23
    5    7   16      2.52     -3.32
    5    5   16      1.01     -0.43
   -5    7   16      1.20     -3.98
   -5    9   16     -0.74     -0.11
   -5   11   16      1.65     -1.40
    6   10   16      2.48     -1.44
    6    8   16      0.28     -1.46
    6    6   16     -0.35      1.44
   -6    8   16      0.68      1.96
   -6   10   16     -1.73     -0.20
    7   11   16      1.51     -2.24
    7    9   16     -1.64      3.30
    7    7   16      3.25      0.11
   -7    9   16      1.73      0.09
   -7   11   16      2.24     -2.71
    8   10   16      0.47      2.36
    8    8   16      1.00     -1.48
   -8   10   16     -0.99     -0.62
    9    9   16     -2.16     -1.45
    0    1   17      1.51      3.24
    0    3   17      1.12     -2.49
    0    5   17      0.22      2.58
    0    7   17     -2.42     -5.29
    0    9   17      2.50      2.68
    0   11   17     -2.00     -2.46
    1   12   17      2.70      2.36
    1   10   17     -3.03      4.95
    1    8   17      1.37     -0.38
    1    6   17     -1.90     -0.10
    1    4   17      0.34      0.39
    1    2   17     -0.35     -2.48
   -1    2   17      2.31     -2.19
   -1    4   17      1.10      0.84
   -1    6   17      2.22     -0.85
   -1    8   17      3.82     -7.49
   -1   10   17     -2.51     -1.06
   -1   12   17      1.49     -1.15
    2   11   17     -1.08     -3.07
    2    9   17      2.06      2.34
    2    7   17      0.11     -2.28
    2    5   17     -0.33      1.76
    2    3   17     -0.63     -4.51
   -2    3   17      1.67     -5.13
   -2    5   17     -1.75     -0.06
   -2    7   17      0.08     -1.14
   -2    9   17      0.79      1.82
   -2   11   17      2.77     -5.11
    3   12   17      1.89     -2.98
    3   10   17      0.09     -3.22
    3    8   17     -0.06     -0.73
    3    6   17     -3.17     -1.20
    3    4   17      1.04     -0.42
   -3    4   17      0.05     -0.26
   -3    6   17     -1.66      2.26
   -3    8   17      0.07     -1.34
   -3   10   17     -0.79      1.05
   -3   12   17      0.15      0.40
    4   11   17     -2.05     -0.65
    4    9   17      3.02     -0.01
    4    7   17     -0.76     -3.02
    4    5   17      1.07      1.50
   -4    5   17      0.89     -1.31
   -4    7   17      2.96      0.30
   -4    9   17     -0.54      0.15
   -4   11   17      0.01     -1.51
    5   10   17     -0.98      0.84
    5    8   17     -0.71      2.08
    5    6   17      1.97     -0.62
   -5    6   17     -0.50     -1.81
   -5    8   17      1.44     -1.72
   -5   10   17     -0.43     -2.05
    6    9   17      1.26     -0.56
    6    7   17     -1.31     -1.94
   -6    7   17      1.16     -0.18
   -6    9   17     -1.44     -0.40
    7   10   17      1.97     -2.92
    7    8   17     -0.75     -2.89
   -7    8   17      0.65      0.94
   -7   10   17      0.71      0.50
    8    9   17      0.85      0.22
   -8    9   17     -0.76     -1.44
    0    0   18      1.85      0.00
    0    2   18      0.89     -1.95
    0    4   18      1.17      2.28
    0    6   18      0.66      0.20
    0    8   18     -1.31      4.02
    0   10   18      1.96      5.11
    1   11   18      0.66     -1.01
    1    9   18     -2.43     -5.29
    1    7   18      1.27      0.91
    1    5   18     -2.77     -2.68
    1    3   18      0.87      1.15
    1    1   18     -1.59     -3.38
   -1    3   18      2.21      1.15
   -1    5   18     -1.93      2.08
   -1    7   18      1.19      2.68
   -1    9   18     -1.06     -0.65
   -1   11   18      0.57      2.23
    2   10   18      3.10      2.30
    2    8   18     -1.66     -1.38
    2    6   18      0.24     -0.90
    2    4   18      2.38      1.25
    2    2   18     -1.12     -2.91
   -2    4   18     -0.81      1.14
   -2    6   18     -0.51      0.44
   -2    8   18     -0.57      0.61
   -2   10   18      1.84     -1.42
    3   11   18     -1.30      0.79
    3    9   18      2.48      0.73
    3    7   18      2.08      5.42
    3    5   18     -1.02     -1.11
    3    3   18      2.24      4.95
   -3    5   18     -1.44     -0.80
   -3    7   18      1.56     -3.66
   -3    9   18      0.99     -2.34
   -3   11   18      0.12      0.89
    4   10   18      1.76      0.88
    4    8   18     -2.04     -1.77
    4    6   18     -2.19      1.53
    4    4   18     -1.73      2.55
   -4    6   18      0.64     -0.93
   -4    8   18     -2.34      2.19
   -4   10   18      2.81      2.00
    5    9   18     -0.07     -2.96
    5    7   18     -1.34      3.45
    5    5   18     -0.07     -2.97
   -5    7   18     -0.48      3.14
   -5    9   18      2.97     -0.51
    6    8   18     -0.39     -1.18
    6    6   18      2.08     -0.19
   -6    8   18     -3.08     -0.92
    7    9   18      0.09     -2.70
    7    7   18     -1.43      1.43
   -7    9   18      0.31     -0.54
    8    8   18     -0.15      0.41
    0    1   19     -0.11      0.51
    0    3   19      1.73      1.36
    0    5   19     -0.82     -2.38
    0    7   19     -1.39      4.06
    0    9   19     -2.01      0.69
    1   10   19      0.72     -0.67
    1    8   19     -0.88      3.05
    1    6   19      1.64      2.55
    1    4   19     -0.25      0.02
    1    2   19     -0.91      1.79
   -1    2   19     -2.94      2.33
   -1    4   19      0.05      3.13
   -1    6   19     -0.26      1.87
   -1    8   19     -2.25      2.87
   -1   10   19      1.21      0.99
    2    9   19      1.45     -0.28
    2    7   19      1.89     -0.11
    2    5   19      1.81      4.38
    2    3   19     -0.19      4.73
   -2    3   19     -1.00      0.80
   -2    5   19      0.58     -2.97
   -2    7   19      0.34      1.90
   -2    9   19      2.19      0.99
    3    8   19     -0.45      1.00
    3    6   19      0.15     -0.51
    3    4   19      0.77     -1.57
   -3    4   19     -0.47      3.01
   -3    6   19      0.48     -0.62
   -3    8   19      0.64      0.10
    4    9   19     -1.98      1.34
    4    7   19      0.78     -0.66
    4    5   19     -1.23      2.96
   -4    5   19      0.62      0.20
   -4    7   19     -1.75      1.44
   -4    9   19      0.28      0.40
    5    8   19      0.89      2.03
    5    6   19     -0.79      4.02
   -5    6   19     -0.62     -0.13
   -5    8   19     -0.46     -0.95
    6    7   19      0.69     -2.49
   -6    7   19     -0.02      1.36
    0    0   20     -8.03      0.00
    0    2   20     -1.49      0.24
    0    4   20     -0.32      0.96
    0    6   20      0.06      2.55
    0    8   20      1.46      1.99
    1    7   20      1.19      2.30
    1    5   20      2.68     -0.98
    1    3   20     -1.78      2.86
    1    1   20      4.62      4.14
   -1    3   20     -2.32      1.03
   -1    5   20      0.69     -2.13
   -1    7   20     -0.07      0.43
    2    8   20     -0.97      0.68
    2    6   20     -0.38      0.13
    2    4   20     -1.26      2.29
    2    2   20      2.44      0.70
   -2    4   20      0.55      1.49
   -2    6   20      0.00      2.34
   -2    8   20     -1.25      2.05
    3    7   20     -0.13      4.17
    3    5   20      0.81     -0.58
    3    3   20     -3.29     -1.42
   -3    5   20      0.31     -1.03
   -3    7   20      2.01      0.22
    4    8   20      1.82     -0.19
    4    6   20      3.16     -0.52
    4    4   20      2.22      2.88
   -4    6   20     -1.21     -0.28
   -4    8   20     -1.42      1.10
    5    7   20     -0.35      0.29
    5    5   20     -1.94     -2.56
   -5    7   20      2.62     -0.84
    6    6   20     -1.17      1.04
    0    1   21      3.26      2.05
    0    3   21      1.39     -0.92
    0    5   21      1.11      2.54
    0    7   21      1.21     -2.55
    1    6   21      0.06      0.41
    1    4   21      0.64     -1.63
    1    2   21      0.64      1.51
   -1    2   21     -0.39      0.86
   -1    4   21     -1.12     -0.48
   -1    6   21      0.98      0.77
    2    5   21     -1.28      0.56
    2    3   21     -0.25     -2.74
   -2    3   21      1.59     -4.04
   -2    5   21     -0.58     -0.50
    3    6   21     -0.23      1.20
    3    4   21     -0.92     -2.26
   -3    4   21      0.33     -1.29
   -3    6   21     -0.23      1.91
    4    5   21      0.81      0.43
   -4    5   21      0.35      0.52
    0    0   22      0.71      0.00
    0    2   22     -0.53     -3.59
    0    4   22     -1.19     -1.60
    1    3   22      2.54     -1.23
    1    1   22      2.24     -2.55
   -1    3   22      2.11     -0.32
    2    4   22      2.76      0.69
    2    2   22      0.80     -0.66
   -2    4   22      2.10      0.31
    3    3   22      0.24     -1.22
    1    1    0    -41.85      0.01
    0    2    0     28.27      0.00
  -10   16    0     -0.50      0.00
   10   16    0      0.16      0.00
   -6   18    0      0.39      0.01
    6   18    0      0.99      0.00
    0    1    1     -9.50     -8.22
   -8   17    1      0.83     -0.50
    8   17    1     -0.37     -0.23
   -5   18    1     -0.69      0.48
    5   18    1     -0.17     -0.41
    0    0    2   -133.14     -0.01
    1    1    2    -38.24      0.18
  -10   16    2      0.33     -0.26
   10   16    2     -0.48      0.61
   -8   17    3     -0.13     -0.90
    8   17    3      1.48      0.33
   -5   18    3      0.47     -0.51
    5   18    3      0.49     -0.39
  -12   14    4      1.27     -0.61
   12   14    4     -0.24     -0.13
  -11   15    4      0.24     -0.01
   11   15    4      1.73      0.70
   -4   18    4     -0.13      0.65
    4   18    4     -0.52      0.18
   -9   16    5      0.20     -0.10
    9   16    5      0.41      0.78
   -3   18    5     -0.20     -0.52
    3   18    5     -0.14     -0.15
   -2   18    6     -0.80     -0.12
    2   18    6     -0.24      0.29
  -11   14    7     -1.09     -0.31
   11   14    7     -0.70      0.15
  -10   15    7     -1.54     -0.03
   10   15    7     -0.37      0.88
   -6   17    7     -0.18      0.05
    6   17    7     -0.60     -0.53
   -1   18    7      0.63     -0.26
    1   18    7     -0.21     -0.36
   -9   15    8     -0.16      0.70
    9   15    8      0.64      0.23
   -5   17    8      0.47      0.20
    5   17    8      0.12     -0.58
   -7   16    9      0.87      0.20
    7   16    9      0.19      0.38
   -4   17    9      0.60      0.70
    4   17    9      0.00     -0.02
   12   12   10      0.04     -0.48
  -11   13   10      0.67      0.27
   11   13   10      0.24      0.17
   -6   16   10     -0.07      0.02
    6   16   10      0.47     -0.51
   -1   17   10      1.21      0.18
    1   17   10     -0.60      0.23
  -10   13   11      0.41      0.30
   10   13   11      0.25     -0.71
   -9   14   11      0.37      0.11
    9   14   11      0.55     -0.69
   -8   14   12      0.26     -0.37
    8   14   12      0.29     -1.00
   -2   16   12      1.19     -0.95
    0   16   12     -0.07      0.42
    2   16   12     -0.18      0.16
   -7   14   13     -1.41     -0.71
    7   14   13     -0.12     -0.88
   -4   15   13     -1.89     -0.81
    4   15   13     -1.08     -0.04
   -7   13   14     -1.21     -0.55
    7   13   14      1.61     -0.17
   -1   15   14      0.00     -0.36
    1   15   14     -0.19      0.08
   -6   13   15      0.22      1.24
    6   13   15      0.41      0.48
   -3   14   15     -0.22      0.43
    3   14   15      0.14     -0.62
   -6   12   16     -0.06      0.89
    6   12   16     -1.01     -0.58
   -3   13   16     -0.06     -0.07
    3   13   16     -0.18     -0.27
   -6   11   17      0.72      0.00
    6   11   17      0.26      0.00
   -6   10   18     -1.15      0.29
    6   10   18     -1.45      1.37
   -7    8   19     -0.54     -0.04
    7    8   19     -0.18      1.13
   -6    9   19      1.31      0.66
    6    9   19     -0.68      0.39
   -3   10   19     -0.15      0.50
    3   10   19     -0.67     -0.27
   -3    9   20      0.12      0.34
   -1    9   20     -1.05     -0.19
    1    9   20      1.15     -0.06
    3    9   20     -1.27     -0.62
   -5    6   21     -0.23     -0.15
    5    6   21      0.57     -0.35
   -2    7   21     -0.82     -0.15
    2    7   21     -0.97     -0.11
    4    4   22     -0.21     -0.37
   -3    5   22     -0.73      0.57
   -1    5   22      0.12     -0.34
    1    5   22     -0.95      0.31
    3    5   22     -2.78     -1.11
    0    0    0      0.00      0.00

loop_
  _platon_squeeze_void_nr
  _platon_squeeze_void_average_x
  _platon_squeeze_void_average_y
  _platon_squeeze_void_average_z
  _platon_squeeze_void_volume
  _platon_squeeze_void_count_electrons
  _platon_squeeze_void_content
   1 -0.046 -0.024  0.193      2976       405 ' 7 DEF '
_platon_squeeze_details

All attempts to locate highly disordered solvent molecules failed.
The electron density for these highly disordered solvent molecules 
had been removed with the SQUEEZE routine implemented in PLATON.

From the squeeze electron count we suggest to remove the electron 
density of 7 poorly defined and diffuse oriented DEF (N,N-diethylformamide)
 molecules (7 x 56 = 392 electrons) from the unit cell. This value 
corresponds well with the estimated "squeezed" electron density of 
405 electrons. A volume of 425 A3 for one DEF molecule (Approximately 
60 A3 for each non-hydrogen atom) is acceptable for extremely loosely 
packed and disordered solvent molecules. 

(replace by semicolon in column 1 when used as .sqf)
TITL shelx     I -4         R = 0.11
CELL   15.6925   15.6925   19.1379     90.00     90.00     90.00
SPGR I-4
C101 0.997 0.686 0.393 !       1.58 eA-3
C102 0.997 0.725 0.351 !       1.41 eA-3
C103 0.955 1.000 0.172 !       1.31 eA-3
Q104 0.500 0.498 0.047 !       1.27 eA-3
Q105 0.500 0.513 0.313 !       1.07 eA-3
C106 0.983 0.631 0.439 !       1.02 eA-3
C107 0.298 1.003 0.389 !       1.01 eA-3
Q108 1.000 0.996 0.406 !       0.97 eA-3
C109 0.985 0.203 0.203 !       0.92 eA-3
C110 0.466 0.749 0.203 !       0.91 eA-3
C111 0.330 0.020 0.165 !       0.90 eA-3
C112 0.998 0.896 0.216 !       0.89 eA-3
Q113 0.095 0.903 0.470 !       0.87 eA-3
Q114 0.406 0.600 0.031 !       0.85 eA-3
C115 0.820 0.496 0.277 !       0.82 eA-3
C116 0.954 0.281 0.274 !       0.79 eA-3
C117 0.922 0.741 0.265 !       0.79 eA-3
C118 0.747 0.534 0.250 !       0.75 eA-3
C119 0.558 0.234 0.219 !       0.75 eA-3
C120 0.642 0.531 0.313 !       0.72 eA-3
C121 0.028 0.297 0.174 !       0.71 eA-3
C122 0.034 0.638 0.470 !       0.70 eA-3
C123 0.737 0.472 0.268 !       0.70 eA-3
C124 0.626 0.267 0.222 !       0.70 eA-3
C125 0.492 0.159 0.269 !       0.70 eA-3
C126 0.821 0.501 0.324 !       0.69 eA-3
C127 0.463 0.800 0.232 !       0.69 eA-3
C128 0.312 0.027 0.239 !       0.68 eA-3
C129 0.253 0.976 0.315 !       0.68 eA-3
C130 0.012 0.260 0.187 !       0.68 eA-3
Q131 0.585 0.599 0.080 !       0.67 eA-3
C132 0.030 0.263 0.281 !       0.67 eA-3
C133 0.594 0.810 0.263 !       0.67 eA-3
C134 0.285 0.935 0.286 !       0.66 eA-3
C135 0.550 0.747 0.239 !       0.66 eA-3
Q136 0.595 0.569 0.099 !       0.65 eA-3
C137 0.314 0.663 0.248 !       0.65 eA-3
C138 0.781 0.996 0.174 !       0.64 eA-3
Q139 0.924 0.994 0.216 !       0.63 eA-3
C140 0.204 0.467 0.331 !       0.63 eA-3
Q141 0.916 0.913 0.405 !       0.63 eA-3
C142 0.702 0.179 0.202 !       0.63 eA-3
Q143 1.000 0.997 0.031 !       0.62 eA-3
Q144 0.515 0.766 0.014 !       0.60 eA-3
C145 0.795 0.887 0.260 !       0.60 eA-3
Q146 0.035 0.757 0.469 !       0.60 eA-3
C147 0.145 0.834 0.240 !       0.59 eA-3
Q148 0.957 0.765 0.466 !       0.58 eA-3
Q149 0.457 0.265 0.966 !       0.58 eA-3
C150 0.783 0.851 0.231 !       0.57 eA-3
Q151 0.670 0.783 0.457 !       0.57 eA-3
C152 0.591 0.488 0.342 !       0.56 eA-3
C153 0.735 0.145 0.262 !       0.56 eA-3
Q154 0.728 0.657 0.481 !       0.56 eA-3
Q155 0.087 0.702 0.464 !       0.56 eA-3
C156 0.280 0.594 0.250 !       0.55 eA-3
Q157 0.211 0.667 0.452 !       0.54 eA-3
C158 0.675 0.973 0.486 !       0.54 eA-3
Q159 0.578 0.151 0.079 !       0.54 eA-3
C160 0.452 0.497 0.359 !       0.53 eA-3
C161 0.709 0.874 0.242 !       0.52 eA-3
(replace by semicolon in column 1 when used as .sqf)
;
_shelx_fab_checksum              84921
#END Tags that were not found in dictionaries
loop_
_space_group_symop_operation_xyz
'x, y, z'
'-x, -y, z'
'y, -x, -z'
'-y, x, -z'
'x+1/2, y+1/2, z+1/2'
'-x+1/2, -y+1/2, z+1/2'
'y+1/2, -x+1/2, -z+1/2'
'-y+1/2, x+1/2, -z+1/2'
loop_
_atom_site_label
_atom_site_type_symbol
_atom_site_fract_x
_atom_site_fract_y
_atom_site_fract_z
_atom_site_U_iso_or_equiv
_atom_site_adp_type
_atom_site_occupancy
_atom_site_site_symmetry_order
_atom_site_calc_flag
_atom_site_refinement_flags_posn
_atom_site_refinement_flags_adp
_atom_site_refinement_flags_occupancy
_atom_site_disorder_assembly
_atom_site_disorder_group
Zn1 Zn 0.5000 0.5000 0.07550(4) 0.0374(3) Uani 1 2 d S T P . .
O1 O 0.3973(9) 0.4207(9) 0.0539(9) 0.056(3) Uani 0.5 1 d D . P . .
O2 O 0.4240(8) 0.3992(7) -0.0590(8) 0.044(3) Uani 0.5 1 d D . P . .
O3 O -0.3961(8) 0.4227(9) -0.0564(9) 0.056(3) Uani 0.5 1 d D . P . .
O4 O -0.4241(8) 0.3979(7) 0.0575(9) 0.044(3) Uani 0.5 1 d D . P . .
O5 O 0.5000 0.5000 0.1767(3) 0.090(2) Uani 1 2 d S T P . .
H1O5 H 0.4604 0.5435 0.1938 0.135 Uiso 0.3333 1 calc R U P . .
H2O5 H 0.5575 0.5125 0.1938 0.135 Uiso 0.3333 1 calc R U P . .
H3O5 H 0.4821 0.4439 0.1938 0.135 Uiso 0.3333 1 calc R U P . .
C1 C 0.3790(8) 0.3920(8) -0.0070(7) 0.0490(19) Uiso 0.5 1 d D . P . .
C2 C 0.3014(6) 0.3354(6) -0.0076(7) 0.042(3) Uiso 0.5 1 d D . P . .
C3 C 0.2481(8) 0.3327(9) -0.0633(6) 0.069(4) Uiso 0.5 1 d D . P . .
H3 H 0.2604 0.3665 -0.1033 0.083 Uiso 0.5 1 calc R U P . .
C4 C 0.1768(8) 0.2823(8) -0.0630(7) 0.074(5) Uiso 0.5 1 d D . P . .
H4 H 0.1398 0.2827 -0.1023 0.088 Uiso 0.5 1 calc R U P . .
C5 C 0.1582(6) 0.2315(6) -0.0072(7) 0.044(3) Uiso 0.5 1 d D . P . .
C6 C 0.2128(8) 0.2334(8) 0.0503(7) 0.058(4) Uiso 0.5 1 d D . P . .
H6 H 0.2014 0.1983 0.0896 0.070 Uiso 0.5 1 calc R U P . .
C7 C 0.2826(9) 0.2856(9) 0.0502(7) 0.067(8) Uiso 0.5 1 d D . P . .
H7 H 0.3184 0.2878 0.0902 0.081 Uiso 0.5 1 calc R U P . .
C8 C 0.0783(5) 0.1798(5) -0.0113(6) 0.035(3) Uiso 0.5 1 d D . P . .
C9 C 0.0002(5) 0.2235(5) -0.0133(5) 0.033(3) Uiso 0.5 1 d D . P . .
H9 H 0.0002 0.2839 -0.0166 0.040 Uiso 0.5 1 calc R U P . .
C10 C -0.0772(5) 0.1802(5) -0.0105(5) 0.035(3) Uiso 0.5 1 d D . P . .
C11 C -0.0789(6) 0.0901(6) -0.0082(8) 0.0265(16) Uiso 0.5 1 d D . P . .
C12 C -0.0001(6) 0.0451(4) -0.0090(5) 0.033(2) Uiso 0.5 1 d D . P . .
C13 C 0.0786(6) 0.0898(6) -0.0111(7) 0.0265(16) Uiso 0.5 1 d D . P . .
C14 C 0.1572(7) 0.0438(7) -0.0096(7) 0.041(3) Uiso 0.5 1 d . . P . .
H14 H 0.2095 0.0742 -0.0090 0.049 Uiso 0.5 1 calc R U P . .
C15 C 0.1580(6) -0.0435(6) -0.0090(7) 0.039(3) Uiso 0.5 1 d . . P . .
H15 H 0.2107 -0.0733 -0.0090 0.047 Uiso 0.5 1 calc R U P . .
C16 C -0.1585(6) 0.2314(6) -0.0071(7) 0.044(3) Uiso 0.5 1 d D . P . .
C17 C -0.2115(8) 0.2308(8) 0.0513(6) 0.052(4) Uiso 0.5 1 d D . P . .
H17 H -0.1994 0.1936 0.0892 0.063 Uiso 0.5 1 calc R U P . .
C18 C -0.2815(7) 0.2838(8) 0.0545(6) 0.041(5) Uiso 0.5 1 d D . P . .
H18 H -0.3158 0.2855 0.0953 0.049 Uiso 0.5 1 calc R U P . .
C19 C -0.3015(6) 0.3351(6) -0.0030(8) 0.046(2) Uiso 0.5 1 d D . P . .
C20 C -0.2496(8) 0.3344(9) -0.0613(6) 0.072(5) Uiso 0.5 1 d D . P . .
H20 H -0.2638 0.3680 -0.1009 0.086 Uiso 0.5 1 calc R U P . .
C21 C -0.1770(8) 0.2846(8) -0.0619(6) 0.070(4) Uiso 0.5 1 d D . P . .
H21 H -0.1393 0.2874 -0.1007 0.084 Uiso 0.5 1 calc R U P . .
C22 C -0.3789(7) 0.3912(7) 0.0014(8) 0.0490(19) Uiso 0.5 1 d D . P . .
loop_
_atom_site_aniso_label
_atom_site_aniso_U_11
_atom_site_aniso_U_22
_atom_site_aniso_U_33
_atom_site_aniso_U_23
_atom_site_aniso_U_13
_atom_site_aniso_U_12
Zn1 0.0256(9) 0.0266(10) 0.0601(5) 0.000 0.000 -0.0012(8)
O1 0.037(7) 0.043(7) 0.087(9) 0.014(6) 0.003(3) 0.009(5)
O2 0.036(6) 0.023(5) 0.072(8) -0.006(5) -0.011(3) 0.007(4)
O3 0.037(7) 0.043(7) 0.087(9) 0.014(6) 0.003(3) 0.009(5)
O4 0.036(6) 0.023(5) 0.072(8) -0.006(5) -0.011(3) 0.007(4)
O5 0.087(11) 0.118(13) 0.065(4) 0.000 0.000 0.031(12)
loop_
_atom_type_symbol
_atom_type_description
_atom_type_scat_dispersion_real
_atom_type_scat_dispersion_imag
_atom_type_scat_source
Zn Zn 0.2839 1.4301 'International Tables Vol C Tables 4.2.6.8 and 6.1.1.4'
O O 0.0106 0.0060 'International Tables Vol C Tables 4.2.6.8 and 6.1.1.4'
N N 0.0061 0.0033 'International Tables Vol C Tables 4.2.6.8 and 6.1.1.4'
C C 0.0033 0.0016 'International Tables Vol C Tables 4.2.6.8 and 6.1.1.4'
H H 0.0000 0.0000 'International Tables Vol C Tables 4.2.6.8 and 6.1.1.4'
loop_
_geom_angle_atom_site_label_1
_geom_angle_atom_site_label_2
_geom_angle_atom_site_label_3
_geom_angle
_geom_angle_site_symmetry_1
_geom_angle_site_symmetry_3
O5 Zn1 O2 99.0(5) . 3_565
O5 Zn1 O2 99.0(5) . 4_655
O2 Zn1 O2 161.9(9) 3_565 4_655
O5 Zn1 O4 99.8(5) . 1_655
O2 Zn1 O4 155.1(5) 3_565 1_655
O2 Zn1 O4 16.1(5) 4_655 1_655
O5 Zn1 O4 99.8(5) . 2_565
O2 Zn1 O4 16.1(5) 3_565 2_565
O2 Zn1 O4 155.1(5) 4_655 2_565
O4 Zn1 O4 160.4(9) 1_655 2_565
O5 Zn1 O3 100.2(5) . 3
O2 Zn1 O3 88.8(7) 3_565 3
O2 Zn1 O3 88.0(7) 4_655 3
O4 Zn1 O3 72.0(6) 1_655 3
O4 Zn1 O3 104.4(5) 2_565 3
O5 Zn1 O3 100.2(5) . 4_665
O2 Zn1 O3 88.0(7) 3_565 4_665
O2 Zn1 O3 88.8(7) 4_655 4_665
O4 Zn1 O3 104.4(5) 1_655 4_665
O4 Zn1 O3 72.0(6) 2_565 4_665
O3 Zn1 O3 159.6(10) 3 4_665
O5 Zn1 O1 101.5(5) . 2_665
O2 Zn1 O1 103.0(4) 3_565 2_665
O2 Zn1 O1 73.3(5) 4_655 2_665
O4 Zn1 O1 89.1(7) 1_655 2_665
O4 Zn1 O1 87.1(7) 2_565 2_665
O3 Zn1 O1 153.3(5) 3 2_665
O3 Zn1 O1 15.5(5) 4_665 2_665
O5 Zn1 O1 101.5(5) . .
O2 Zn1 O1 73.3(5) 3_565 .
O2 Zn1 O1 103.0(4) 4_655 .
O4 Zn1 O1 87.1(7) 1_655 .
O4 Zn1 O1 89.1(7) 2_565 .
O3 Zn1 O1 15.5(5) 3 .
O3 Zn1 O1 153.3(5) 4_665 .
O1 Zn1 O1 157.0(10) 2_665 .
O5 Zn1 Zn1 180.0 . 3_565
O2 Zn1 Zn1 81.0(5) 3_565 3_565
O2 Zn1 Zn1 81.0(5) 4_655 3_565
O4 Zn1 Zn1 80.2(5) 1_655 3_565
O4 Zn1 Zn1 80.2(5) 2_565 3_565
O3 Zn1 Zn1 79.8(5) 3 3_565
O3 Zn1 Zn1 79.8(5) 4_665 3_565
O1 Zn1 Zn1 78.5(5) 2_665 3_565
O1 Zn1 Zn1 78.5(5) . 3_565
O3 O1 C22 76(3) 3 3
O3 O1 C1 90(3) 3 .
C22 O1 C1 13.6(11) 3 .
O3 O1 Zn1 81(2) 3 .
C22 O1 Zn1 122.9(11) 3 .
C1 O1 Zn1 124.4(12) . .
O4 O2 C1 67(2) 3 .
O4 O2 C22 80(2) 3 3
C1 O2 C22 13.8(12) . 3
O4 O2 Zn1 84.0(19) 3 3_565
C1 O2 Zn1 122.9(10) . 3_565
C22 O2 Zn1 125.6(11) 3 3_565
O1 O3 C22 78(3) 4 .
O1 O3 C1 67(2) 4 4
C22 O3 C1 11.3(11) . 4
O1 O3 Zn1 84(2) 4 3_465
C22 O3 Zn1 124.3(11) . 3_465
C1 O3 Zn1 118.6(10) 4 3_465
O2 O4 C1 86(2) 4 4
O2 O4 C22 74(2) 4 .
C1 O4 C22 12.1(12) 4 .
O2 O4 Zn1 79.9(19) 4 1_455
C1 O4 Zn1 128.0(12) 4 1_455
C22 O4 Zn1 121.9(10) . 1_455
C22 C1 O4 116(4) 3 3
C22 C1 O2 89(4) 3 .
O4 C1 O2 27.4(9) 3 .
C22 C1 O1 77(4) 3 .
O4 C1 O1 124.2(11) 3 .
O2 C1 O1 125.2(14) . .
C22 C1 O3 54(4) 3 3
O4 C1 O3 126.4(13) 3 3
O2 C1 O3 114.7(11) . 3
O1 C1 O3 23.6(9) . 3
C22 C1 C2 97(3) 3 .
O4 C1 C2 117.9(13) 3 .
O2 C1 C2 120.9(11) . .
O1 C1 C2 113.3(11) . .
O3 C1 C2 115.6(11) 3 .
C22 C1 C19 68(3) 3 3
O4 C1 C19 127.9(14) 3 3
O2 C1 C19 115.5(11) . 3
O1 C1 C19 107.6(12) . 3
O3 C1 C19 98.6(11) 3 3
C2 C1 C19 28.9(4) . 3
C19 C2 C18 82.9(13) 3 3
C19 C2 C3 127.2(15) 3 .
C18 C2 C3 44.5(8) 3 .
C19 C2 C7 63.3(13) 3 .
C18 C2 C7 98.2(8) 3 .
C3 C2 C7 118.6(8) . .
C19 C2 C1 81.5(11) 3 .
C18 C2 C1 125.3(10) 3 .
C3 C2 C1 121.6(9) . .
C7 C2 C1 119.8(9) . .
C19 C2 C22 70.6(10) 3 3
C18 C2 C22 122.7(11) 3 3
C3 C2 C22 128.8(11) . 3
C7 C2 C22 112.1(10) . 3
C1 C2 C22 11.0(9) . 3
C19 C2 C20 34.1(11) 3 3
C18 C2 C20 94.3(8) 3 3
C3 C2 C20 132.3(8) . 3
C7 C2 C20 29.5(7) . 3
C1 C2 C20 100.8(8) . 3
C22 C2 C20 90.6(7) 3 3
C2 C3 C4 121.3(9) . .
C2 C3 C17 91.4(8) . 3
C4 C3 C17 47.0(7) . 3
C5 C4 C3 120.9(9) . .
C5 C4 C18 97.6(8) . 3
C3 C4 C18 36.1(7) . 3
C4 C5 C6 118.4(8) . .
C4 C5 C17 60.2(8) . 3
C6 C5 C17 89.0(7) . 3
C4 C5 C8 117.0(10) . .
C6 C5 C8 124.6(10) . .
C17 C5 C8 120.6(10) 3 .
C4 C5 C16 112.9(9) . 3
C6 C5 C16 57.0(7) . 3
C17 C5 C16 53.0(6) 3 3
C8 C5 C16 102.5(7) . 3
C7 C6 C5 120.2(9) . .
C7 C6 C20 29.8(7) . 3
C5 C6 C20 133.9(9) . 3
C7 C6 C17 89.3(8) . 3
C5 C6 C17 46.7(6) . 3
C20 C6 C17 89.4(8) 3 3
C6 C7 C2 120.6(9) . .
C6 C7 C21 54.6(8) . 3
C2 C7 C21 131.1(12) . 3
C6 C7 C18 89.4(8) . 3
C2 C7 C18 38.6(6) . 3
C21 C7 C18 95.6(10) 3 3
C15 C8 C9 66.6(11) 4 .
C15 C8 C13 63.0(11) 4 .
C9 C8 C13 119.4(7) . .
C15 C8 C5 145.8(16) 4 .
C9 C8 C5 118.0(7) . .
C13 C8 C5 122.7(8) . .
C15 C8 C11 61.6(11) 4 3
C9 C8 C11 125.2(8) . 3
C13 C8 C11 14.6(6) . 3
C5 C8 C11 114.7(7) . 3
C15 C8 C14 27.9(10) 4 4
C9 C8 C14 41.6(5) . 4
C13 C8 C14 79.8(6) . 4
C5 C8 C14 153.3(8) . 4
C11 C8 C14 83.7(6) 3 4
C10 C9 C8 121.5(7) . .
C14 C10 C9 69.0(11) 4 .
C14 C10 C11 60.7(11) 4 .
C9 C10 C11 120.3(7) . .
C14 C10 C16 146.3(13) 4 .
C9 C10 C16 118.7(7) . .
C11 C10 C16 120.9(7) . .
C14 C10 C13 59.2(11) 4 4
C9 C10 C13 125.6(8) . 4
C11 C10 C13 14.0(6) . 4
C16 C10 C13 113.6(7) . 4
C14 C10 C15 30.1(11) 4 4
C9 C10 C15 41.5(5) . 4
C11 C10 C15 80.5(6) . 4
C16 C10 C15 154.6(7) . 4
C13 C10 C15 84.1(6) 4 4
C13 C11 C14 107(2) 4 4
C13 C11 C10 116(2) 4 .
C14 C11 C10 31.7(6) 4 .
C13 C11 C12 98(3) 4 .
C14 C11 C12 92.1(8) 4 .
C10 C11 C12 118.6(7) . .
C13 C11 C15 58(2) 4 2
C14 C11 C15 145.0(11) 4 2
C10 C11 C15 121.6(9) . 2
C12 C11 C15 119.8(9) . 2
C13 C11 C12 65(2) 4 4
C14 C11 C12 124.6(10) 4 4
C10 C11 C12 156.1(9) . 4
C12 C11 C12 41.5(6) . 4
C15 C11 C12 80.4(7) 2 4
C13 C11 C8 53(2) 4 4
C14 C11 C8 117.7(9) 4 4
C10 C11 C8 98.0(7) . 4
C12 C11 C8 141.8(9) . 4
C15 C11 C8 27.4(5) 2 4
C12 C11 C8 100.3(8) 4 4
C12 C12 C12 83.9(7) 3 4
C12 C12 C12 48.0(3) 3 2
C12 C12 C12 48.0(3) 4 2
C12 C12 C13 76.0(10) 3 .
C12 C12 C13 157.0(14) 4 .
C12 C12 C13 119.5(10) 2 .
C12 C12 C11 155.4(13) 3 .
C12 C12 C11 75.4(10) 4 .
C12 C12 C11 119.8(10) 2 .
C13 C12 C11 120.7(7) . .
C12 C12 C11 63.1(9) 3 3
C12 C12 C11 140.5(14) 4 3
C12 C12 C11 110.0(9) 2 3
C13 C12 C11 16.6(6) . 3
C11 C12 C11 128.5(6) . 3
C12 C12 C13 138.9(13) 3 4
C12 C12 C13 62.6(9) 4 4
C12 C12 C13 109.8(9) 2 4
C13 C12 C13 129.0(6) . 4
C11 C12 C13 16.5(7) . 4
C11 C12 C13 131.4(9) 3 4
C12 C12 C14 142.2(13) 3 4
C12 C12 C14 108.3(10) 4 4
C12 C12 C14 156.3(9) 2 4
C13 C12 C14 82.2(5) . 4
C11 C12 C14 40.0(5) . 4
C11 C12 C14 88.5(6) 3 4
C13 C12 C14 47.2(5) 4 4
C12 C12 C15 108.6(10) 3 4
C12 C12 C15 142.5(13) 4 4
C12 C12 C15 156.6(9) 2 4
C13 C12 C15 40.9(5) . 4
C11 C12 C15 81.4(5) . 4
C11 C12 C15 47.4(5) 3 4
C13 C12 C15 88.1(6) 4 4
C14 C12 C15 41.7(4) 4 4
C11 C13 C15 104(2) 3 4
C11 C13 C8 113(2) 3 .
C15 C13 C8 32.1(6) 4 .
C11 C13 C12 98(2) 3 .
C15 C13 C12 91.8(8) 4 .
C8 C13 C12 119.4(7) . .
C11 C13 C14 56(2) 3 .
C15 C13 C14 142.9(11) 4 .
C8 C13 C14 120.5(9) . .
C12 C13 C14 120.0(9) . .
C11 C13 C12 65(2) 3 3
C15 C13 C12 123.1(10) 4 3
C8 C13 C12 155.2(9) . 3
C12 C13 C12 41.5(6) . 3
C14 C13 C12 80.1(8) . 3
C11 C13 C10 50(2) 3 3
C15 C13 C10 116.4(9) 4 3
C8 C13 C10 97.1(7) . 3
C12 C13 C10 140.3(9) . 3
C14 C13 C10 26.5(5) . 3
C12 C13 C10 98.9(8) 3 3
C15 C14 C13 120.9(10) . .
C15 C14 C12 69.5(7) . 3
C13 C14 C12 52.7(6) . 3
C15 C14 C8 14.9(6) . 3
C13 C14 C8 130.1(9) . 3
C12 C14 C8 77.4(5) 3 3
C14 C15 C11 120.0(10) . 2
C14 C15 C12 68.8(7) . 3
C11 C15 C12 52.2(6) 2 3
C14 C15 C10 15.8(6) . 3
C11 C15 C10 129.9(8) 2 3
C12 C15 C10 77.7(5) 3 3
C21 C16 C17 119.3(8) . .
C21 C16 C6 61.4(8) . 4
C17 C16 C6 88.4(8) . 4
C21 C16 C10 118.1(9) . .
C17 C16 C10 122.4(9) . .
C6 C16 C10 123.2(9) 4 .
C21 C16 C5 113.9(9) . 4
C17 C16 C5 56.4(7) . 4
C6 C16 C5 52.8(6) 4 4
C10 C16 C5 103.0(7) . 4
C18 C17 C16 120.5(8) . .
C18 C17 C3 29.2(7) . 4
C16 C17 C3 133.0(9) . 4
C18 C17 C6 89.5(8) . 4
C16 C17 C6 47.3(6) . 4
C3 C17 C6 88.1(7) 4 4
C17 C18 C19 119.4(9) . .
C17 C18 C4 53.8(7) . 4
C19 C18 C4 130.3(10) . 4
C17 C18 C7 88.6(8) . 4
C19 C18 C7 38.0(6) . 4
C4 C18 C7 95.0(9) 4 4
C2 C19 C7 83.0(13) 4 4
C2 C19 C20 127.6(16) 4 .
C7 C19 C20 44.9(10) 4 .
C2 C19 C18 63.7(13) 4 .
C7 C19 C18 98.3(8) 4 .
C20 C19 C18 119.9(8) . .
C2 C19 C22 80.2(11) 4 .
C7 C19 C22 126.1(12) 4 .
C20 C19 C22 121.8(10) . .
C18 C19 C22 118.3(9) . .
C2 C19 C1 69.6(10) 4 4
C7 C19 C1 123.4(12) 4 4
C20 C19 C1 128.8(11) . 4
C18 C19 C1 110.8(10) . 4
C22 C19 C1 10.7(9) . 4
C2 C19 C3 34.1(11) 4 4
C7 C19 C3 93.4(9) 4 4
C20 C19 C3 132.5(8) . 4
C18 C19 C3 29.7(7) . 4
C22 C19 C3 99.9(8) . 4
C1 C19 C3 90.0(8) 4 4
C19 C20 C21 119.8(9) . .
C19 C20 C6 89.8(8) . 4
C21 C20 C6 48.4(7) . 4
C19 C20 C2 18.4(5) . 4
C21 C20 C2 115.1(8) . 4
C6 C20 C2 75.9(7) 4 4
C16 C21 C20 120.9(9) . .
C16 C21 C7 95.7(8) . 4
C20 C21 C7 36.1(7) . 4
C1 C22 O3 115(4) 4 .
C1 C22 O1 89(4) 4 4
O3 C22 O1 25.9(10) . 4
C1 C22 O2 77(4) 4 4
O3 C22 O2 124.2(10) . 4
O1 C22 O2 125.3(13) 4 4
C1 C22 O4 52(4) 4 .
O3 C22 O4 126.1(13) . .
O1 C22 O4 114.2(10) 4 .
O2 C22 O4 25.6(8) 4 .
C1 C22 C19 101(3) 4 .
O3 C22 C19 111.0(11) . .
O1 C22 C19 115.0(12) 4 .
O2 C22 C19 119.6(13) 4 .
O4 C22 C19 122.6(11) . .
C1 C22 C2 72(3) 4 4
O3 C22 C2 121.3(13) . 4
O1 C22 C2 111.2(13) 4 4
O2 C22 C2 114.3(13) 4 4
O4 C22 C2 104.4(11) . 4
C19 C22 C2 29.2(5) . 4
loop_
_geom_bond_atom_site_label_1
_geom_bond_atom_site_label_2
_geom_bond_distance
_geom_bond_site_symmetry_2
Zn1 O5 1.937(6) .
Zn1 O2 2.006(12) 3_565
Zn1 O2 2.006(12) 4_655
Zn1 O4 2.026(11) 1_655
Zn1 O4 2.026(11) 2_565
Zn1 O3 2.066(13) 3
Zn1 O3 2.066(13) 4_665
Zn1 O1 2.078(14) 2_665
Zn1 O1 2.078(14) .
Zn1 Zn1 2.8896(16) 3_565
O1 O3 0.56(2) 3
O1 C22 1.25(2) 3
O1 C1 1.281(16) .
O2 O4 0.567(17) 3
O2 C1 1.227(14) .
O2 C22 1.26(2) 3
O2 Zn1 2.006(12) 3_565
O3 O1 0.56(2) 4
O3 C22 1.241(16) .
O3 C1 1.39(2) 4
O3 Zn1 2.065(13) 3_465
O4 O2 0.567(17) 4
O4 C1 1.13(2) 4
O4 C22 1.291(15) .
O4 Zn1 2.026(11) 1_455
C1 C22 0.30(2) 3
C1 O4 1.13(2) 3
C1 O3 1.39(2) 3
C1 C2 1.506(11) .
C1 C19 1.590(15) 3
C2 C19 0.777(11) 3
C2 C18 1.263(15) 3
C2 C3 1.356(13) .
C2 C7 1.387(14) .
C2 C22 1.570(14) 3
C2 C20 1.955(16) 3
C3 C4 1.370(14) .
C3 C17 1.935(18) 3
C4 C5 1.365(14) .
C4 C18 1.688(16) 3
C5 C6 1.393(14) .
C5 C17 1.452(16) 3
C5 C8 1.496(12) .
C5 C16 1.645(12) 3
C6 C7 1.368(14) .
C6 C20 1.937(18) 3
C6 C17 1.994(14) 3
C7 C21 1.720(18) 3
C7 C18 2.005(13) 3
C8 C15 0.753(13) 4
C8 C9 1.404(10) .
C8 C13 1.413(12) .
C8 C11 1.638(14) 3
C8 C14 1.989(13) 4
C9 C10 1.392(10) .
C10 C14 0.744(13) 4
C10 C11 1.415(12) .
C10 C16 1.508(12) .
C10 C13 1.660(14) 4
C10 C15 1.961(13) 4
C11 C13 0.446(16) 4
C11 C14 1.236(13) 4
C11 C12 1.425(11) .
C11 C15 1.441(13) 2
C11 C12 1.547(15) 4
C11 C8 1.638(14) 4
C12 C12 1.059(11) 3
C12 C12 1.059(11) 4
C12 C12 1.416(14) 2
C12 C13 1.419(12) .
C12 C11 1.546(15) 3
C12 C13 1.551(15) 4
C12 C14 1.921(13) 4
C12 C15 1.929(12) 4
C13 C11 0.446(16) 3
C13 C15 1.264(14) 4
C13 C14 1.430(14) .
C13 C12 1.551(15) 3
C13 C10 1.660(14) 3
C14 C15 1.370(14) .
C14 C12 1.921(13) 3
C14 C8 1.989(13) 3
C15 C11 1.441(13) 2
C15 C12 1.929(12) 3
C15 C10 1.961(13) 3
C16 C21 1.371(13) .
C16 C17 1.394(13) .
C16 C6 1.467(16) 4
C16 C5 1.645(12) 4
C17 C18 1.379(13) .
C17 C3 1.935(18) 4
C17 C6 1.994(14) 4
C18 C19 1.399(14) .
C18 C4 1.688(16) 4
C18 C7 2.005(13) 4
C19 C2 0.777(11) 4
C19 C7 1.248(16) 4
C19 C20 1.381(14) .
C19 C22 1.502(11) .
C19 C1 1.590(15) 4
C19 C3 1.927(16) 4
C20 C21 1.382(14) .
C20 C6 1.937(18) 4
C20 C2 1.955(16) 4
C21 C7 1.720(18) 4
C22 C1 0.30(2) 4
C22 O1 1.25(2) 4
C22 O2 1.26(2) 4
C22 C2 1.570(14) 4
