#------------------------------------------------------------------------------
#$Date: 2018-10-05 15:19:55 +0300 (Fri, 05 Oct 2018) $
#$Revision: 211332 $
#$URL: file:///home/coder/svn-repositories/cod/cif/7/11/81/7118127.cif $
#------------------------------------------------------------------------------
#
# This file is available in the Crystallography Open Database (COD),
# http://www.crystallography.net/
#
# All data on this site have been placed in the public domain by the
# contributors.
#
data_7118127
loop_
_publ_author_name
'Siman, Peter'
'Trickett, Christopher A.'
'Furukawa, Hiroyasu'
'Yaghi, Omar M.'
_publ_section_title
;
 l-Aspartate links for stable sodium metal-organic frameworks.
;
_journal_issue                   98
_journal_name_full
'Chemical communications (Cambridge, England)'
_journal_page_first              17463
_journal_page_last               17466
_journal_paper_doi               10.1039/c5cc07578e
_journal_volume                  51
_journal_year                    2015
_chemical_absolute_configuration rm
_chemical_formula_moiety
'C32.5 H32.23 N4 Na8 O23.73, C0.33 O0.75, 0.73(H2 O), 0.25(O), 0.25(C O)'
_chemical_formula_sum            'C33.08 H33.7 N4 Na8 O25.71'
_chemical_formula_weight         1082.58
_chemical_name_common            'MOF-705 after supercritical CO2'
_space_group_crystal_system      monoclinic
_space_group_IT_number           4
_space_group_name_Hall           'P 2yb'
_space_group_name_H-M_alt        'P 1 21 1'
_symmetry_space_group_name_Hall  'P 2yb'
_symmetry_space_group_name_H-M   'P 1 21 1'
_atom_sites_solution_hydrogens   geom
_atom_sites_solution_primary     'intrinsic phasing'
_atom_sites_solution_secondary   difmap
_audit_creation_date             2015-08-18
_audit_creation_method
;
Olex2 1.2
(compiled 2015.01.26 svn.r3150 for OlexSys, GUI svn.r4998)
;
_audit_update_record
;
2015-08-24 deposited with the CCDC.
2015-09-30 downloaded from the CCDC.
;
_cell_angle_alpha                90
_cell_angle_beta                 103.366(6)
_cell_angle_gamma                90
_cell_formula_units_Z            2
_cell_length_a                   24.0448(19)
_cell_length_b                   5.2432(5)
_cell_length_c                   16.9833(14)
_cell_measurement_temperature    100(2)
_cell_volume                     2083.1(3)
_computing_cell_refinement       'SAINT V8.34A Bruker-AXS, Madison WI'
_computing_data_collection       'Bruker APEX2 Bruker-AXS, Madison WI'
_computing_data_reduction        'SAINT V8.34A Bruker-AXS, Madison WI'
_computing_molecular_graphics
;
Bruker SHELXTL Bruker-AXS, Madison WI
Diamond - Crystal and Molecular Structure Visualization
Crystal Impact - Dr. H. Putz & Dr. K. Brandenburg GbR, Kreuzherrenstr. 
102, 53227 Bonn, Germany
http://www.crystalimpact.com/diamond
and local programs
;
_computing_publication_material  'Bruker SHELXTL Bruker-AXS, Madison WI'
_computing_structure_refinement  'SHELXL-2014/7 (Sheldrick, 2013)'
_computing_structure_solution    'SHELXT 2014/4 Bruker-AXS, Madison WI'
_diffrn_ambient_temperature      100(2)
_diffrn_detector_area_resol_mean 10.42
_diffrn_measured_fraction_theta_full 0.998
_diffrn_measured_fraction_theta_max 0.995
_diffrn_measurement_device_type  'Bruker D8 with PHOTON 100 detector'
_diffrn_measurement_method       '\f and \w shutterless scans'
_diffrn_radiation_monochromator  'silicon 111'
_diffrn_radiation_type           synchrotron
_diffrn_radiation_wavelength     0.7749
_diffrn_reflns_av_R_equivalents  0.1078
_diffrn_reflns_av_unetI/netI     0.0978
_diffrn_reflns_Laue_measured_fraction_full 0.998
_diffrn_reflns_Laue_measured_fraction_max 0.995
_diffrn_reflns_limit_h_max       24
_diffrn_reflns_limit_h_min       -24
_diffrn_reflns_limit_k_max       5
_diffrn_reflns_limit_k_min       -5
_diffrn_reflns_limit_l_max       17
_diffrn_reflns_limit_l_min       -17
_diffrn_reflns_number            18857
_diffrn_reflns_point_group_measured_fraction_full 0.994
_diffrn_reflns_point_group_measured_fraction_max 0.987
_diffrn_reflns_theta_full        23.300
_diffrn_reflns_theta_max         23.539
_diffrn_reflns_theta_min         2.568
_diffrn_source
;
Advanced Light Source, station 11.3.1
;
_exptl_absorpt_coefficient_mu    0.266
_exptl_absorpt_correction_T_max  0.997
_exptl_absorpt_correction_T_min  0.781
_exptl_absorpt_correction_type   multi-scan
_exptl_absorpt_process_details   'SADABS-2014/4 (Bruker,2014/4)'
_exptl_crystal_colour            Colorless
_exptl_crystal_density_diffrn    1.726
_exptl_crystal_description       Needle
_exptl_crystal_F_000             1108
_exptl_crystal_size_max          0.03
_exptl_crystal_size_mid          0.01
_exptl_crystal_size_min          0.01
_refine_diff_density_max         0.692
_refine_diff_density_min         -0.346
_refine_diff_density_rms         0.093
_refine_ls_abs_structure_details
;
 Flack x determined using 1129 quotients [(I+)-(I-)]/[(I+)+(I-)]
 (Parsons, Flack and Wagner, Acta Cryst. B69 (2013) 249-259).
;
_refine_ls_abs_structure_Flack   0.1(4)
_refine_ls_extinction_method     none
_refine_ls_goodness_of_fit_ref   1.009
_refine_ls_hydrogen_treatment    constr
_refine_ls_matrix_type           full
_refine_ls_number_parameters     623
_refine_ls_number_reflns         4815
_refine_ls_number_restraints     19
_refine_ls_restrained_S_all      1.007
_refine_ls_R_factor_all          0.1066
_refine_ls_R_factor_gt           0.0684
_refine_ls_shift/su_max          0.000
_refine_ls_shift/su_mean         0.000
_refine_ls_structure_factor_coef Fsqd
_refine_ls_weighting_details
'w=1/[\s^2^(Fo^2^)+(0.1092P)^2^] where P=(Fo^2^+2Fc^2^)/3'
_refine_ls_weighting_scheme      calc
_refine_ls_wR_factor_gt          0.1638
_refine_ls_wR_factor_ref         0.1878
_reflns_Friedel_coverage         0.746
_reflns_Friedel_fraction_full    0.989
_reflns_Friedel_fraction_max     0.977
_reflns_number_gt                3270
_reflns_number_total             4815
_reflns_threshold_expression     'I > 2\s(I)'
_cod_data_source_file            c5cc07578e2.cif
_cod_data_source_block           MOF-705_sc
_cod_original_formula_sum        'C33.08 H33.70 N4 Na8 O25.71'
_cod_database_code               7118127
_shelxl_version_number           2014/6
_shelx_space_group_comment
;
The symmetry employed for this shelxl refinement is uniquely defined
by the following loop, which should always be used as a source of
symmetry information in preference to the above space-group names.
They are only intended as comments.
;
_shelx_estimated_absorpt_t_max   0.997
_shelx_estimated_absorpt_t_min   0.992
_olex2_refinement_description
;
1. Fixed Uiso
 At 1.2 times of:
  All C(H) groups, {H9A,H9B} of O9, {H17A,H17B} of O17, All C(H,H) groups,
  All C(H,H,H) groups, All N(H) groups, All O(H) groups
 At 1.5 times of:
  {H25A,H25B} of O25, {H16A,H16B} of O16
2. Uiso/Uaniso restraints and constraints
Uanis(O6B) = Uanis(O6A)
Uanis(C6) = Uanis(C22)
Uanis(C1) = Uanis(C15) = Uanis(C20) = Uanis(C31)
Uanis(C24) = Uanis(C23) = Uanis(C26) = Uanis(C27)
3. Rigid body (RIGU) restrains
 N3, C21, C22
 with sigma for 1-2 distances of 0.004 and sigma for 1-3 distances of 0.004
 C6, C5, N1
 with sigma for 1-2 distances of 0.004 and sigma for 1-3 distances of 0.004
4. Others
 Sof(O6B)=1-FVAR(1)
 Sof(O6A)=Sof(O25)=Sof(H25A)=Sof(H25B)=Sof(O24)=Sof(H24A)=FVAR(1)
 Fixed Sof: O26(0.75) O27(0.25) C34(0.33333) C33(0.5) H33A(0.5) H33B(0.5)
 H33C(0.5) O28(0.25) C35(0.25)
5.a Free rotating group:
 O25(H25A,H25B)
5.b Rotating group:
 O16(H16A,H16B)
5.c Ternary CH refined with riding coordinates:
 C18(H18), C3(H3A), C13(H13), C29(H29)
5.d Secondary CH2 refined with riding coordinates:
 O9(H9A,H9B), O17(H17A,H17B), C14(H14A,H14B), C19(H19A,H19B), C2(H2A,H2B),
 C30(H30A,H30B)
5.e Me refined with riding coordinates:
 C33(H33A,H33B,H33C)
5.f Aromatic/amide H refined with riding coordinates:
 N3(H3), N1(H1), N2(H2), N4(H4), C11(H11), C27(H27), C23(H23), C10(H10),
 C8(H8), C7(H7), C24(H24), C26(H26)
5.g Tetrahedral OH refined as rotating group:
 O24(H24A)
;
_shelx_res_file
;
TITL SCCO2 Na MOF
CELL 0.7749 24.0448 5.2432 16.9833 90 103.366 90
ZERR 2 0.0019 0.0005 0.0014 0 0.006 0
LATT -1
SYMM -X,0.5+Y,-Z
SFAC C H N O Na
DISP C 0.004 0.002 13.6
DISP N 0.008 0.004 23.92
DISP Na 0.044 0.03 146.17
DISP O 0.013 0.007 40.17
UNIT 66.16 67.4 8 51.42 16
EQIV $1 +X,1+Y,+Z
EQIV $2 +X,-1+Y,+Z
EQIV $3 -1-X,0.5+Y,-1-Z
EQIV $4 +X,2+Y,+Z
EQIV $5 +X,1+Y,-1+Z
EQIV $6 +X,+Y,-1+Z
RIGU N3 C21 C22
RIGU C6 C5 N1
EADP O6B O6A
EADP C6 C22
EADP C1 C15 C20 C31
EADP C24 C23 C26 C27

L.S. 10
PLAN  80
SIZE 0.01 0.01 0.03
TEMP -173.15
HTAB O16 O26_$1
HTAB O16 O27_$1
HTAB O16 O18_$1
HTAB N3 O10_$2
HTAB N1 O23_$2
HTAB N2 O26_$1
HTAB N4 O11_$1
HTAB C14 O22_$1
HTAB C2 O22_$3
HTAB C30 O11_$1
HTAB C30 O6B_$1
HTAB O25 O6A
HTAB O25 O24_$1
HTAB O25 O28_$4
HTAB O17 O4_$5
HTAB O17 O5_$6
HTAB O25 O28_$1
HTAB O24 O28_$1
HTAB C33 O25_$2
HTAB C33 N1
HTAB C33 O5_$2
FREE Na3 C33_$1
FREE Na3 H33c_$1
FREE H33a O6A_$2
FREE H33b Na3_$2
FREE O6A C33_$1
MORE -1
BOND $H
CONF
LIST 4
fmap 2
acta 46.6
MERG 2
REM <olex2.extras>
REM <HklSrc "%.\\SCCO2%20Na%20MOF.hkl">
REM </olex2.extras>

WGHT    0.109200
FVAR       0.50579   0.73239
NA8   5    0.046185   -1.031106   -0.964109    11.00000    0.01912    0.01599 =
         0.02992    0.00069    0.00951    0.00235
NA5   5   -0.081228    0.009326    0.091530    11.00000    0.02579    0.00579 =
         0.03001    0.00269    0.01188    0.00210
NA1   5   -0.546975   -1.573668   -0.040769    11.00000    0.02120    0.01452 =
         0.03565    0.00009    0.01006   -0.00049
NA4   5   -0.193835    0.433680   -0.033948    11.00000    0.02070    0.01124 =
         0.03853   -0.00320    0.01498    0.00234
NA2   5   -0.416727   -0.533126   -0.083862    11.00000    0.02438    0.01144 =
         0.03223   -0.00075    0.00940   -0.00055
NA6   5   -0.305729   -0.084500   -0.965576    11.00000    0.02185    0.01418 =
         0.04042   -0.00221    0.01344   -0.00314
NA7   5   -0.163014   -0.895250   -0.766108    11.00000    0.02305    0.01839 =
         0.03395   -0.00273    0.01156    0.00208
NA3   5   -0.335200   -0.465841   -0.230505    11.00000    0.02047    0.04458 =
         0.04039    0.00547    0.01454   -0.00217
O8    4   -0.118329    0.170599   -0.037451    11.00000    0.02376    0.01262 =
         0.02435    0.00181    0.00662    0.00347
O1    4   -0.499013   -1.268534   -0.090091    11.00000    0.01400    0.01346 =
         0.03297    0.00707    0.01044    0.00196
O7    4   -0.124560   -0.249919   -0.040237    11.00000    0.01683    0.01017 =
         0.03583   -0.00266    0.01205    0.00021
O20   4   -0.377819   -0.360921   -0.952761    11.00000    0.02151    0.00979 =
         0.03812    0.00419    0.01149    0.00232
O14   4   -0.138083   -0.240826   -0.837467    11.00000    0.02228    0.01229 =
         0.03973    0.00002    0.01559    0.00241
O12   4   -0.009102   -0.308414   -0.899177    11.00000    0.02621    0.01507 =
         0.03391    0.00007    0.01820   -0.00112
O9    4   -0.238333    0.575271    0.067906    11.00000    0.02213    0.01895 =
         0.02487    0.00184    0.00145   -0.00721
AFIX  23
H9A   2   -0.208041    0.629781    0.114886    11.00000   -1.20000
H9B   2   -0.258104    0.427821    0.085606    11.00000   -1.20000
AFIX   0
O4    4   -0.360823   -0.781048   -0.154282    11.00000    0.02572    0.01788 =
         0.03320   -0.00211    0.00927    0.00266
O21   4   -0.376586   -0.781554   -0.956684    11.00000    0.02109    0.01558 =
         0.03316    0.00168    0.01712    0.00154
O13   4    0.003202   -0.725575   -0.903921    11.00000    0.02663    0.02166 =
         0.02861   -0.00411    0.01103    0.00294
O15   4   -0.114410   -0.650539   -0.841319    11.00000    0.02097    0.01096 =
         0.03564   -0.00279    0.00974    0.00136
O17   4   -0.258383    0.072574   -1.063874    11.00000    0.02224    0.01565 =
         0.03896    0.00379    0.01032    0.00729
AFIX  23
H17A  2   -0.288301    0.117613   -1.112478    11.00000   -1.20000
H17B  2   -0.236419   -0.071121   -1.079372    11.00000   -1.20000
AFIX   0
O2    4   -0.488297   -0.850724   -0.098756    11.00000    0.02653    0.01242 =
         0.03731   -0.00164    0.01642    0.00472
O19   4   -0.258305   -0.871857   -0.846812    11.00000    0.02598    0.01615 =
         0.03303   -0.00082    0.01443   -0.00064
O23   4   -0.419345   -0.547819   -0.334873    11.00000    0.02398    0.01400 =
         0.03827    0.00211    0.01306    0.00717
O5    4   -0.239009   -0.375173   -0.156043    11.00000    0.02504    0.02481 =
         0.03609    0.00226    0.01580   -0.00381
O10   4   -0.077851    0.004115   -0.662462    11.00000    0.03139    0.02506 =
         0.02431   -0.00782    0.01071    0.00354
O3    4   -0.380141   -1.198888   -0.155074    11.00000    0.01900    0.01989 =
         0.04371    0.00211    0.01062    0.00262
O16   4   -0.185464   -0.522565   -0.699596    11.00000    0.02952    0.02744 =
         0.03493   -0.00159    0.01250    0.00285
AFIX   7
H16A  2   -0.188276   -0.559965   -0.649957    11.00000   -1.50000
H16B  2   -0.218403   -0.458765   -0.726520    11.00000   -1.50000
AFIX   0
O18   4   -0.250769   -1.062562   -0.727920    11.00000    0.03715    0.02352 =
         0.04783    0.00986    0.00955    0.00232
N3    3   -0.052936   -0.407552   -0.674615    11.00000    0.02915    0.01223 =
         0.01957    0.00577    0.00940    0.00813
AFIX  43
H3    2   -0.044162   -0.555387   -0.650396    11.00000   -1.20000
AFIX   0
N1    3   -0.442696   -0.960954   -0.320843    11.00000    0.01908    0.01489 =
         0.02537    0.00100    0.00472   -0.00431
AFIX  43
H1    2   -0.450475   -1.110290   -0.344472    11.00000   -1.20000
AFIX   0
N2    3   -0.347074   -0.819312   -0.704241    11.00000    0.02250    0.02477 =
         0.02731   -0.00320    0.01090   -0.01390
AFIX  43
H2    2   -0.326653   -0.709180   -0.670399    11.00000   -1.20000
AFIX   0
C31   1   -0.128738   -0.038300   -0.074918    11.00000    0.01317    0.00566 =
         0.03175   -0.00213    0.01144    0.00168
N4    3   -0.147787   -0.238199   -0.292887    11.00000    0.02632    0.04154 =
         0.02753   -0.01125    0.01134   -0.00089
AFIX  43
H4    2   -0.152292   -0.087253   -0.316149    11.00000   -1.20000
AFIX   0
C20   1   -0.001534   -0.524358   -0.866790    11.00000    0.01317    0.00566 =
         0.03175   -0.00213    0.01144    0.00168
O22   4   -0.409750   -1.142363   -0.718900    11.00000    0.07121    0.03903 =
         0.05653   -0.01752    0.04923   -0.02863
C15   1   -0.369123   -0.577196   -0.919459    11.00000    0.01317    0.00566 =
         0.03175   -0.00213    0.01144    0.00168
C1    1   -0.494685   -1.073927   -0.128491    11.00000    0.01317    0.00566 =
         0.03175   -0.00213    0.01144    0.00168
C5    1   -0.425545   -0.768235   -0.361016    11.00000    0.01620    0.00750 =
         0.02952   -0.00105    0.00649   -0.00313
C18   1   -0.047264   -0.373321   -0.756882    11.00000    0.02325    0.00546 =
         0.02094    0.00281    0.00329    0.00218
AFIX  13
H18   2   -0.036891   -0.190873   -0.762984    11.00000   -1.20000
AFIX   0
C21   1   -0.071618   -0.214344   -0.634458    11.00000    0.02218    0.00656 =
         0.02856   -0.00268    0.00852   -0.00003
C6    1   -0.417945   -0.826870   -0.444017    11.00000    0.02290    0.00972 =
         0.02766   -0.00121    0.00938   -0.00244
C14   1   -0.351352   -0.572378   -0.827286    11.00000    0.01287    0.01173 =
         0.02374    0.00849    0.01143    0.00386
AFIX  23
H14A  2   -0.382087   -0.488232   -0.806835    11.00000   -1.20000
H14B  2   -0.316685   -0.465233   -0.811087    11.00000   -1.20000
AFIX   0
C3    1   -0.448590   -0.924589   -0.237705    11.00000    0.03199    0.01783 =
         0.01753   -0.00652    0.00922   -0.00502
AFIX  13
H3A   2   -0.459190   -0.742597   -0.231325    11.00000   -1.20000
AFIX   0
PART 2
O26   4   -0.270692   -1.390157   -0.611039    10.75000    0.02471    0.05677 =
         0.04074    0.00201    0.01583   -0.01209
PART 0
C19   1    0.000930   -0.539541   -0.776214    11.00000    0.02846    0.01214 =
         0.02286    0.00445    0.00863    0.00208
AFIX  23
H19A  2    0.038521   -0.478007   -0.745044    11.00000   -1.20000
H19B  2   -0.003826   -0.718707   -0.760579    11.00000   -1.20000
AFIX   0
C13   1   -0.338795   -0.834225   -0.784817    11.00000    0.02353    0.02224 =
         0.02785    0.00230    0.01516   -0.00621
AFIX  13
H13   2   -0.366652   -0.960852   -0.815530    11.00000   -1.20000
AFIX   0
C2    1   -0.495718   -1.094086   -0.219169    11.00000    0.01315    0.00658 =
         0.03276    0.00375    0.00656    0.00457
AFIX  23
H2A   2   -0.489464   -1.273298   -0.233329    11.00000   -1.20000
H2B   2   -0.533403   -1.038587   -0.251749    11.00000   -1.20000
AFIX   0
O11   4   -0.128945   -0.651619   -0.306346    11.00000    0.18438    0.02132 =
         0.06296   -0.00693    0.07546   -0.02010
C4    1   -0.391630   -0.977700   -0.177783    11.00000    0.01901    0.01999 =
         0.03165   -0.00072    0.01409    0.00168
C22   1   -0.083459   -0.275988   -0.555378    11.00000    0.02290    0.00972 =
         0.02766   -0.00121    0.00938   -0.00244
C11   1   -0.440178   -1.032940   -0.490595    11.00000    0.02877    0.01227 =
         0.03570    0.00332    0.01083   -0.00645
AFIX  43
H11   2   -0.463158   -1.151380   -0.470011    11.00000   -1.20000
AFIX   0
C30   1   -0.146747   -0.021611   -0.165962    11.00000    0.02684    0.01726 =
         0.03439   -0.00357    0.01880   -0.00397
AFIX  23
H30A  2   -0.116055    0.067805   -0.185049    11.00000   -1.20000
H30B  2   -0.181201    0.087697   -0.179856    11.00000   -1.20000
AFIX   0
C12   1   -0.384963   -0.967498   -0.678131    11.00000    0.02947    0.00709 =
         0.03400   -0.00652    0.01246   -0.00828
C29   1   -0.159877   -0.266732   -0.213942    11.00000    0.02482    0.03065 =
         0.03616   -0.00686    0.01147    0.00001
AFIX  13
H29   2   -0.134861   -0.404808   -0.184248    11.00000   -1.20000
AFIX   0
C16   1   -0.277722   -0.925729   -0.785863    11.00000    0.03209    0.00986 =
         0.04304   -0.00113    0.01127   -0.00278
C9    1   -0.394468   -0.913260   -0.595293    11.00000    0.02255    0.01711 =
         0.02841   -0.00697    0.00186   -0.00408
C27   1   -0.121048   -0.107971   -0.528536    11.00000    0.03931    0.00900 =
         0.04213   -0.00152    0.01813    0.00038
AFIX  43
H27   2   -0.136057    0.035597   -0.560595    11.00000   -1.20000
AFIX   0
C25   1   -0.113995   -0.362163   -0.410466    11.00000    0.06246    0.02048 =
         0.01865   -0.01005    0.01861   -0.00934
PART 1
O6A   4   -0.258801   -0.307469   -0.290787    21.00000    0.04570    0.04978 =
         0.03120    0.00164    0.01124   -0.00853
PART 0
C17   1   -0.104522   -0.422008   -0.816034    11.00000    0.02411    0.02279 =
         0.03298    0.00371    0.02288    0.00488
C23   1   -0.061932   -0.481400   -0.508847    11.00000    0.03931    0.00900 =
         0.04213   -0.00152    0.01813    0.00038
AFIX  43
H23   2   -0.036236   -0.593391   -0.526531    11.00000   -1.20000
AFIX   0
C10   1   -0.430142   -1.073472   -0.566638    11.00000    0.03115    0.03404 =
         0.02506   -0.00111    0.01354   -0.01697
AFIX  43
H10   2   -0.447969   -1.212090   -0.598828    11.00000   -1.20000
AFIX   0
C8    1   -0.374587   -0.698666   -0.550499    11.00000    0.06456    0.02512 =
         0.03547    0.00356    0.02784   -0.00161
AFIX  43
H8    2   -0.353167   -0.577172   -0.572671    11.00000   -1.20000
AFIX   0
C7    1   -0.384293   -0.653946   -0.476394    11.00000    0.05212    0.02523 =
         0.02775   -0.01386    0.01839   -0.00761
AFIX  43
H7    2   -0.368578   -0.507411   -0.446476    11.00000   -1.20000
AFIX   0
C24   1   -0.076751   -0.528548   -0.437220    11.00000    0.03931    0.00900 =
         0.04213   -0.00152    0.01813    0.00038
AFIX  43
H24   2   -0.061847   -0.673476   -0.405780    11.00000   -1.20000
AFIX   0
C26   1   -0.136284   -0.151033   -0.455473    11.00000    0.03931    0.00900 =
         0.04213   -0.00152    0.01813    0.00038
AFIX  43
H26   2   -0.161405   -0.037981   -0.436986    11.00000   -1.20000
AFIX   6
PART 1
O25   4   -0.278700   -0.169653   -0.448821    21.00000    0.02746    0.07795 =
         0.06490    0.00417    0.01516   -0.00262
H25A  2   -0.267031   -0.264992   -0.406290    21.00000   -1.50000
H25B  2   -0.269323   -0.011842   -0.436646    21.00000   -1.50000
AFIX   0
PART 0
C28   1   -0.130403   -0.427698   -0.331245    11.00000    0.04451    0.05310 =
         0.03644   -0.00887    0.01529   -0.01420
C32   1   -0.224123   -0.340102   -0.218522    11.00000    0.04476    0.07903 =
         0.03974   -0.03655    0.02054   -0.02589
O24   4   -0.295520   -0.810786   -0.301306    21.00000    0.12503    0.06404 =
         0.10681    0.00174    0.03867   -0.00635
AFIX  87
H24A  2   -0.282883   -0.788059   -0.342932    21.00000   -1.20000
AFIX   0
PART -2
O27   4   -0.222436   -1.696231   -0.561457    10.25000    0.04888
PART 0
PART -1
O6B   4   -0.240945   -0.554599   -0.266271   -21.00000    0.04570    0.04978 =
         0.03120    0.00164    0.01124   -0.00853
PART 0
C34   1   -0.268173   -1.212911   -0.583452    10.33333    0.05489
C33   1   -0.308909   -1.031952   -0.297522    10.50000    0.06333    0.06418 =
         0.09963   -0.00782   -0.00436    0.01212
AFIX  33
H33A  2   -0.288520   -1.136487   -0.329572    10.50000   -1.20000
H33B  2   -0.298853   -1.088410   -0.240995    10.50000   -1.20000
H33C  2   -0.350205   -1.050210   -0.318932    10.50000   -1.20000
AFIX   0
O28   4   -0.227214   -1.735825   -0.407297    10.25000    0.07274
C35   1   -0.248391   -1.541823   -0.442634    10.25000    0.03516
HKLF 4

REM  SCCO2 Na MOF
REM R1 =  0.0684 for    3270 Fo > 4sig(Fo)  and  0.1066 for all    4815 data
REM    623 parameters refined using     19 restraints

END

WGHT      0.1086      0.0000

REM Highest difference peak  0.692,  deepest hole -0.346,  1-sigma level  0.093
Q1    1  -0.5309 -1.5748  0.0420  11.00000  0.05    0.69
Q2    1  -0.2119 -0.5695 -0.1176  11.00000  0.05    0.57
Q3    1  -0.1052 -0.0139  0.0059  11.00000  0.05    0.57
Q4    1   0.0317 -1.0166 -1.0493  11.00000  0.05    0.55
Q5    1  -0.4295 -0.5387 -0.1631  11.00000  0.05    0.52
Q6    1  -0.2878 -1.0677 -0.8814  11.00000  0.05    0.50
Q7    1  -0.5570 -1.5631 -0.1209  11.00000  0.05    0.49
Q8    1  -0.1402 -0.2384 -0.1259  11.00000  0.05    0.44
Q9    1  -0.1831  0.4466  0.0458  11.00000  0.05    0.41
Q10   1  -0.3987 -0.5386 -1.0031  11.00000  0.05    0.41
Q11   1  -0.2498  0.5502 -0.0065  11.00000  0.05    0.40
Q12   1   0.0609 -1.0342 -0.8891  11.00000  0.05    0.39
Q13   1  -0.3940 -0.3370 -0.0352  11.00000  0.05    0.39
Q14   1  -0.0726 -0.0152  0.1689  11.00000  0.05    0.38
Q15   1  -0.3575 -0.8029 -0.8676  11.00000  0.05    0.38
Q16   1  -0.4794 -0.8596 -0.0221  11.00000  0.05    0.37
Q17   1  -0.2482  0.0794 -0.9856  11.00000  0.05    0.36
Q18   1  -0.0368 -0.4446 -0.5813  11.00000  0.05    0.35
Q19   1  -0.0172 -0.7529 -0.9849  11.00000  0.05    0.34
Q20   1  -0.1237  0.1710 -0.1006  11.00000  0.05    0.34
Q21   1  -0.1086  0.1963  0.0375  11.00000  0.05    0.34
Q22   1  -0.0168 -0.3209 -0.9752  11.00000  0.05    0.33
Q23   1  -0.3679 -0.3399 -0.8847  11.00000  0.05    0.33
Q24   1  -0.0816 -0.1891 -0.7191  11.00000  0.05    0.33
Q25   1  -0.2698 -1.1029 -0.8228  11.00000  0.05    0.33
Q26   1  -0.1124 -0.2406  0.0448  11.00000  0.05    0.33
Q27   1  -0.5094 -1.2662 -0.1803  11.00000  0.05    0.32
Q28   1  -0.3164 -0.0727 -1.0443  11.00000  0.05    0.31
Q29   1  -0.1780 -0.8784 -0.8472  11.00000  0.05    0.31
Q30   1  -0.5030 -0.8447 -0.1751  11.00000  0.05    0.31
Q31   1  -0.2675  0.0899 -1.1541  11.00000  0.05    0.31
Q32   1  -0.2354  0.5478  0.1385  11.00000  0.05    0.31
Q33   1  -0.0995 -0.6398 -0.7582  11.00000  0.05    0.30
Q34   1  -0.4931 -1.0545 -0.1525  11.00000  0.05    0.30
Q35   1  -0.3886 -0.7655 -1.0224  11.00000  0.05    0.30
Q36   1  -0.0006 -0.7613 -0.8392  11.00000  0.05    0.30
Q37   1  -0.1798 -0.6621 -0.8061  11.00000  0.05    0.30
Q38   1  -0.3983 -1.1608 -0.6321  11.00000  0.05    0.29
Q39   1  -0.3510 -0.4627 -0.3199  11.00000  0.05    0.29
Q40   1  -0.0073 -0.5312 -0.8506  11.00000  0.05    0.29
Q41   1  -0.3569 -0.7841 -0.0804  11.00000  0.05    0.29
Q42   1  -0.4922 -1.2914 -0.0179  11.00000  0.05    0.29
Q43   1  -0.2650 -0.8649 -0.9205  11.00000  0.05    0.29
Q44   1  -0.3697 -1.1800 -0.0596  11.00000  0.05    0.29
Q45   1  -0.2762 -1.1890 -0.6353  11.00000  0.05    0.28
Q46   1  -0.1626 -0.0617 -0.2422  11.00000  0.05    0.28
Q47   1  -0.2498 -1.4177 -0.5402  11.00000  0.05    0.28
Q48   1  -0.3716 -0.5620 -0.8810  11.00000  0.05    0.28
Q49   1  -0.3685 -0.9542 -0.0844  11.00000  0.05    0.28
Q50   1  -0.0717 -0.2675 -0.4780  11.00000  0.05    0.28
Q51   1  -0.5044 -1.1208 -0.2971  11.00000  0.05    0.28
Q52   1  -0.3208 -0.0803 -1.0811  11.00000  0.05    0.28
Q53   1  -0.1386 -0.1185 -0.6021  11.00000  0.05    0.26
Q54   1  -0.2492 -0.5987 -0.1881  11.00000  0.05    0.26
Q55   1  -0.1534 -0.8868 -0.6903  11.00000  0.05    0.26
Q56   1  -0.2766 -0.3231 -0.3857  11.00000  0.05    0.26
Q57   1  -0.0857  0.0149 -0.7191  11.00000  0.05    0.26
Q58   1   0.0113 -0.3147 -0.8073  11.00000  0.05    0.26
Q59   1  -0.4492 -0.9659 -0.4009  11.00000  0.05    0.26
Q60   1  -0.3468 -0.6038 -0.7558  11.00000  0.05    0.25
Q61   1  -0.0639 -0.5566 -0.6581  11.00000  0.05    0.25
Q62   1  -0.6024 -1.5818 -0.0774  11.00000  0.05    0.24
Q63   1  -0.2288 -1.8936 -0.3756  11.00000  0.05    0.24
Q64   1  -0.4330 -0.7564 -0.1350  11.00000  0.05    0.24
Q65   1  -0.1193  0.1171 -0.3944  11.00000  0.05    0.24
Q66   1  -0.2723 -0.1621 -1.1024  11.00000  0.05    0.24
Q67   1  -0.1242 -0.2177 -0.7546  11.00000  0.05    0.24
Q68   1  -0.0687 -0.7104 -0.6044  11.00000  0.05    0.24
Q69   1  -0.0924 -0.4933 -0.5835  11.00000  0.05    0.24
Q70   1  -0.3953 -0.7717 -0.2671  11.00000  0.05    0.24
Q71   1  -0.4188 -1.2894 -0.4228  11.00000  0.05    0.24
Q72   1  -0.4814 -0.8160 -0.5953  11.00000  0.05    0.24
Q73   1  -0.0841 -0.5619 -0.2718  11.00000  0.05    0.23
Q74   1  -0.3802 -0.7674 -0.2429  11.00000  0.05    0.23
Q75   1  -0.2422 -0.3824 -0.0788  11.00000  0.05    0.23
Q76   1  -0.3608 -0.6507 -0.3856  11.00000  0.05    0.23
Q77   1  -0.1724 -0.0690 -0.8240  11.00000  0.05    0.23
Q78   1  -0.2613 -0.2844 -0.4852  11.00000  0.05    0.23
Q79   1  -0.3656 -0.4600 -0.3863  11.00000  0.05    0.23
Q80   1  -0.3211 -0.5544 -0.1229  11.00000  0.05    0.22
;
_shelx_res_checksum              15050
_shelx_hkl_file
;
   0   0   2   75.09   12.80   1
   0   0  -2   78.99   12.60   1
   0   0   2   78.79   11.60   1
   0   0  -2   69.69    9.50   1
   0   0  -2   70.99   11.80   1
   0   0   3   -8.20   14.80   1
   0   0   3   -9.90   10.60   1
   0   0  -3   20.40   11.30   1
   0   0  -3   22.80   10.50   1
   0   0  -3   21.50   14.90   1
   0   0  -4  191.68   30.50   1
   0   0   4   75.09   20.90   1
   0   0  -4  147.79   17.90   1
   0   0  -4  116.09   16.10   1
   0   0   4  106.89   17.30   1
   0   0  -5  762.92   64.89   1
   0   0   5  790.22   71.09   1
   0   0  -5  977.30   65.49   1
   0   0   5  808.42   66.29   1
   0   0  -5  898.11   71.29   1
   0   0  -6  160.68   23.30   1
   0   0  -6  177.28   20.90   1
   0   0   6  139.09   21.10   1
   0   0   6  117.09   26.10   1
   0   0  -6  183.78   28.20   1
   0   0   7  135.39   28.40   1
   0   0   7  138.89   24.90   1
   0   0  -7  160.38   28.60   1
   0   0  -7  169.28   22.60   1
   0   0  -8 2941.91  200.88   1
   0   0   8 2681.13  201.68   1
   0   0  -8 2520.45  199.78   1
   0   0  -8 2865.81  205.18   1
   0   0   8 2686.03  205.28   1
   0   0  -9   70.39   21.20   1
   0   0  -9   74.89   26.90   1
   0   0   9    4.70   18.80   1
   0   0   9   -0.30   24.40   1
   0   0 -10  531.25   54.09   1
   0   0  10  574.44   52.09   1
   0   0 -10  594.44   52.79   1
   0   0 -10  609.74   62.99   1
   0   0 -11  493.85   59.69   1
   0   0  11  606.14   59.39   1
   0   0 -11  500.35   50.39   1
   0   0  11  496.85   49.20   1
   0   0 -12  -20.90   26.90   1
   0   0  12   12.40   26.90   1
   0   0  12  -17.50   17.20   1
   0   0 -12  -13.30   22.20   1
   0   0  13  134.19   27.60   1
   0   0  13  123.99   35.30   1
   0   0 -13   90.19   35.40   1
   0   0 -13   99.79   29.30   1
   0   0 -14   63.09   38.30   1
   0   0  14  125.49   37.30   1
   0   0  14   78.19   25.00   1
   0   0  14  105.69   35.90   1
   0   0 -14  109.59   28.90   1
   0   0 -15 1100.89   92.79   1
   0   0 -15 1020.70  103.99   1
   0   0  15 1051.69   92.69   1
   0   0  15 1252.67  103.69   1
   0   0 -16  638.14   76.79   1
   0   0  16  654.53   84.99   1
   0   0  16  782.32   68.49   1
   0   0 -16  667.83   68.39   1
   0   0 -17  102.19   34.10   1
   0   0  17   95.79   30.60   1
   0   1   0    8.70   17.10   1
   0  -1   0   24.80   17.10   1
   0   1   1  194.08   19.20   1
   0   1   1  244.68   28.10   1
   0   1  -1  205.18   25.60   1
   0   1   1  150.98   24.30   1
   0  -1  -1  193.28   25.70   1
   0  -1  -1  208.78   22.60   1
   0   1   2 1250.37  104.19   1
   0   1   2 1431.76  103.79   1
   0   1  -2 1460.65  103.99   1
   0   1   2 1397.66  102.19   1
   0   1  -2 1572.94  105.39   1
   0  -1  -2 1285.47  102.59   1
   0  -1  -2 1321.07  104.29   1
   0   1  -3  635.24   52.89   1
   0   1   3  675.43   51.59   1
   0   1   3  613.04   50.19   1
   0   1   3  584.04   55.69   1
   0   1  -3  719.93   55.99   1
   0  -1  -3  583.14   49.10   1
   0  -1   3  602.34   47.10   1
   0  -1  -3  613.04   55.29   1
   0   1  -4 1472.85  109.99   1
   0   1   4 1515.15  108.89   1
   0   1  -4 1586.44  108.49   1
   0   1   4 1453.15  108.69   1
   0   1  -4 1436.16  111.09   1
   0   1   4 1349.96  112.09   1
   0  -1  -4 1443.26  111.99   1
   0  -1  -4 1303.77  105.89   1
   0  -1   4 1490.95  106.29   1
   0   1   5 1018.00   73.69   1
   0   1  -5  865.41   76.99   1
   0   1   5  953.10   78.49   1
   0   1  -5  912.01   74.89   1
   0   1  -5  953.70   74.29   1
   0   1   5  978.50   73.19   1
   0  -1  -5  937.91   68.69   1
   0  -1  -5  926.51   78.19   1
   0  -1   5  909.71   70.49   1
   0  -1   5  836.22   73.59   1
   0   1   6  526.75   54.19   1
   0   1  -6  505.95   52.99   1
   0   1   6  447.06   50.09   1
   0   1  -6  501.65   58.99   1
   0   1  -6  599.04   50.59   1
   0  -1   6  563.94   44.80   1
   0  -1  -6  550.94   55.19   1
   0  -1  -6  543.35   41.30   1
   0  -1   6  534.65   49.30   1
   0   1  -7  134.79   24.00   1
   0   1  -7   79.69   25.50   1
   0   1   7   99.89   22.10   1
   0   1   7   53.09   25.20   1
   0   1  -7  107.09   25.30   1
   0  -1  -7   98.79   15.80   1
   0  -1  -7   78.99   25.90   1
   0  -1   7   80.99   18.20   1
   0  -1  -7   85.09   24.30   1
   0  -1   7   47.20   22.40   1
   0   1   8  126.29   30.00   1
   0   1  -8  211.08   36.50   1
   0   1  -8  187.58   28.90   1
   0   1  -8  142.29   29.00   1
   0  -1  -8  199.68   33.00   1
   0  -1  -8  130.89   25.40   1
   0  -1   8  150.28   22.80   1
   0  -1   8   86.99   26.80   1
   0   1  -9  354.46   43.50   1
   0   1   9  372.26   40.40   1
   0   1  -9  383.16   51.39   1
   0   1   9  342.57   49.20   1
   0   1  -9  418.36   48.40   1
   0  -1  -9  403.16   42.30   1
   0  -1   9  423.16   39.10   1
   0  -1   9  429.96   46.20   1
   0  -1  -9  339.07   49.70   1
   0   1 -10  710.13   70.79   1
   0   1 -10  768.92   67.49   1
   0   1  10  773.02   64.89   1
   0   1  10  732.93   71.99   1
   0  -1  10  756.22   70.39   1
   0  -1  10  788.02   63.59   1
   0  -1 -10  795.22   66.09   1
   0  -1 -10  736.03   73.59   1
   0   1 -11   44.90   24.40   1
   0   1 -11  -13.80   25.60   1
   0   1  11   41.70   27.40   1
   0   1  11   28.30   19.90   1
   0  -1 -11   72.59   28.40   1
   0  -1 -11   52.99   31.00   1
   0  -1  11   64.39   20.00   1
   0   1 -12  253.97   41.20   1
   0   1  12  302.97   47.70   1
   0   1  12  251.27   36.80   1
   0  -1 -12  329.77   41.10   1
   0  -1  12  279.07   36.90   1
   0  -1  12  311.47   46.80   1
   0  -1 -12  298.27   52.79   1
   0   1 -13   96.99   31.50   1
   0   1  13  142.99   37.40   1
   0   1 -13   15.70   29.20   1
   0   1  13  107.59   26.90   1
   0  -1 -13   57.89   28.90   1
   0  -1  13   98.79   33.30   1
   0  -1  13   96.09   25.40   1
   0  -1 -13  120.99   38.30   1
   0   1 -14   49.80   28.10   1
   0   1  14   28.20   22.60   1
   0   1 -14  -34.30   31.20   1
   0   1  14   81.89   36.90   1
   0  -1  14   12.40   33.80   1
   0  -1 -14   50.59   38.50   1
   0  -1  14   76.59   27.80   1
   0  -1  14   66.19   43.60   1
   0  -1 -14   71.89   25.80   1
   0   1 -15  275.97   44.60   1
   0   1  15  314.57   57.59   1
   0   1  15  299.67   43.10   1
   0  -1  15  405.76   61.19   1
   0  -1 -15  238.98   42.10   1
   0  -1  15  291.27   49.30   1
   0  -1 -15  352.56   56.09   1
   0  -1  15  279.87   43.00   1
   0   1 -16   16.00   46.20   1
   0   1  16   10.40   26.00   1
   0   1 -16    4.40   31.80   1
   0  -1  16   19.90   46.70   1
   0  -1  16  -33.60   24.40   1
   0  -1 -16  -26.90   25.70   1
   0   2   0 1764.42  127.29   1
   0   2   0 1762.22  133.69   1
   0  -2   0 1715.33  134.49   1
   0   2   1  293.07   35.70   1
   0   2   1  365.66   42.00   1
   0   2   1  337.37   29.70   1
   0   2  -1  319.77   41.60   1
   0  -2  -1  320.07   41.40   1
   0  -2   1  417.16   46.80   1
   0   2   2  960.30   78.09   1
   0   2   2  990.30   74.49   1
   0  -2  -2  942.21   77.79   1
   0  -2  -2 1018.80   80.29   1
   0   2   3  290.87   28.90   1
   0   2   3  349.87   36.20   1
   0   2   3  261.27   36.10   1
   0   2  -3  298.87   38.20   1
   0  -2  -3  293.07   38.20   1
   0  -2  -3  254.07   37.20   1
   0   2   4  420.86   45.80   1
   0   2  -4  443.36   46.40   1
   0   2   4  438.96   39.30   1
   0   2   4  463.65   44.70   1
   0  -2  -4  393.46   42.40   1
   0  -2  -4  453.95   47.50   1
   0   2  -5  238.98   34.60   1
   0   2   5  222.38   32.80   1
   0   2   5  194.18   32.20   1
   0   2   5  195.88   28.00   1
   0  -2  -5  200.08   31.20   1
   0  -2  -5  290.37   36.50   1
   0   2   6  255.27   32.80   1
   0   2   6  263.47   41.90   1
   0  -2   6  334.77   27.10   1
   0  -2  -6  286.47   43.60   1
   0  -2  -6  271.67   31.80   1
   0   2   7 1025.90   83.79   1
   0   2   7 1098.39   89.99   1
   0   2   7 1134.29   86.49   1
   0   2  -7 1059.49   88.29   1
   0  -2  -7  983.20   80.89   1
   0  -2  -7 1093.99   89.59   1
   0  -2   7 1056.79   79.99   1
   0  -2   7 1042.70   83.19   1
   0   2  -8   71.39   26.60   1
   0   2   8   82.79   27.60   1
   0   2   8  103.29   29.40   1
   0   2   8   70.09   20.70   1
   0  -2   8   63.29   21.80   1
   0  -2  -8  124.79   19.20   1
   0  -2   8   75.89   17.50   1
   0  -2  -8  112.39   30.10   1
   0   2  -9   83.49   29.00   1
   0   2   9   99.89   23.20   1
   0   2  -9   97.59   26.60   1
   0   2   9  103.09   29.40   1
   0  -2   9  131.29   25.60   1
   0  -2  -9   82.59   31.90   1
   0  -2   9  120.79   20.30   1
   0  -2  -9  100.79   18.70   1
   0   2 -10   61.19   26.80   1
   0   2  10  108.19   32.70   1
   0   2  10   69.09   23.80   1
   0   2 -10   78.49   31.10   1
   0  -2 -10  117.59   33.50   1
   0  -2 -10   60.29   30.50   1
   0  -2  10   66.59   20.10   1
   0  -2  10   57.89   26.20   1
   0   2  11  369.06   53.69   1
   0   2 -11  342.07   51.59   1
   0   2  11  346.17   43.00   1
   0  -2 -11  455.85   59.29   1
   0  -2 -11  403.96   48.60   1
   0  -2  11  418.86   42.00   1
   0  -2  11  408.26   56.99   1
   0  -2  11  375.36   52.99   1
   0   2  12  303.27   42.80   1
   0   2 -12  382.36   54.19   1
   0   2  12  381.66   55.09   1
   0   2 -12  415.86   51.99   1
   0  -2  12  374.26   54.89   1
   0  -2  12  357.36   41.60   1
   0  -2 -12  305.37   47.90   1
   0  -2 -12  329.07   58.39   1
   0  -2  12  342.17   51.59   1
   0   2 -13   63.29   38.30   1
   0   2  13  119.19   30.00   1
   0   2 -13  227.28   42.60   1
   0   2  13  251.67   45.10   1
   0  -2 -13  177.68   42.50   1
   0  -2  13  142.59   42.60   1
   0  -2  13  136.09   29.40   1
   0  -2 -13  180.28   36.50   1
   0  -2  13  125.09   39.10   1
   0   2  14   51.89   40.00   1
   0   2 -14    4.00   32.70   1
   0   2 -14  -30.90   37.70   1
   0   2  14   37.60   25.50   1
   0  -2 -14   75.99   38.60   1
   0  -2 -14  101.49   34.70   1
   0  -2  14   31.10   25.40   1
   0  -2  14  -23.30   37.40   1
   0  -2  14   57.19   45.20   1
   0   2 -15    7.30   43.60   1
   0   2  15    3.70   23.10   1
   0   2 -15   35.30   38.90   1
   0  -2  15   45.60   27.60   1
   0  -2 -15   21.30   37.80   1
   0  -2  15   10.30   40.20   1
   0  -2  15  104.39   50.49   1
   0   3   0   11.80   24.20   1
   0  -3   0  -25.60   24.50   1
   0   3  -1   -4.80   26.10   1
   0   3   1   45.30   13.00   1
   0   3   1   33.00   26.50   1
   0  -3   1   65.69   29.00   1
   0  -3  -1   18.80   19.50   1
   0   3   2  156.28   23.30   1
   0   3  -2  145.49   32.30   1
   0   3   2  182.88   34.70   1
   0  -3  -2  267.07   37.60   1
   0  -3   2  210.48   38.40   1
   0  -3  -2  203.38   30.40   1
   0   3  -3 1866.91  146.89   1
   0   3   3 1863.51  145.19   1
   0   3   3 1977.10  147.49   1
   0   3   3 1906.51  141.49   1
   0  -3  -3 1886.11  147.19   1
   0  -3   3 1955.60  151.08   1
   0  -3  -3 1876.11  145.49   1
   0   3   4 2620.74  202.58   1
   0   3   4 2749.92  198.88   1
   0   3  -4 2855.71  204.58   1
   0   3   4 2606.24  201.98   1
   0  -3   4 2716.63  206.68   1
   0  -3  -4 2638.04  201.98   1
   0  -3  -4 2707.13  202.48   1
   0   3  -5 2195.18  166.88   1
   0   3   5 2285.97  165.48   1
   0   3   5 2213.78  162.48   1
   0  -3  -5 2201.98  166.98   1
   0  -3  -5 1963.70  163.08   1
   0  -3   5 2177.08  170.38   1
   0   3   6  247.98   33.70   1
   0   3   6  246.68   38.10   1
   0   3  -6  272.27   43.00   1
   0   3   6  245.08   44.30   1
   0  -3  -6  255.87   40.90   1
   0  -3   6  316.37   48.10   1
   0  -3  -6  283.67   39.90   1
   0   3   7  638.84   64.09   1
   0   3   7  551.54   57.39   1
   0   3  -7  624.94   63.29   1
   0   3   7  604.14   55.99   1
   0  -3   7  521.75   68.69   1
   0  -3  -7  618.24   66.29   1
   0  -3  -7  649.83   66.69   1
   0   3   8  353.16   52.09   1
   0   3  -8  428.36   51.19   1
   0   3   8  320.47   45.70   1
   0   3   8  419.86   43.20   1
   0  -3  -8  297.97   42.30   1
   0  -3   8  394.76   59.19   1
   0  -3  -8  414.86   55.39   1
   0   3  -9   94.99   33.80   1
   0   3   9   24.50   26.60   1
   0   3   9   42.40   22.50   1
   0   3   9   56.79   33.90   1
   0  -3  -9   39.10   37.20   1
   0  -3  -9   73.39   26.80   1
   0  -3   9   45.00   33.70   1
   0   3  10   50.79   25.30   1
   0   3  10   83.89   32.60   1
   0   3 -10   66.29   35.30   1
   0   3  10   52.79   35.50   1
   0  -3 -10  117.79   27.70   1
   0  -3 -10  108.19   40.10   1
   0  -3  10  134.29   40.20   1
   0   3 -11  215.58   45.70   1
   0   3  11  197.08   35.10   1
   0   3  11  220.98   45.00   1
   0  -3 -11  189.68   48.80   1
   0  -3  11  248.48   34.90   1
   0  -3  11  206.18   45.90   1
   0   3  12  399.16   53.99   1
   0   3  12  513.95   77.59   1
   0   3 -12  496.15   63.69   1
   0  -3  12  620.44   77.19   1
   0  -3 -12  579.14   59.79   1
   0  -3  12  381.26   67.39   1
   0  -3 -12  468.25   68.69   1
   0  -3  12  569.94   52.99   1
   0   3 -13  131.89   44.30   1
   0   3  13   56.09   26.40   1
   0  -3  13  146.19   34.20   1
   0  -3  13   35.90   40.30   1
   0  -3 -13   -8.00   44.20   1
   0  -3 -13   26.40   33.60   1
   0  -3  13  158.88   52.19   1
   0   3  14  146.79   33.40   1
   0   3 -14  192.98   46.30   1
   0  -3 -14   95.59   33.80   1
   0  -3  14  185.68   50.69   1
   0   4   0 1116.19   93.39   1
   0  -4   0  967.40   97.09   1
   0   4   1  836.52   83.19   1
   0   4   1  784.52   72.09   1
   0   4  -1 1115.39   85.19   1
   0  -4  -1  939.51   88.39   1
   0  -4   1  998.10   88.29   1
   0   4  -2  700.23   63.29   1
   0   4   2  640.94   63.09   1
   0   4   2  509.85   50.49   1
   0  -4  -2  621.64   67.39   1
   0  -4  -2  440.96   57.99   1
   0  -4   2  709.13   71.29   1
   0   4   3  286.67   33.30   1
   0   4   3  270.97   41.10   1
   0   4  -3  217.88   42.60   1
   0   4   3  244.88   41.50   1
   0  -4   3  167.18   39.90   1
   0  -4  -3  167.38   36.50   1
   0  -4  -3  208.38   41.10   1
   0   4  -4  197.58   41.60   1
   0   4   4  206.78   41.10   1
   0   4   4  227.18   37.40   1
   0   4   4  230.18   39.80   1
   0  -4  -4  232.28   41.80   1
   0  -4  -4  120.49   36.10   1
   0  -4   4  119.79   38.30   1
   0   4   5  186.48   36.50   1
   0   4  -5  225.98   42.30   1
   0   4   5  214.08   31.40   1
   0   4   5  244.18   41.10   1
   0  -4   5  220.38   46.90   1
   0  -4  -5  295.47   44.20   1
   0  -4  -5  124.79   37.90   1
   0   4  -6   33.80   30.30   1
   0   4   6   12.70   29.80   1
   0   4   6   50.99   20.00   1
   0   4   6   10.50   32.50   1
   0  -4   6   54.19   38.20   1
   0  -4  -6   75.39   32.20   1
   0  -4  -6   16.50   33.40   1
   0   4   7   74.99   31.60   1
   0   4   7   91.59   36.70   1
   0   4  -7   41.70   34.80   1
   0   4   7   60.19   23.30   1
   0  -4  -7  100.29   36.60   1
   0  -4   7  100.39   40.80   1
   0  -4  -7   14.10   35.60   1
   0   4   8    0.10   36.30   1
   0   4  -8    3.80   30.70   1
   0   4   8   53.19   23.10   1
   0   4   8   58.29   32.00   1
   0  -4  -8   25.50   31.50   1
   0  -4  -8   10.90   43.60   1
   0  -4   8   34.20   37.50   1
   0   4   9   58.59   27.60   1
   0   4   9   40.20   32.50   1
   0   4  -9    5.10   35.10   1
   0   4   9   -5.10   36.70   1
   0  -4  -9  -32.60   48.70   1
   0  -4  -9  -70.69   35.40   1
   0  -4   9   42.70   40.10   1
   0   4  10   19.30   42.30   1
   0   4  10  104.49   30.70   1
   0  -4 -10   53.49   44.30   1
   0  -4  10   77.49   41.30   1
   0   4  11   82.09   33.50   1
   0   4  11   93.29   29.70   1
   0   4 -11   83.39   38.20   1
   0   4  11   93.99   47.10   1
   0  -4  11   78.39   45.80   1
   0  -4 -11   57.79   47.60   1
   0   5   0   44.70   36.40   1
   0  -5   0  -10.10   39.90   1
   0   5   1   20.90   36.20   1
   0   5  -1  -14.90   32.20   1
   0  -5  -1  -10.50   38.00   1
   0  -5   1   29.00   39.60   1
   0  -5  -2   21.80   37.80   1
   0  -5   2   22.40   40.60   1
   0   5   3  134.89   58.19   1
   0  -5   3   75.09   43.60   1
   0  -5  -3   89.09   39.30   1
   0   5   4  216.58   44.00   1
   0   5  -4  139.29   41.20   1
   0   5   4  133.59   65.89   1
   0  -5  -4  311.97   48.30   1
   0  -5   4  338.17   74.39   1
   0  -5  -4  161.88   51.19   1
   0   5   5   42.20   40.10   1
   0   5   5  -17.40   33.10   1
   0   5   5   44.20   25.70   1
   0   5  -5   39.60   37.70   1
   0  -5   5   37.10   40.70   1
   0  -5  -5  -22.80   42.30   1
   0  -5  -5   19.00   36.60   1
   0   5   6   74.19   27.80   1
   0   5   6  101.69   46.80   1
   0   5  -6   32.60   37.20   1
   0   5   6   28.20   32.30   1
   0  -5  -6  -30.20   46.70   1
   0  -5  -6  120.59   44.60   1
   0  -5   6  128.29   46.40   1
  -1   0  17   51.89   48.60   1
   1   0 -17   -4.00   32.30   1
   1   0 -16  -73.39   35.40   1
  -1   0  16   15.20   23.70   1
   1   0 -16  -10.00   26.30   1
  -1   0  16   16.20   35.30   1
  -1   0  15   41.40   34.90   1
   1   0 -15   45.00   27.50   1
   1   0 -15    2.50   34.00   1
  -1   0  15  -14.90   21.30   1
  -1   0  14   19.00   32.90   1
   1   0 -14  -21.00   31.30   1
  -1   0  14   -0.20   20.10   1
   1   0 -14   18.30   25.40   1
   1   0 -13  -14.70   29.60   1
  -1   0  13  -13.10   27.50   1
   1   0 -13   13.20   29.70   1
  -1   0  13   29.50   21.10   1
   1   0 -13    8.90   24.00   1
   1   0 -12   -4.30   23.70   1
  -1   0  12    2.60   18.70   1
   1   0 -12  -23.30   28.10   1
  -1   0  12   43.90   28.40   1
   1   0 -12   26.30   29.10   1
  -1   0  11    6.40   17.40   1
  -1   0  11   10.70   25.60   1
   1   0 -11    7.60   27.10   1
   1   0 -11    1.30   19.30   1
   1   0 -11    4.60   24.70   1
  -1   0  10   46.20   43.20   1
  -1   0  10   83.99   22.30   1
   1   0 -10  104.79   23.10   1
   1   0 -10   88.29   28.00   1
   1   0 -10   47.60   22.90   1
   1   0  -9   57.69   19.10   1
  -1   0   9   39.60   25.30   1
   1   0  -9   85.49   21.30   1
   1   0  -9  117.69   27.00   1
  -1   0   9   66.19   21.50   1
   1   0  -8   16.40   16.70   1
  -1   0   8  -22.30   16.80   1
  -1   0   8  -28.20   21.20   1
   1   0  -8   -6.80   18.10   1
   1   0  -8   48.80   23.40   1
   1   0  -7  220.38   27.80   1
   1   0  -7  223.58   30.60   1
  -1   0   7  179.78   28.60   1
  -1   0   7  244.28   36.30   1
   1   0  -7  318.97   39.90   1
   1   0  -6   -3.40   15.90   1
  -1   0   6   -5.90   19.50   1
   1   0  -6   45.60   21.60   1
   1   0  -6    3.80   13.10   1
  -1   0   6   -2.20   14.90   1
  -1   0   5    5.50   18.80   1
  -1   0   5  -13.30   13.30   1
   1   0  -5   40.90   14.10   1
   1   0  -5   21.90   12.90   1
   1   0  -4   20.70   12.80   1
   1   0  -4    5.20   12.50   1
  -1   0   4   -5.10   11.60   1
  -1   0   4   20.80   17.60   1
  -1   0   3  163.78   26.60   1
   1   0  -2    7.00    9.00   1
  -1   0   2   13.40    9.50   1
   1   0  -2   12.10    8.30   1
  -1   0   2    6.80    7.30   1
   1   0  -2    4.00    7.50   1
  -1   0  -2  -18.80   10.40   1
   1   0   2   -0.60    7.60   1
  -1   0  -2    4.00   11.50   1
   1   0   2    1.50    7.80   1
   1   0   2   -2.10   11.20   1
  -1   0  -3    6.60   12.10   1
   1   0   3  -33.80   14.50   1
   1   0   3   -6.20    9.90   1
  -1   0  -4    4.00   13.40   1
   1   0   4  -37.20   18.40   1
  -1   0  -4  -32.20   16.90   1
   1   0   4  -10.90   12.20   1
   1   0   5  -38.30   19.10   1
  -1   0  -5    0.50   14.20   1
  -1   0  -5  -33.30   18.70   1
  -1   0  -5   22.30   14.00   1
   1   0   5  -15.10   13.00   1
   1   0   6  175.98   26.10   1
   1   0   6  189.18   35.10   1
  -1   0  -6  200.58   35.20   1
  -1   0  -6  186.48   23.10   1
  -1   0  -6  242.08   26.10   1
  -1   0  -7   80.99   25.80   1
  -1   0  -7   71.69   18.50   1
   1   0   7   67.09   24.60   1
  -1   0  -8   77.99   20.70   1
   1   0   8   48.20   18.80   1
   1   0   8   58.59   25.00   1
  -1   0  -8   70.39   26.70   1
  -1   0  -9   20.80   16.40   1
  -1   0  -9   10.10   23.70   1
   1   0   9   23.00   23.50   1
  -1   0 -10   73.29   22.10   1
  -1   0 -10   49.80   28.70   1
   1   0  10   14.80   18.10   1
   1   0  10   60.39   26.70   1
   1   0  11   30.50   26.40   1
   1   0  11    1.00   17.70   1
  -1   0 -11   -8.50   27.90   1
   1   0  11   12.00   23.70   1
  -1   0 -11  -19.00   19.30   1
  -1   0 -12   22.20   31.60   1
   1   0  12   35.30   28.60   1
  -1   0 -12   42.80   24.70   1
   1   0  12   15.60   20.20   1
   1   0  12   -6.60   23.20   1
   1   0  13    1.80   28.70   1
  -1   0 -13  -10.30   24.20   1
   1   0  13   22.00   26.20   1
   1   0  13  -26.10   19.40   1
  -1   0 -13    1.00   32.90   1
  -1   0 -14   90.99   39.50   1
  -1   0 -14  108.59   28.80   1
   1   0  14  102.09   26.60   1
   1   0  14   84.69   36.00   1
   1   0  15  102.39   46.20   1
  -1   0 -15   63.49   28.50   1
  -1   0 -15   -0.10   38.30   1
   1   0  15   30.00   24.90   1
  -1   0 -16   -6.90   39.50   1
   1   0  16   24.90   45.20   1
  -1   0 -16   -3.90   28.40   1
   1   0  16    4.10   25.80   1
   1   1 -16  -28.30   39.50   1
   1   1 -16    1.30   29.80   1
  -1  -1  16   10.20   26.60   1
  -1  -1  16   56.29   45.20   1
   1  -1 -16   -2.30   25.00   1
  -1  -1  16  -36.70   43.20   1
  -1   1  15   15.50   22.40   1
  -1   1  15   71.89   37.50   1
   1   1 -15  -31.10   24.60   1
  -1  -1  15   71.29   39.20   1
  -1  -1  15   10.80   22.50   1
   1  -1 -15  -17.60   24.90   1
  -1  -1  15    0.60   36.90   1
   1  -1 -15    7.90   39.50   1
   1   1 -14  -13.10   35.70   1
  -1   1  14  -13.20   20.50   1
   1   1 -14   37.00   27.50   1
  -1   1  14   51.59   34.90   1
  -1  -1  14   37.90   31.40   1
   1  -1 -14    7.70   34.40   1
   1  -1 -14  -28.30   20.80   1
  -1  -1  14   32.60   22.00   1
  -1   1  13   27.70   21.20   1
   1   1 -13   10.40   23.90   1
   1   1 -13   31.50   32.00   1
  -1   1  13   23.90   29.90   1
  -1  -1  13   -5.80   20.10   1
  -1  -1  13   26.20   31.30   1
   1  -1 -13   18.60   27.90   1
   1  -1 -13    1.20   31.50   1
   1   1 -12   34.60   32.10   1
   1   1 -12   31.00   25.50   1
   1   1 -12  -12.50   28.00   1
  -1   1  12   66.99   29.90   1
  -1   1  12    6.10   19.30   1
   1  -1 -12   49.30   25.90   1
  -1  -1  12   33.60   19.70   1
  -1  -1  12   37.70   27.20   1
   1  -1 -12   -9.30   29.20   1
   1   1 -11   45.40   29.50   1
   1   1 -11   12.00   24.60   1
  -1   1  11   62.29   28.40   1
   1   1 -11   64.79   26.80   1
  -1   1  11   53.49   20.30   1
  -1  -1  11   96.49   41.60   1
  -1  -1  11   89.99   21.20   1
   1  -1 -11   92.49   28.90   1
   1  -1 -11   61.79   19.90   1
   1  -1 -11   42.10   30.80   1
  -1   1  10   10.50   18.80   1
   1   1 -10   14.20   22.40   1
   1   1 -10    7.70   20.30   1
   1   1 -10   41.60   28.50   1
  -1   1  10    9.70   25.10   1
   1  -1 -10   16.30   17.00   1
   1  -1 -10   21.20   27.90   1
  -1  -1  10   -3.70   16.60   1
  -1  -1  10   10.90   23.80   1
   1  -1 -10   38.40   22.40   1
   1   1  -9   60.09   22.50   1
   1   1  -9   77.59   28.00   1
  -1   1   9   64.89   20.50   1
   1   1  -9   75.39   24.50   1
  -1   1   9   66.29   36.00   1
   1  -1  -9  117.39   29.90   1
  -1  -1   9   35.20   23.30   1
   1  -1  -9  102.59   23.90   1
  -1  -1   9   85.49   20.40   1
   1  -1  -9   78.79   16.70   1
   1   1  -8  -13.50   20.90   1
   1   1  -8   14.20   19.10   1
  -1   1   8    4.90   17.20   1
  -1   1   8   13.20   23.30   1
   1   1  -8  -10.30   24.30   1
   1  -1  -8  -10.20   18.30   1
  -1  -1   8  -32.50   14.20   1
   1  -1  -8   17.10   24.40   1
  -1  -1   8  -25.20   18.60   1
   1  -1  -8   11.90   13.90   1
   1   1  -7   74.09   20.60   1
   1   1  -7   81.69   25.40   1
  -1   1   7   24.80   18.20   1
   1   1  -7   60.29   25.40   1
  -1   1   7   49.30   25.40   1
   1  -1  -7  121.89   26.30   1
  -1  -1   7   20.90   20.30   1
  -1  -1   7   65.79   17.10   1
   1  -1  -7   65.79   23.10   1
   1  -1  -7   92.09   15.40   1
   1   1  -6   41.00   18.50   1
   1   1  -6   22.50   20.60   1
  -1   1   6   35.50   19.80   1
   1   1  -6   38.00   23.20   1
  -1   1   6   11.90   20.90   1
  -1  -1   6   54.09   14.20   1
  -1  -1   6   27.90   18.30   1
   1  -1  -6   37.60   23.30   1
   1  -1  -6   53.59   12.40   1
   1   1  -5   43.90   19.30   1
  -1   1   5   23.90   16.90   1
  -1   1   5   22.30   21.90   1
   1   1  -5   50.09   22.50   1
   1   1  -5   31.60   18.10   1
  -1   1   5   42.00   20.10   1
  -1  -1   5   46.60   13.50   1
   1  -1  -5   70.99   24.10   1
  -1  -1   5   34.30   17.20   1
   1  -1  -5   57.59   14.30   1
  -1   1   4    1.80   14.00   1
   1   1  -4    9.20   18.40   1
  -1   1   4  -16.70   19.40   1
   1   1  -4    8.40   20.10   1
  -1   1   4   10.50   18.50   1
   1   1  -4   44.90   15.30   1
  -1  -1   4   24.10   11.30   1
   1  -1  -4   63.99   20.80   1
   1  -1  -4    6.80   14.70   1
  -1   1   3  -21.40   18.20   1
  -1   1   3    1.70   14.00   1
   1   1  -3  -27.50   15.70   1
   1   1  -3    9.50   21.10   1
  -1   1   3   15.50   17.90   1
   1  -1  -3   30.50   14.20   1
  -1   1   2   17.20   11.60   1
  -1   1   2   43.00   17.40   1
   1   1  -2   32.80   21.00   1
  -1   1   2   23.70   16.40   1
   1   1  -2   29.10   17.00   1
   1  -1  -2   68.59   15.80   1
  -1   1   1   57.29   11.40   1
   1   1  -1   62.29   20.10   1
  -1   1   1   70.99   17.90   1
   1   1  -1   49.70   17.50   1
  -1   1   1   41.20   14.50   1
   1  -1  -1   73.29   17.60   1
   1   1   0  117.59   20.60   1
   1   1   0  173.88   21.80   1
   1   1   0  113.49   16.70   1
  -1   1   0  142.99   22.40   1
   1   1   0   96.69   14.40   1
   1  -1   0  168.88   22.90   1
   1   1   1   89.19   13.00   1
   1   1   1  109.09   20.40   1
  -1   1  -1  114.89   20.90   1
   1   1   1   40.70   16.50   1
   1  -1   1   97.79   21.50   1
   1   1   2   -7.10   11.30   1
   1   1   2    3.10   16.90   1
   1   1   2  -17.40   17.00   1
  -1   1  -2   15.40   16.90   1
   1  -1   2   35.80   20.50   1
  -1  -1  -2   25.90   14.30   1
  -1   1  -3  172.88   23.70   1
   1   1   3  116.69   23.50   1
   1   1   3  164.08   24.70   1
   1   1   3  129.69   20.40   1
   1  -1   3  124.59   16.20   1
  -1  -1  -3  111.89   16.70   1
   1  -1   3  259.97   33.30   1
  -1  -1  -3  131.09   23.20   1
   1   1   4  169.78   26.30   1
   1   1   4  156.08   20.90   1
  -1   1  -4  184.78   29.90   1
   1   1   4  212.88   28.00   1
  -1  -1  -4  210.38   27.90   1
   1  -1   4  145.19   18.40   1
   1  -1   4  134.89   20.40   1
  -1  -1  -4  136.09   18.10   1
   1   1   5   48.90   16.30   1
   1   1   5   48.70   21.90   1
  -1   1  -5   69.69   21.50   1
   1  -1   5   62.69   13.50   1
   1  -1   5   67.09   18.60   1
  -1  -1  -5   52.39   23.80   1
   1   1   6    4.10   20.60   1
  -1   1  -6   42.70   19.70   1
   1   1   6   19.00   15.50   1
  -1   1  -6   26.50   20.80   1
   1  -1   6   29.80   13.60   1
  -1  -1  -6   -2.60   21.10   1
   1  -1   6    5.20   17.80   1
  -1  -1  -6   18.40   21.40   1
   1   1   7    3.40   21.60   1
  -1   1  -7    9.30   19.60   1
  -1   1  -7   43.10   22.00   1
   1   1   7   13.60   15.80   1
  -1  -1  -7    0.40   22.40   1
   1  -1   7   25.40   14.30   1
  -1  -1  -7   17.40   19.80   1
   1  -1   7   -4.70   19.90   1
   1   1   8   18.70   23.80   1
  -1   1  -8  122.99   26.70   1
   1   1   8   46.20   18.20   1
  -1  -1  -8   43.60   27.50   1
   1  -1   8   22.10   15.90   1
   1  -1   8   22.50   21.00   1
  -1   1  -9   30.30   21.10   1
   1   1   9   26.40   23.90   1
   1   1   9    4.30   17.00   1
  -1   1  -9   25.60   25.50   1
  -1  -1  -9   78.89   23.80   1
  -1  -1  -9   63.59   27.60   1
   1  -1   9   35.40   23.60   1
   1  -1   9   15.20   15.90   1
  -1   1 -10   52.69   28.10   1
  -1   1 -10   61.99   26.10   1
   1   1  10   44.10   19.70   1
   1   1  10   72.59   26.90   1
   1  -1  10   85.89   26.90   1
  -1  -1 -10   33.80   27.40   1
  -1  -1 -10   85.59   27.40   1
   1  -1  10   54.69   20.20   1
   1  -1  10   53.59   27.20   1
   1   1  11    3.30   19.70   1
  -1   1 -11   22.80   26.10   1
   1   1  11   46.40   28.50   1
  -1   1 -11  -13.70   26.00   1
  -1  -1 -11   -8.20   25.00   1
   1  -1  11   10.60   19.30   1
  -1  -1 -11    4.10   28.00   1
   1  -1  11   13.20   28.00   1
   1  -1  11  -16.10   27.40   1
  -1   1 -12   13.60   31.50   1
  -1   1 -12   72.29   27.40   1
   1   1  12   49.99   24.10   1
   1   1  12   51.89   30.90   1
  -1  -1 -12   43.80   32.30   1
   1  -1  12   88.89   32.50   1
   1  -1  12   89.89   25.90   1
   1  -1  12   90.69   34.10   1
  -1  -1 -12  109.29   29.70   1
  -1   1 -13   22.20   33.40   1
  -1   1 -13   44.90   26.70   1
   1   1  13   61.19   25.80   1
   1   1  13   51.29   33.70   1
   1  -1  13   27.10   23.20   1
   1  -1  13   51.29   33.60   1
  -1  -1 -13   46.00   36.00   1
  -1  -1 -13   52.49   31.40   1
   1  -1  13   -1.50   31.00   1
  -1   1 -14   -9.70   28.70   1
   1   1  14    9.40   40.10   1
  -1   1 -14  -11.40   33.80   1
   1   1  14  -15.20   21.80   1
   1  -1  14   32.20   35.90   1
  -1  -1 -14  -22.70   36.50   1
  -1  -1 -14   -6.10   22.20   1
   1  -1  14   -3.60   23.90   1
   1  -1  14   24.10   36.60   1
  -1   1 -15   51.29   27.90   1
   1   1  15    7.10   44.20   1
   1   1  15   61.79   28.50   1
  -1   1 -15   13.30   38.60   1
  -1  -1 -15   48.00   24.10   1
  -1  -1 -15  -18.60   37.00   1
   1  -1  15   34.90   24.90   1
   1  -1  15   48.90   45.70   1
   1  -1  15   57.79   41.80   1
  -1   1 -16    4.50   40.30   1
   1   1  16   27.20   23.20   1
  -1   1 -16   -5.70   38.80   1
   1  -1  16   -0.60   24.10   1
   1  -1  16   67.69   46.20   1
  -1  -1 -16  -32.60   44.60   1
   1  -2 -16   19.80   33.80   1
   1   2 -15   18.70   43.40   1
   1   2 -15   59.99   36.40   1
  -1   2  15   11.70   25.10   1
  -1  -2  15  -20.90   40.20   1
  -1  -2  15   56.99   47.20   1
   1  -2 -15  -11.40   34.90   1
  -1  -2  15   60.29   28.30   1
   1   2 -14   -0.40   38.50   1
  -1   2  14   31.30   35.60   1
  -1   2  14   18.80   24.30   1
   1   2 -14   24.20   30.00   1
  -1  -2  14   81.59   29.10   1
   1  -2 -14   57.09   33.10   1
  -1  -2  14   -0.80   35.20   1
   1  -2 -14  -10.10   40.20   1
  -1  -2  14   67.59   42.10   1
  -1   2  13   35.60   23.30   1
   1   2 -13   54.09   37.70   1
  -1   2  13   82.99   36.90   1
   1   2 -13   52.29   34.60   1
   1  -2 -13   47.70   37.00   1
   1  -2 -13   38.50   30.50   1
  -1  -2  13  115.29   26.70   1
  -1  -2  13   81.39   37.30   1
   1   2 -12  131.09   37.90   1
  -1   2  12  123.09   28.30   1
   1   2 -12  157.28   35.00   1
  -1   2  12  168.68   38.40   1
   1  -2 -12  195.88   33.80   1
   1  -2 -12  264.27   44.30   1
  -1  -2  12  165.58   28.50   1
  -1  -2  12  144.99   37.00   1
   1   2 -11   75.09   32.40   1
  -1   2  11   18.00   20.90   1
  -1   2  11   79.19   30.90   1
   1   2 -11   65.29   28.00   1
  -1  -2  11   88.89   30.00   1
   1  -2 -11  125.89   35.90   1
  -1  -2  11  106.09   22.00   1
   1  -2 -11   55.29   28.80   1
  -1   2  10   60.79   28.40   1
   1   2 -10   31.60   26.40   1
  -1   2  10   41.40   20.70   1
   1   2 -10   51.79   31.00   1
  -1  -2  10   55.29   25.70   1
   1  -2 -10   66.99   18.10   1
  -1  -2  10   73.79   19.40   1
   1  -2 -10   90.19   29.80   1
   1  -2 -10   59.49   31.40   1
   1   2  -9   46.70   28.10   1
   1   2  -9   18.90   29.60   1
  -1   2   9   18.40   17.10   1
  -1   2   9   39.40   26.50   1
   1   2  -9   -3.00   22.80   1
   1  -2  -9  -19.10   27.40   1
   1  -2  -9   14.20   16.90   1
  -1  -2   9   43.40   23.30   1
  -1  -2   9   40.20   17.10   1
   1   2  -8  159.88   27.40   1
  -1   2   8  182.48   34.30   1
  -1   2   8  158.48   25.90   1
   1   2  -8  218.48   36.40   1
  -1   2   8  132.59   28.10   1
   1   2  -8  122.39   32.90   1
   1  -2  -8  174.38   26.60   1
  -1  -2   8  168.38   31.00   1
   1  -2  -8  216.78   36.50   1
  -1  -2   8  187.08   24.50   1
  -1   2   7   40.60   21.80   1
   1   2  -7   16.70   28.70   1
   1   2  -7   26.30   24.90   1
  -1   2   7   -9.50   22.10   1
  -1   2   7  -13.20   16.30   1
  -1  -2   7   40.60   13.70   1
   1  -2  -7    3.60   24.90   1
  -1  -2   7    4.00   17.40   1
   1  -2  -7    9.60   18.10   1
  -1   2   6  171.38   32.60   1
   1   2  -6  259.77   37.80   1
  -1   2   6  187.28   32.40   1
   1   2  -6  182.18   30.90   1
  -1   2   6  193.28   30.00   1
   1  -2  -6  222.18   26.80   1
  -1  -2   6  219.18   23.30   1
   1  -2  -6  309.07   42.30   1
  -1   2   5   19.20   21.00   1
  -1   2   5   -1.20   16.20   1
  -1   2   5  -13.70   21.50   1
   1   2  -5    0.30   25.70   1
   1   2  -5   17.70   23.70   1
   1  -2  -5   56.89   24.10   1
   1  -2  -5   27.50   18.50   1
  -1   2   4  145.79   22.50   1
  -1   2   4  202.98   30.60   1
  -1   2   4  140.29   27.10   1
   1   2  -4  127.99   28.80   1
   1   2  -4  145.99   31.10   1
   1  -2  -4  183.58   26.30   1
   1  -2  -4  211.58   35.90   1
   1   2  -3   27.40   25.70   1
   1   2  -3   68.69   25.70   1
  -1   2   3   39.40   19.40   1
  -1   2   3   64.39   15.60   1
  -1   2   3   59.89   26.40   1
   1  -2  -3   73.99   22.00   1
   1  -2  -3   45.80   22.20   1
  -1   2   2  278.47   38.60   1
   1   2  -2  260.97   36.00   1
  -1   2   2  186.68   23.00   1
  -1   2   2  170.78   26.50   1
   1  -2  -2  231.18   32.40   1
   1  -2  -2  253.97   33.70   1
   1   2  -1  195.08   32.20   1
  -1   2   1  217.78   33.00   1
  -1   2   1  124.69   18.30   1
   1  -2  -1  239.88   33.00   1
   1   2   0   77.09   13.10   1
   1   2   0   66.89   25.20   1
  -1   2   0   89.69   25.40   1
   1  -2   0   69.59   27.00   1
  -1  -2   0   92.89   26.50   1
   1   2   1  130.89   29.30   1
   1   2   1  181.78   20.50   1
  -1   2  -1  163.08   30.90   1
   1  -2   1  162.78   32.50   1
  -1  -2  -1  140.69   29.20   1
   1   2   2    8.80   18.10   1
   1   2   2   37.10   13.90   1
  -1  -2  -2  -11.70   16.20   1
  -1  -2  -2  -15.50   20.50   1
   1   2   3   85.19   17.70   1
   1   2   3   69.79   22.60   1
   1   2   3   89.29   23.50   1
  -1   2  -3   75.99   25.00   1
  -1  -2  -3   31.90   21.30   1
  -1  -2  -3   57.19   21.60   1
   1  -2   3   98.29   29.80   1
   1   2   4   91.29   18.60   1
   1   2   4   68.29   25.70   1
   1   2   4   60.79   23.60   1
  -1   2  -4   97.09   25.00   1
   1  -2   4   69.29   29.00   1
  -1  -2  -4   62.09   24.10   1
  -1  -2  -4   53.69   20.70   1
   1   2   5   21.60   21.50   1
   1   2   5   42.20   24.70   1
   1   2   5   50.59   17.80   1
  -1   2  -5   91.69   27.80   1
  -1  -2  -5   59.59   24.80   1
  -1  -2  -5   54.49   19.30   1
   1  -2   5   97.49   29.90   1
   1   2   6    7.30   23.80   1
  -1   2  -6   21.90   24.60   1
   1   2   6   16.40   17.50   1
   1   2   6   18.60   22.60   1
  -1  -2  -6   26.20   16.10   1
   1  -2   6   25.30   26.30   1
  -1  -2  -6   21.80   30.80   1
   1  -2   6   33.90   12.30   1
   1   2   7   71.39   20.70   1
   1   2   7   92.19   29.40   1
  -1   2  -7   81.79   29.70   1
   1   2   7   90.19   26.20   1
   1  -2   7   67.89   15.30   1
  -1  -2  -7   81.79   18.30   1
   1  -2   7   91.29   52.49   1
  -1  -2  -7   87.49   26.90   1
  -1   2  -8   87.69   30.20   1
   1   2   8  160.98   33.80   1
   1   2   8  181.68   32.80   1
   1   2   8  120.39   24.70   1
   1  -2   8  127.79   25.40   1
   1  -2   8  125.59   20.20   1
   1  -2   8   95.39   31.20   1
   1   2   9   16.00   26.90   1
  -1   2  -9   45.10   26.00   1
   1   2   9   41.40   21.40   1
  -1   2  -9   19.90   24.90   1
  -1  -2  -9   16.80   26.70   1
   1  -2   9   60.49   23.90   1
   1  -2   9   39.00   18.20   1
   1  -2   9   50.09   30.00   1
  -1   2 -10   15.80   27.00   1
   1   2  10   37.70   21.40   1
   1   2  10   48.00   29.50   1
  -1   2 -10   22.40   28.80   1
  -1  -2 -10   28.80   28.70   1
   1  -2  10   31.80   18.90   1
   1  -2  10   22.30   31.00   1
  -1  -2 -10   41.20   28.60   1
   1  -2  10   43.60   26.40   1
   1   2  11  133.19   35.00   1
  -1   2 -11   44.70   29.90   1
  -1   2 -11  133.39   34.60   1
   1   2  11   79.79   25.20   1
  -1  -2 -11   76.59   28.20   1
   1  -2  11   72.49   22.70   1
   1  -2  11  107.39   32.90   1
  -1  -2 -11  131.49   38.60   1
   1  -2  11  119.89   35.50   1
   1   2  12   50.89   35.00   1
  -1   2 -12  -50.29   31.60   1
  -1   2 -12   39.30   32.40   1
   1   2  12   15.70   20.40   1
  -1  -2 -12   -2.80   33.10   1
   1  -2  12    8.40   32.70   1
  -1  -2 -12   48.80   31.00   1
   1  -2  12   41.10   23.40   1
   1   2  13   73.89   36.90   1
  -1   2 -13   23.60   37.80   1
  -1   2 -13   47.90   28.20   1
   1   2  13   51.19   27.10   1
   1  -2  13   -7.30   46.80   1
  -1  -2 -13  -28.60   36.30   1
   1  -2  13   34.70   35.90   1
  -1  -2 -13   60.89   33.40   1
   1  -2  13   39.00   25.70   1
   1   2  14   -2.70   26.00   1
  -1   2 -14    8.90   31.00   1
  -1   2 -14  -54.79   36.90   1
   1  -2  14  -39.80   23.10   1
   1  -2  14  -20.00   37.20   1
   1  -2  14   75.99   49.00   1
  -1  -2 -14  -59.29   39.70   1
  -1  -2 -14   23.00   34.10   1
   1   2  15   -5.20   26.70   1
  -1   2 -15   -4.70   36.80   1
  -1   2 -15  -13.00   43.20   1
   1  -2  15   34.70   29.20   1
   1  -2  15   -7.50   44.20   1
   1  -2  15   51.49   54.59   1
  -1  -2 -15   62.49   55.19   1
  -1   3  14   51.29   28.40   1
   1   3 -14   45.90   41.20   1
   1  -3 -14   35.20   33.40   1
  -1  -3  14   18.50   54.99   1
  -1  -3  14   39.60   41.70   1
  -1   3  13   82.59   28.70   1
   1   3 -13   74.79   38.20   1
  -1  -3  13  138.39   59.69   1
   1  -3 -13   11.00   43.10   1
   1  -3 -13   56.29   32.00   1
  -1  -3  13   73.49   41.80   1
  -1  -3  13    9.80   34.00   1
  -1   3  12  387.06   45.70   1
  -1   3  12  317.87   57.29   1
   1   3 -12  294.97   52.29   1
   1  -3 -12  408.76   49.90   1
  -1  -3  12  219.88   50.89   1
  -1  -3  12  401.86   44.20   1
  -1  -3  12  169.68   50.59   1
   1  -3 -12  323.47   55.39   1
   1   3 -11  204.08   43.40   1
  -1   3  11  166.28   33.60   1
  -1   3  11  279.07   47.70   1
   1  -3 -11  214.88   44.70   1
  -1  -3  11  252.27   36.90   1
  -1  -3  11  147.39   37.60   1
  -1  -3  11  170.98   44.30   1
   1   3 -10    6.50   32.70   1
  -1   3  10   29.90   30.10   1
  -1   3  10   42.30   33.10   1
  -1   3  10   61.69   24.20   1
  -1  -3  10   34.00   36.60   1
   1  -3 -10   50.99   26.70   1
   1  -3 -10  124.09   38.70   1
  -1   3   9   46.50   31.40   1
  -1   3   9  -21.30   18.40   1
  -1   3   9  -19.60   24.00   1
   1   3  -9    1.40   31.40   1
   1  -3  -9   52.89   26.40   1
  -1  -3   9   -4.00   33.60   1
   1  -3  -9   56.99   33.80   1
  -1   3   8   37.00   27.30   1
  -1   3   8   46.10   20.30   1
  -1   3   8   29.60   29.80   1
   1   3  -8   30.60   27.60   1
   1  -3  -8   10.80   30.30   1
  -1  -3   8   46.20   33.40   1
  -1   3   7   41.70   18.80   1
  -1   3   7   23.40   26.10   1
   1   3  -7   38.10   28.70   1
  -1   3   7   -9.70   23.80   1
  -1  -3   7   84.99   34.40   1
   1  -3  -7   16.10   24.20   1
  -1   3   6  -28.20   22.00   1
   1   3  -6   32.20   24.40   1
  -1   3   6   19.10   25.90   1
  -1   3   6   20.50   18.60   1
  -1  -3   6  -17.80   29.00   1
   1  -3  -6  -25.20   26.30   1
   1  -3  -6    6.00   24.50   1
  -1   3   5   74.39   19.60   1
   1   3  -5   21.90   25.40   1
  -1   3   5   67.69   27.00   1
  -1   3   5   86.09   29.10   1
  -1  -3   5   68.89   33.40   1
   1  -3  -5   86.09   26.60   1
  -1   3   4   73.09   25.20   1
   1   3  -4   91.39   29.10   1
  -1   3   4   79.29   18.70   1
  -1   3   4   36.40   23.90   1
   1  -3  -4   62.09   26.90   1
   1  -3  -4   24.60   24.80   1
  -1  -3   4   19.70   29.60   1
   1   3  -3   46.00   25.60   1
  -1   3   3   68.79   25.20   1
  -1   3   3   63.69   16.90   1
  -1   3   3   54.59   21.50   1
   1  -3  -3   37.90   21.70   1
  -1  -3   3   49.00   30.80   1
   1  -3  -3   90.99   29.10   1
   1   3  -2   21.50   25.30   1
  -1   3   2    6.20   25.30   1
  -1   3   2   21.50   13.90   1
   1  -3  -2   28.90   26.70   1
   1  -3  -2   18.70   20.30   1
  -1  -3   2   35.30   29.20   1
   1   3  -1  175.38   35.20   1
  -1   3   1  201.28   34.10   1
  -1   3   1  135.59   20.50   1
  -1  -3   1  221.38   37.70   1
   1  -3  -1  240.68   45.40   1
   1   3   0  241.48   40.00   1
   1   3   0  168.58   22.50   1
  -1   3   0  179.28   35.10   1
  -1  -3   0  166.08   36.90   1
   1  -3   0  255.87   39.50   1
  -1   3  -1   15.00   25.50   1
   1   3   1   27.80   29.30   1
   1   3   1   -1.20   12.10   1
   1  -3   1   16.20   26.50   1
  -1  -3  -1    6.50   26.00   1
   1   3   2  193.58   34.30   1
  -1   3  -2  241.88   39.80   1
   1   3   2  222.58   27.90   1
   1   3   2  263.17   37.70   1
  -1  -3  -2  179.88   35.10   1
   1  -3   2  306.27   43.20   1
  -1  -3  -2  318.87   41.00   1
   1   3   3  230.78   37.40   1
  -1   3  -3  242.88   37.40   1
   1   3   3  215.68   36.60   1
  -1  -3  -3  238.88   35.10   1
  -1  -3  -3  296.77   40.00   1
   1  -3   3  247.58   40.00   1
   1   3   4  476.55   50.39   1
   1   3   4  404.96   49.99   1
  -1   3  -4  476.05   53.49   1
   1   3   4  441.36   41.70   1
  -1  -3  -4  445.26   50.49   1
  -1  -3  -4  435.66   49.50   1
   1  -3   4  433.36   59.89   1
   1   3   5  125.89   31.20   1
  -1   3  -5  108.39   32.90   1
   1   3   5   94.19   29.10   1
   1  -3   5  115.99   34.20   1
  -1  -3  -5   95.29   28.60   1
  -1  -3  -5  118.59   30.10   1
   1   3   6    1.20   22.30   1
  -1   3  -6   14.20   25.50   1
   1   3   6   32.80   34.60   1
   1   3   6    5.90   17.20   1
   1  -3   6   48.20   30.20   1
  -1  -3  -6   20.50   25.90   1
  -1   3  -7   -9.20   25.60   1
   1   3   7   84.29   29.90   1
   1   3   7   42.90   21.50   1
   1   3   7  108.29   31.50   1
  -1  -3  -7   57.99   29.20   1
  -1  -3  -7   35.50   26.10   1
   1  -3   7   32.50   31.00   1
   1   3   8   36.70   21.50   1
  -1   3  -8   54.79   31.50   1
   1   3   8   19.20   30.20   1
   1   3   8   17.70   24.60   1
   1  -3   8   49.60   33.30   1
  -1  -3  -8   32.80   29.40   1
  -1  -3  -8   -4.50   22.30   1
   1   3   9   55.09   33.60   1
   1   3   9   44.80   29.40   1
   1   3   9   33.10   22.20   1
  -1   3  -9   39.10   29.80   1
   1  -3   9   30.50   33.50   1
  -1  -3  -9   45.30   26.00   1
  -1  -3  -9   31.10   34.00   1
   1   3  10   10.00   28.60   1
   1   3  10   55.19   25.00   1
  -1   3 -10   24.40   33.30   1
   1   3  10   65.69   36.10   1
  -1  -3 -10   43.30   37.50   1
   1  -3  10   77.09   36.90   1
   1   3  11   59.39   42.50   1
  -1   3 -11   34.60   32.50   1
   1   3  11   23.80   24.10   1
  -1  -3 -11   45.20   40.50   1
   1  -3  11   42.50   36.60   1
   1   3  12   24.10   39.30   1
   1   3  12   -0.70   23.70   1
  -1   3 -12   13.80   38.00   1
  -1  -3 -12   15.40   30.70   1
   1  -3  12   27.10   37.30   1
  -1  -3 -12  -48.50   38.00   1
   1  -3  12  -24.10   34.90   1
   1  -3  12   46.90   31.50   1
   1   3  13   62.69   30.20   1
   1  -3  13   14.00   42.30   1
   1  -3  13  109.09   50.39   1
   1  -3  13   95.19   38.80   1
   1   3  14  -24.80   24.30   1
  -1  -3 -14    7.10   34.50   1
   1  -3  14   -1.60   41.90   1
  -1   4  11  105.29   48.90   1
   1   4 -11   39.90   34.70   1
  -1   4  11   47.80   28.80   1
  -1   4  11   50.39   33.10   1
   1  -4 -11  -84.39   40.90   1
  -1  -4  11   56.09   50.79   1
  -1   4  10   36.30   27.50   1
   1   4 -10   10.80   32.20   1
  -1   4  10   -0.50   32.20   1
  -1   4  10   54.09   43.10   1
  -1  -4  10  -39.90   37.20   1
   1  -4 -10  -26.70   36.70   1
  -1   4   9   59.39   26.80   1
  -1   4   9   57.69   41.00   1
   1   4  -9    4.30   32.60   1
  -1   4   9   46.90   33.30   1
   1  -4  -9   78.29   33.40   1
   1  -4  -9   24.90   39.10   1
  -1  -4   9   49.99   40.30   1
  -1   4   8    0.00   20.60   1
  -1   4   8   23.40   38.80   1
   1   4  -8  -25.10   31.50   1
  -1   4   8   30.50   29.80   1
  -1  -4   8   11.20   36.30   1
   1  -4  -8  -56.49   28.50   1
   1  -4  -8  -77.29   33.60   1
  -1   4   7    5.50   34.80   1
   1   4  -7   39.20   33.00   1
  -1   4   7   17.10   30.20   1
  -1   4   7   17.10   22.30   1
   1  -4  -7   35.40   31.80   1
   1  -4  -7    6.30   34.70   1
  -1  -4   7   42.40   36.30   1
  -1   4   6   35.20   21.90   1
  -1   4   6   45.70   31.90   1
   1   4  -6   40.60   32.40   1
  -1   4   6   21.70   26.20   1
  -1  -4   6   58.49   37.60   1
   1  -4  -6   16.10   34.00   1
   1  -4  -6   23.60   33.60   1
  -1   4   5   89.79   34.60   1
  -1   4   5   71.19   22.10   1
   1   4  -5   55.69   33.90   1
   1  -4  -5   70.89   31.10   1
  -1  -4   5   55.19   35.70   1
   1  -4  -5   51.69   32.80   1
   1   4  -4   42.00   30.30   1
  -1   4   4   44.10   28.80   1
  -1   4   4   44.50   19.20   1
  -1   4   4   48.60   29.00   1
   1  -4  -4   70.09   37.30   1
  -1  -4   4   48.20   36.00   1
   1  -4  -4   46.60   31.00   1
  -1   4   3  -10.20   29.50   1
  -1   4   3   30.00   19.20   1
   1   4  -3   21.40   28.50   1
  -1   4   3   58.29   26.60   1
  -1  -4   3   29.20   33.60   1
   1  -4  -3   18.50   32.10   1
   1  -4  -3  -23.20   23.50   1
  -1   4   2  358.66   52.49   1
  -1   4   2  424.46   40.80   1
   1   4  -2  432.06   52.59   1
   1  -4  -2  434.26   58.99   1
  -1  -4   2  465.45   60.79   1
   1   4  -1  566.64   64.29   1
  -1   4   1  676.03   65.09   1
   1  -4  -1  609.04   68.49   1
  -1  -4   1  521.75   65.69   1
   1   4   0  472.85   57.29   1
  -1   4   0  487.45   56.79   1
  -1  -4   0  382.16   59.79   1
   1  -4   0  484.15   63.79   1
   1   4   1   81.69   20.40   1
   1   4   1   46.40   32.80   1
  -1   4  -1  118.99   31.80   1
  -1  -4  -1   82.59   34.10   1
   1  -4   1  159.38   37.90   1
  -1  -4  -1   23.10   26.30   1
   1   4   2   18.90   27.50   1
  -1   4  -2   33.70   30.50   1
   1   4   2   -2.00   22.50   1
  -1  -4  -2   14.60   31.00   1
  -1  -4  -2  -37.50   28.60   1
   1  -4   2  -23.90   31.10   1
   1   4   3   72.29   33.70   1
  -1   4  -3   56.59   31.30   1
   1   4   3  106.59   30.80   1
   1   4   3   41.20   19.20   1
   1  -4   3  140.69   38.90   1
  -1  -4  -3   77.79   36.00   1
  -1  -4  -3  -13.80   31.10   1
   1   4   4   86.59   30.40   1
   1   4   4  122.29   33.60   1
  -1   4  -4  106.39   37.00   1
   1   4   4  115.19   24.20   1
  -1  -4  -4   44.00   34.90   1
  -1  -4  -4   88.29   33.50   1
   1  -4   4   51.89   34.70   1
   1   4   5  242.38   34.80   1
   1   4   5  223.88   40.50   1
  -1   4  -5  197.78   39.50   1
  -1  -4  -5  178.98   45.00   1
   1  -4   5  195.68   42.80   1
  -1  -4  -5  304.37   42.90   1
  -1   4  -6  221.18   42.60   1
   1   4   6  222.78   36.40   1
   1   4   6  332.07   49.10   1
   1   4   6  220.18   41.50   1
  -1  -4  -6  369.36   50.49   1
   1  -4   6  315.77   51.59   1
  -1  -4  -6  219.58   47.20   1
   1   4   7  101.29   32.10   1
  -1   4  -7   53.39   33.30   1
   1   4   7   94.99   24.30   1
   1   4   7   50.19   34.40   1
  -1  -4  -7  100.09   46.90   1
   1  -4   7   77.29   39.70   1
  -1  -4  -7   83.89   36.20   1
   1   4   8    7.90   20.70   1
   1   4   8   95.29   37.80   1
  -1   4  -8   63.19   34.40   1
   1   4   8   47.90   30.80   1
  -1  -4  -8   18.00   32.60   1
  -1  -4  -8  -32.00   39.80   1
   1  -4   8   61.99   40.50   1
   1   4   9   90.89   46.00   1
  -1   4  -9   34.20   35.90   1
   1   4   9   73.89   24.90   1
   1   4   9   62.09   34.60   1
  -1  -4  -9   77.99   35.10   1
  -1  -4  -9  -17.40   40.90   1
   1  -4   9    5.80   37.80   1
   1   4  10   -9.90   36.30   1
   1   4  10   22.60   41.90   1
   1   4  10   36.00   24.70   1
  -1   4 -10  -15.10   40.40   1
   1  -4  10   -0.10   39.20   1
  -1  -4 -10  -67.99   42.60   1
   1   4  11   33.10   26.30   1
   1   4  11   -2.70   32.10   1
  -1   4 -11   -6.20   34.90   1
   1  -4  11   -9.40   39.30   1
  -1  -4 -11  -64.29   45.50   1
  -1   5   6   59.59   33.60   1
   1   5  -6  134.79   39.20   1
  -1   5   6  117.99   31.10   1
  -1   5   6  136.59   48.10   1
  -1  -5   6  116.59   46.10   1
   1  -5  -6  197.28   49.10   1
   1  -5  -6  117.49   55.99   1
   1   5  -5   35.10   36.10   1
  -1   5   5  120.69   28.20   1
  -1   5   5  142.79   45.60   1
  -1   5   5   40.80   33.20   1
   1  -5  -5   52.89   39.50   1
  -1  -5   5   66.99   44.10   1
   1  -5  -5    0.20   55.29   1
  -1   5   4  203.48   43.50   1
   1   5  -4  190.18   44.80   1
  -1   5   4  159.88   47.20   1
   1  -5  -4   52.79   44.10   1
   1  -5  -4  276.37   48.30   1
  -1  -5   4  254.07   75.09   1
  -1  -5   3   51.49   38.90   1
   1  -5  -3  -11.30   36.70   1
   1  -5  -3   43.00   36.60   1
   1   5  -2   95.19   51.59   1
   1  -5  -2   88.19   41.20   1
  -1  -5   2  111.49   44.50   1
  -1   5   1   86.59   39.20   1
   1   5  -1   53.49   35.40   1
  -1  -5   1   77.09   43.70   1
   1  -5  -1   -2.40   36.70   1
   1   5   0   56.39   39.70   1
  -1   5   0   35.30   34.40   1
   1  -5   0  -27.00   34.90   1
  -1  -5   0   61.99   40.80   1
  -1   5  -1   48.70   50.29   1
   1   5   1   21.10   34.60   1
   1  -5   1   45.70   40.30   1
  -1  -5  -1   40.30   41.70   1
   1  -5   2   73.29   44.50   1
  -1  -5  -2  156.68   45.20   1
  -1  -5  -2   -3.70   37.10   1
  -1   5  -3   82.09   45.70   1
   1   5   3  143.29   51.69   1
  -1  -5  -3  -29.60   36.80   1
  -1  -5  -3   70.69   39.80   1
   1  -5   3   61.69   52.79   1
   1   5   4  387.56   65.49   1
   1   5   4  325.97   44.80   1
   1   5   4  225.68   45.90   1
  -1  -5  -4  367.16   55.79   1
   1  -5   4  358.06   60.79   1
   1   5   5   12.20   33.30   1
  -1   5  -5    4.20   34.40   1
   1   5   5   -8.20   38.90   1
   1   5   5   30.00   24.50   1
  -1  -5  -5  -34.90   43.50   1
   1  -5   5   53.29   42.10   1
  -1  -5  -5   12.90   38.00   1
   1   5   6   50.69   33.30   1
   1   5   6  106.89   29.00   1
   1   5   6   94.99   48.80   1
  -1   5  -6   52.99   39.30   1
   1  -5   6   70.69   43.80   1
  -1  -5  -6  -28.50   38.20   1
  -1  -5  -6   -1.50   48.10   1
   2   0 -17  138.69   56.19   1
  -2   0  16   48.40   35.90   1
  -2   0  16    5.10   23.10   1
   2   0 -16    1.50   27.80   1
   2   0 -16  -38.50   36.90   1
   2   0 -15  268.37   43.10   1
   2   0 -15  173.78   47.20   1
  -2   0  15  375.46   56.49   1
  -2   0  15  283.17   38.30   1
   2   0 -14  831.12   75.89   1
  -2   0  14  957.60   84.99   1
  -2   0  14  878.61   76.09   1
   2   0 -14  883.21   99.19   1
   2   0 -14  868.61   83.69   1
  -2   0  13 1130.59   87.29   1
   2   0 -13  868.11   94.09   1
  -2   0  13 1064.69   95.29   1
   2   0 -13 1086.19   87.49   1
   2   0 -13 1065.79   92.69   1
   2   0 -12  635.44   61.19   1
  -2   0  12  709.83   67.89   1
  -2   0  12  639.94   59.79   1
   2   0 -12  684.13   66.89   1
   2   0 -12  680.03   64.19   1
  -2   0  11 1182.18   96.29   1
   2   0 -11 1054.49   90.39   1
   2   0 -11 1080.59   94.79   1
   2   0 -11 1150.48   90.39   1
  -2   0  11 1173.48   90.19   1
  -2   0  10 1171.18   92.19   1
   2   0 -10  914.71   77.59   1
   2   0 -10  926.21   78.89   1
   2   0 -10  993.60   84.59   1
  -2   0  10  906.61   77.69   1
   2   0  -9  956.20   77.59   1
   2   0  -9  862.21   70.49   1
  -2   0   9  848.82   71.19   1
  -2   0   9  813.92   76.59   1
   2   0  -9  901.21   72.19   1
   2   0  -8 5509.95  401.56   1
   2   0  -8 5593.64  405.06   1
  -2   0   8 5425.06  402.66   1
  -2   0   8 5549.94  405.36   1
   2   0  -8 5727.83  401.76   1
  -2   0   7  -33.70   12.90   1
  -2   0   7  -21.60   19.40   1
   2   0  -7   29.70   21.30   1
   2   0  -7   34.60   17.00   1
   2   0  -7    8.00   15.60   1
   2   0  -6  892.01   73.69   1
   2   0  -6  834.42   68.59   1
   2   0  -6  923.91   67.39   1
  -2   0   6  882.51   68.89   1
  -2   0   6  831.62   73.89   1
   2   0  -5  786.92   61.39   1
   2   0  -5  646.14   56.29   1
   2   0  -5  635.14   54.89   1
  -2   0   5  791.42   62.39   1
  -2   0   5  749.53   56.99   1
   2   0  -4  343.77   34.40   1
   2   0  -4  202.48   29.10   1
   2   0  -4  283.07   26.60   1
  -2   0   4  303.67   28.70   1
   2   0  -3  631.04   48.90   1
  -2   0   3  616.94   48.50   1
   2   0  -3  583.94   43.80   1
   2   0  -3  505.95   45.40   1
  -2   0   3  554.54   45.10   1
  -2   0   2  495.05   37.30   1
  -2   0   2  503.55   39.80   1
   2   0  -2  440.06   35.90   1
   2   0  -2  517.05   39.60   1
  -2   0  -1  475.15   38.60   1
   2   0   1  562.24   38.70   1
   2   0   1  439.26   38.30   1
  -2   0  -1  546.85   40.80   1
   2   0   1  536.05   40.80   1
   2   0   2 1488.95  110.19   1
   2   0   2 1491.05  108.39   1
  -2   0  -2 1418.16  108.49   1
  -2   0  -2 1542.65  110.49   1
   2   0   3  821.02   63.09   1
  -2   0  -3  948.61   62.99   1
   2   0   3  728.73   61.79   1
  -2   0  -3  796.12   66.09   1
   2   0   3  832.12   66.99   1
   2   0   4 3801.42  314.67   1
  -2   0  -4 4949.40  316.07   1
   2   0   4 4409.36  316.27   1
  -2   0  -4 4387.76  318.47   1
   2   0   4 4374.76  318.27   1
   2   0   5 7366.66  538.85   1
  -2   0  -5 7987.60  538.45   1
   2   0   5 7226.98  540.85   1
  -2   0  -5 7906.81  541.35   1
   2   0   5 6979.60  537.25   1
  -2   0  -6 2029.60  154.28   1
   2   0   6 2057.09  153.38   1
   2   0   6 2059.99  158.18   1
   2   0   6 2112.69  155.08   1
  -2   0  -6 2243.68  158.58   1
   2   0   7 3128.29  234.68   1
  -2   0  -7 3096.69  234.58   1
   2   0   7 3150.38  231.58   1
  -2   0  -7 3351.66  230.98   1
   2   0   7 3089.79  229.58   1
   2   0   8 1528.05  113.19   1
  -2   0  -8 1483.15  117.99   1
   2   0   8 1485.55  117.79   1
  -2   0  -8 1408.96  112.29   1
   2   0   8 1508.25  111.19   1
  -2   0  -9 1404.86  109.19   1
   2   0   9 1308.67  100.69   1
   2   0   9 1298.47  102.79   1
   2   0   9 1364.16  108.09   1
  -2   0  -9 1271.87  102.19   1
   2   0  10  125.89   25.10   1
   2   0  10  125.29   23.80   1
   2   0  10   95.79   30.00   1
  -2   0 -10  123.79   32.00   1
  -2   0 -10  157.68   29.20   1
   2   0  11  431.16   45.70   1
   2   0  11  433.36   55.09   1
  -2   0 -11  431.46   45.30   1
  -2   0 -11  370.66   53.39   1
   2   0  11  446.16   44.70   1
   2   0  12   22.20   29.60   1
  -2   0 -12  -20.70   29.60   1
   2   0  12   17.80   25.00   1
   2   0  12    2.20   19.70   1
  -2   0 -12   25.60   24.10   1
   2   0  13   23.90   20.70   1
  -2   0 -13   12.30   23.70   1
  -2   0 -13   -0.90   34.20   1
   2   0  13   16.90   30.30   1
  -2   0 -14   35.90   28.50   1
   2   0  14   15.60   22.40   1
  -2   0 -14  -18.30   40.40   1
   2   0  14   24.80   34.10   1
   2   0  15   66.99   45.60   1
  -2   0 -15   15.00   27.10   1
  -2   0 -15  -28.50   39.30   1
   2   0  15   -9.40   22.40   1
  -2   0 -16  -67.69   44.40   1
   2   0  16    9.40   25.00   1
  -2   0 -16  -23.60   47.60   1
   2   1 -17   51.99   33.80   1
   2  -1 -17   62.69   30.80   1
   2   1 -16  -11.40   40.30   1
   2   1 -16  -27.90   28.10   1
  -2   1  16   71.09   35.90   1
   2  -1 -16  -10.00   26.80   1
  -2  -1  16   99.19   46.60   1
  -2  -1  16   40.70   26.70   1
  -2   1  15   28.30   34.80   1
  -2   1  15   20.30   22.70   1
   2   1 -15   38.00   29.60   1
   2   1 -15   33.90   45.90   1
  -2  -1  15   53.49   24.10   1
   2  -1 -15  -23.50   32.30   1
   2  -1 -15    2.60   25.00   1
  -2  -1  15   90.59   39.10   1
  -2   1  14  107.09   37.10   1
   2   1 -14   81.49   28.30   1
  -2   1  14  107.79   26.10   1
   2   1 -14   59.09   35.00   1
   2   1 -14  127.39   40.10   1
   2  -1 -14   74.59   30.20   1
  -2  -1  14  111.59   26.40   1
   2  -1 -14   73.99   36.90   1
  -2  -1  14   82.39   33.30   1
   2   1 -13  207.78   41.40   1
   2   1 -13  245.98   38.40   1
  -2   1  13  225.98   39.20   1
  -2   1  13  201.28   31.60   1
   2   1 -13  131.79   36.20   1
  -2  -1  13  187.28   31.40   1
  -2  -1  13  269.47   47.20   1
   2  -1 -13  172.18   39.00   1
   2  -1 -13  247.78   38.80   1
   2   1 -12  606.54   98.39   1
   2   1 -12  542.65   53.29   1
  -2   1  12  550.24   60.49   1
   2   1 -12  417.56   58.99   1
  -2   1  12  524.75   50.49   1
  -2  -1  12  472.75   56.49   1
   2  -1 -12  487.35   50.29   1
   2  -1 -12  497.05   51.39   1
  -2  -1  12  509.75   49.30   1
   2  -1 -12  485.55   60.49   1
  -2   1  11  261.87   43.90   1
  -2   1  11  203.88   33.20   1
   2   1 -11  285.57   41.10   1
   2   1 -11  262.87   38.80   1
   2   1 -11  266.07   45.50   1
   2  -1 -11  235.58   33.20   1
   2  -1 -11  206.88   34.50   1
  -2  -1  11  217.38   31.50   1
  -2  -1  11  351.46   47.30   1
   2  -1 -11  231.18   39.80   1
   2   1 -10  560.04   52.69   1
   2   1 -10  490.45   58.09   1
   2   1 -10  489.25   56.49   1
  -2   1  10  497.35   49.30   1
  -2   1  10  512.75   56.79   1
   2  -1 -10  645.14   60.09   1
   2  -1 -10  508.15   49.90   1
  -2  -1  10  549.35   48.50   1
   2  -1 -10  513.45   47.40   1
  -2  -1  10  511.45   54.49   1
   2   1  -9  189.68   32.70   1
  -2   1   9  174.98   26.70   1
   2   1  -9  171.58   29.90   1
   2  -1  -9  195.98   27.20   1
  -2  -1   9  176.78   27.70   1
   2  -1  -9  258.37   41.30   1
  -2  -1   9  124.79   28.90   1
  -2   1   8  570.34   56.69   1
   2   1  -8  553.54   53.29   1
  -2   1   8  543.15   50.49   1
   2   1  -8  589.34   55.69   1
  -2  -1   8  568.84   48.60   1
   2  -1  -8  593.64   50.79   1
  -2  -1   8  509.75   54.79   1
   2  -1  -8  515.55   46.60   1
   2  -1  -8  602.94   58.19   1
  -2   1   7  568.44   55.79   1
  -2   1   7  535.45   49.80   1
   2   1  -7  585.34   53.59   1
   2   1  -7  518.85   55.29   1
   2   1  -7  501.35   54.49   1
   2  -1  -7  628.14   56.59   1
  -2  -1   7  557.44   47.40   1
   2  -1  -7  565.84   45.40   1
   2  -1  -7  553.44   54.49   1
  -2  -1   7  532.25   53.59   1
   2   1  -6  490.25   46.00   1
   2   1  -6  445.56   47.20   1
  -2   1   6  479.85   50.09   1
   2   1  -6  520.85   46.90   1
  -2   1   6  431.26   43.00   1
   2  -1  -6  542.65   50.69   1
   2  -1  -6  447.46   39.00   1
  -2  -1   6  449.76   40.30   1
  -2   1   5   38.30   16.70   1
   2   1  -5   48.20   20.50   1
   2   1  -5   20.70   16.90   1
  -2   1   5   17.30   22.40   1
  -2   1   5   38.20   19.80   1
   2   1  -5   32.70   20.00   1
  -2  -1   5   40.20   13.90   1
  -2  -1   5   85.19   19.00   1
   2  -1  -5   68.09   22.20   1
   2  -1  -5   45.80   15.20   1
  -2   1   4  956.30   72.59   1
   2   1  -4  899.21   73.89   1
   2   1  -4  885.21   72.49   1
   2   1  -4  832.22   75.29   1
  -2   1   4  887.31   72.29   1
  -2   1   4  883.31   77.29   1
   2  -1  -4 1057.19   76.79   1
   2  -1  -4  917.31   71.79   1
  -2  -1   4  978.90   69.99   1
  -2  -1   4 1034.80   72.29   1
  -2   1   3 1709.03  128.19   1
  -2   1   3 1715.33  130.39   1
   2   1  -3 1971.60  130.39   1
  -2   1   3 1655.63  127.69   1
   2   1  -3 1828.12  127.39   1
   2   1  -3 1685.13  128.69   1
   2  -1  -3 1809.32  130.19   1
  -2  -1   3 1641.94  125.99   1
   2  -1  -3 1640.94  127.59   1
  -2  -1   3 1721.03  127.49   1
   2   1  -2  387.56   37.40   1
  -2   1   2  370.56   36.90   1
   2   1  -2  407.76   39.70   1
  -2   1   2  442.46   33.60   1
  -2  -1   2  319.27   31.50   1
   2  -1  -2  388.56   39.00   1
   2  -1  -2  458.75   37.00   1
  -2   1   1  274.67   25.90   1
   2   1  -1  348.67   32.30   1
   2   1  -1  257.17   31.20   1
  -2   1   1  258.47   30.80   1
   2   1  -1  282.87   25.20   1
   2  -1  -1  371.96   33.50   1
   2  -1  -1  329.07   29.40   1
  -2  -1   1  279.77   28.30   1
   2   1   0 3531.95  266.37   1
   2   1   0 4119.19  267.87   1
  -2   1   0 3397.36  268.07   1
  -2   1   0 3401.16  265.57   1
   2   1   0 3388.06  268.07   1
   2  -1   0 4285.67  268.87   1
  -2  -1   0 3831.42  267.77   1
  -2   1  -1 4869.31  357.16   1
   2   1   1 5606.14  356.36   1
   2   1   1 4856.81  355.96   1
   2   1   1 4649.53  357.06   1
   2   1   1 4887.71  356.96   1
  -2  -1  -1 4820.52  357.36   1
   2   1   2  684.43   63.69   1
  -2   1  -2  714.43   62.69   1
   2   1   2  776.02   60.09   1
   2   1   2  788.82   61.49   1
   2   1   2  867.81   60.59   1
   2  -1   2  909.21   66.69   1
  -2  -1  -2  690.73   63.39   1
   2   1   3 4480.05  304.37   1
   2   1   3 4063.99  306.17   1
  -2   1  -3 4309.77  304.87   1
   2   1   3 4111.59  303.97   1
   2  -1   3 4160.78  305.57   1
   2  -1   3 4289.07  302.27   1
  -2  -1  -3 4213.18  302.47   1
  -2  -1  -3 4004.50  306.07   1
   2   1   4 2003.10  134.09   1
   2   1   4 1675.83  136.89   1
   2   1   4 1822.12  134.09   1
  -2   1  -4 1844.32  135.29   1
  -2   1  -4 1800.62  133.59   1
   2  -1   4 1754.72  136.09   1
  -2  -1  -4 1743.03  137.19   1
   2  -1   4 1839.22  131.89   1
   2  -1   4 1746.43  133.79   1
  -2   1  -5  183.08   31.80   1
   2   1   5  226.58   37.60   1
   2   1   5  236.88   29.90   1
  -2   1  -5  274.77   34.90   1
   2  -1   5  272.27   25.80   1
   2  -1   5  228.48   32.40   1
   2  -1   5  261.07   40.10   1
  -2  -1  -5  223.78   36.20   1
   2   1   6 1175.28   91.39   1
   2   1   6 1160.38   96.19   1
  -2   1  -6 1153.48   92.69   1
  -2   1  -6 1158.28   91.69   1
  -2  -1  -6 1273.17   92.69   1
   2  -1   6 1222.28   89.29   1
   2  -1   6 1144.69   94.19   1
   2  -1   6 1137.69   92.49   1
  -2  -1  -6 1149.29   95.39   1
   2   1   7 1827.22  135.89   1
  -2   1  -7 1797.42  137.79   1
  -2   1  -7 1817.52  136.59   1
   2   1   7 1767.02  140.09   1
  -2  -1  -7 1839.02  135.79   1
   2  -1   7 1786.32  138.09   1
   2  -1   7 1811.12  134.09   1
   2  -1   7 1774.32  137.39   1
   2   1   8   59.79   26.90   1
  -2   1  -8   59.09   23.90   1
   2   1   8   63.29   20.90   1
  -2   1  -8   89.09   24.70   1
  -2  -1  -8   60.39   28.50   1
   2  -1   8   47.10   25.10   1
   2  -1   8   55.49   24.60   1
   2  -1   8   66.89   23.20   1
  -2  -1  -8  122.79   24.20   1
  -2   1  -9 1023.20   90.09   1
   2   1   9 1179.68   95.29   1
  -2   1  -9 1095.59   92.29   1
   2   1   9 1094.59   89.09   1
  -2  -1  -9 1108.39   88.59   1
   2  -1   9 1146.49   87.49   1
   2  -1   9 1124.19   92.79   1
   2   1  10  247.98   35.30   1
  -2   1 -10  245.48   44.00   1
  -2   1 -10  265.47   37.80   1
   2   1  10  276.77   43.20   1
   2  -1  10  243.08   37.00   1
   2  -1  10  293.37   43.00   1
   2  -1  10  295.57   43.30   1
  -2  -1 -10  271.27   45.80   1
  -2  -1 -10  225.68   37.30   1
  -2   1 -11  752.82   71.79   1
   2   1  11  706.43   71.79   1
   2   1  11  658.63   62.79   1
  -2   1 -11  650.33   64.99   1
   2  -1  11  710.93   69.19   1
  -2  -1 -11  771.22   72.19   1
   2  -1  11  703.43   62.19   1
   2  -1  11  732.73   68.19   1
  -2  -1 -11  669.23   64.09   1
  -2   1 -12   19.90   30.60   1
  -2   1 -12   34.70   28.70   1
   2   1  12   67.39   25.20   1
   2   1  12   40.50   29.80   1
   2  -1  12   26.80   30.80   1
   2  -1  12    9.10   21.10   1
  -2  -1 -12    4.40   31.40   1
   2  -1  12   45.30   29.60   1
  -2  -1 -12  121.39   32.60   1
   2   1  13  418.96   66.59   1
  -2   1 -13  346.77   49.30   1
   2   1  13  356.56   46.20   1
   2  -1  13  364.96   45.40   1
   2  -1  13  494.35   57.59   1
  -2  -1 -13  413.46   51.09   1
   2  -1  13  406.06   61.79   1
  -2  -1 -13  447.16   60.99   1
  -2   1 -14  -34.00   35.80   1
   2   1  14   50.29   24.70   1
   2   1  14   25.70   41.70   1
  -2   1 -14   66.39   30.30   1
  -2  -1 -14  -27.00   37.10   1
   2  -1  14   92.39   43.20   1
   2  -1  14   58.69   26.70   1
  -2  -1 -14   69.09   23.90   1
   2   1  15   48.90   26.90   1
  -2   1 -15   14.30   28.30   1
  -2   1 -15   14.00   38.90   1
  -2  -1 -15   33.80   27.50   1
   2  -1  15   51.09   25.70   1
   2  -1  15   71.69   45.70   1
  -2  -1 -15  -11.20   43.90   1
  -2   1 -16  -37.80   42.30   1
  -2   1 -16   50.89   30.50   1
   2   1  16   65.49   27.60   1
  -2  -1 -16   67.89   35.00   1
   2  -1  16   26.20   49.10   1
   2  -1  16   35.50   27.90   1
   2   2 -16   13.70   37.90   1
   2   2 -16   -6.80   47.10   1
  -2   2  16   39.40   26.10   1
  -2  -2  16  -18.80   41.70   1
  -2  -2  16   31.20   30.50   1
  -2  -2  16   49.30   53.99   1
   2  -2 -16   48.70   39.30   1
  -2   2  15   -0.70   31.80   1
   2   2 -15   53.49   36.70   1
   2   2 -15    8.20   44.60   1
   2  -2 -15   40.20   34.00   1
  -2  -2  15   39.20   26.50   1
  -2  -2  15   85.39   42.60   1
  -2   2  14  636.24   86.49   1
   2   2 -14  788.22   77.29   1
  -2   2  14  773.02   70.69   1
  -2  -2  14  762.82   69.89   1
   2  -2 -14  751.82   79.89   1
   2  -2 -14  862.11   74.49   1
  -2   2  13  226.58   43.50   1
   2   2 -13  174.58   39.40   1
  -2   2  13  112.79   28.60   1
   2   2 -13   29.60   37.60   1
   2  -2 -13  103.89   34.20   1
  -2  -2  13   80.09   37.30   1
  -2  -2  13  122.69   27.50   1
   2  -2 -13  159.58   43.50   1
  -2   2  12   45.30   22.40   1
   2   2 -12   64.89   30.50   1
   2   2 -12   -6.80   35.50   1
  -2   2  12   89.99   32.90   1
   2   2 -12   44.60   34.90   1
  -2  -2  12   39.50   32.00   1
   2  -2 -12    4.20   34.90   1
  -2  -2  12   53.89   21.10   1
   2  -2 -12   11.90   28.30   1
   2   2 -11  781.62   88.29   1
   2   2 -11  927.31   86.59   1
   2   2 -11 1011.40   86.09   1
  -2   2  11 1005.40   81.49   1
  -2   2  11 1006.50   88.79   1
   2  -2 -11  921.11   77.49   1
  -2  -2  11  935.61   86.39   1
   2  -2 -11  977.20   84.49   1
   2  -2 -11 1053.89   90.69   1
  -2  -2  11 1048.10   79.49   1
  -2   2  10   42.90   23.50   1
  -2   2  10  118.79   33.80   1
   2   2 -10   55.49   33.50   1
   2   2 -10   48.80   26.90   1
   2   2 -10   50.89   31.60   1
   2  -2 -10   82.39   20.00   1
  -2  -2  10   61.89   25.40   1
   2  -2 -10   42.80   29.50   1
   2  -2 -10   34.40   27.00   1
  -2  -2  10  103.49   20.30   1
   2   2  -9  546.25   53.49   1
  -2   2   9  486.25   55.89   1
   2   2  -9  426.26   49.90   1
   2   2  -9  446.06   58.79   1
  -2   2   9  427.06   45.90   1
   2  -2  -9  417.76   42.00   1
  -2  -2   9  499.55   42.60   1
  -2  -2   9  434.26   47.70   1
   2  -2  -9  488.55   54.49   1
  -2   2   8  444.96   48.50   1
   2   2  -8  413.66   46.30   1
   2   2  -8  422.76   51.29   1
  -2   2   8  492.65   54.69   1
  -2   2   8  474.25   45.80   1
   2   2  -8  374.66   57.19   1
   2  -2  -8  466.15   53.69   1
  -2  -2   8  602.24   61.49   1
  -2  -2   8  488.55   41.50   1
   2  -2  -8  455.85   43.00   1
  -2   2   7  257.97   41.90   1
  -2   2   7  242.98   35.30   1
   2   2  -7  298.07   41.40   1
   2   2  -7  344.27   49.70   1
   2  -2  -7  251.17   34.20   1
   2  -2  -7  339.97   43.30   1
  -2  -2   7  276.37   28.70   1
  -2  -2   7  267.37   34.80   1
   2   2  -6  378.86   52.69   1
  -2   2   6  388.66   40.50   1
  -2   2   6  291.97   45.10   1
  -2   2   6  320.27   37.30   1
   2   2  -6  405.66   43.90   1
   2  -2  -6  328.47   37.90   1
   2  -2  -6  424.86   46.60   1
  -2  -2   6  373.96   33.30   1
  -2   2   5 1328.77  101.69   1
  -2   2   5 1230.68  103.49   1
   2   2  -5 1422.86  102.89   1
   2   2  -5 1234.28  106.29   1
  -2   2   5 1258.47   99.69   1
   2  -2  -5 1273.47   99.19   1
   2  -2  -5 1302.07  102.89   1
  -2   2   4  674.43   65.89   1
  -2   2   4  772.12   60.89   1
   2   2  -4  750.62   71.29   1
   2   2  -4  852.71   65.99   1
  -2   2   4  756.52   63.79   1
   2  -2  -4  701.53   63.89   1
   2  -2  -4  731.43   64.89   1
  -2   2   3  779.82   68.99   1
   2   2  -3  862.21   75.19   1
  -2   2   3  852.91   64.89   1
   2  -2  -3  764.12   69.09   1
   2  -2  -3  865.11   69.09   1
  -2   2   2  161.68   24.40   1
   2   2  -2  193.38   30.60   1
  -2   2   2  212.08   32.80   1
   2   2  -2  259.67   39.30   1
  -2   2   2  160.08   21.80   1
   2  -2  -2  160.28   29.80   1
   2  -2  -2  150.68   27.50   1
  -2   2   1 1316.77   98.59   1
  -2   2   1 1373.36  104.49   1
   2   2  -1 1376.66   98.19   1
   2   2  -1 1268.57  105.09   1
   2   2  -1 1379.46  104.09   1
   2  -2  -1 1305.87  104.89   1
   2   2   0  597.24   46.00   1
   2   2   0  599.74   55.69   1
  -2   2   0  555.54   53.99   1
   2  -2   0  604.34   58.09   1
  -2  -2   0  536.45   49.20   1
   2   2   1   15.10   23.80   1
   2   2   1   11.40   18.50   1
  -2   2  -1   11.80   23.80   1
   2   2   1   20.60   12.50   1
  -2  -2  -1  -23.70   15.30   1
   2  -2   1    1.00   24.00   1
   2   2   2  329.97   31.80   1
   2   2   2  402.06   42.10   1
   2   2   2  286.87   38.00   1
  -2   2  -2  294.37   37.90   1
  -2  -2  -2  296.87   35.60   1
   2  -2   2  327.07   45.20   1
  -2  -2  -2  345.07   38.40   1
   2   2   3  312.47   41.00   1
   2   2   3  373.66   33.50   1
   2   2   3  370.06   40.20   1
  -2   2  -3  388.56   40.80   1
  -2  -2  -3  221.08   38.80   1
  -2  -2  -3  275.57   38.90   1
   2  -2   3  422.06   46.50   1
  -2   2  -4 1376.26  101.89   1
   2   2   4 1322.77   99.99   1
   2   2   4 1254.77  102.59   1
  -2  -2  -4 1179.38   98.39   1
  -2  -2  -4 1254.77  101.89   1
   2  -2   4 1299.47  104.99   1
   2   2   5  548.15   48.70   1
   2   2   5  624.34   51.79   1
   2   2   5  503.15   55.89   1
  -2   2  -5  639.14   55.69   1
   2  -2   5  594.24   58.59   1
  -2  -2  -5  418.16   47.30   1
  -2  -2  -5  548.25   54.49   1
   2   2   6  366.16   46.90   1
   2   2   6  332.37   40.30   1
   2   2   6  372.46   37.70   1
  -2   2  -6  364.76   43.30   1
  -2  -2  -6  327.27   34.90   1
  -2  -2  -6  297.47   45.40   1
   2  -2   6  375.86   49.00   1
   2   2   7   88.89   20.80   1
  -2   2  -7   73.39   26.50   1
   2   2   7   78.69   26.90   1
  -2  -2  -7   59.79   27.10   1
   2  -2   7   81.79   15.90   1
   2  -2   7   36.90   28.20   1
  -2  -2  -7   68.19   15.90   1
   2   2   8  623.24   60.89   1
  -2   2  -8  640.14   64.99   1
   2   2   8  729.83   69.49   1
   2  -2   8  781.52   62.49   1
  -2  -2  -8  687.23   68.09   1
   2  -2   8  702.33   57.19   1
   2  -2   8  699.33   68.39   1
   2   2   9  275.27   40.60   1
  -2   2  -9  128.09   29.60   1
   2   2   9  242.68   33.70   1
  -2   2  -9  263.97   39.90   1
   2  -2   9  239.68   38.20   1
   2  -2   9  205.58   29.60   1
  -2  -2  -9  222.58   38.40   1
   2  -2   9  258.97   41.00   1
  -2  -2  -9  189.78   35.80   1
  -2   2 -10   85.59   28.10   1
  -2   2 -10  137.89   36.20   1
   2   2  10  138.09   27.00   1
   2   2  10  142.39   36.90   1
  -2  -2 -10  122.49   33.60   1
   2  -2  10  138.49   35.50   1
   2  -2  10  104.79   30.40   1
  -2  -2 -10  171.18   35.30   1
   2  -2  10  134.19   25.10   1
  -2   2 -11   12.20   26.90   1
   2   2  11   51.59   23.40   1
   2   2  11  102.29   33.20   1
  -2   2 -11   84.69   33.80   1
  -2  -2 -11   43.50   32.70   1
  -2  -2 -11   43.80   27.50   1
   2  -2  11   26.70   31.50   1
   2  -2  11   98.19   34.20   1
   2  -2  11   75.29   24.70   1
  -2   2 -12  163.38   34.60   1
   2   2  12  235.38   44.40   1
   2   2  12  146.99   30.00   1
  -2   2 -12   54.89   33.50   1
   2  -2  12  187.88   30.30   1
   2  -2  12   66.89   37.80   1
  -2  -2 -12  165.08   33.90   1
  -2  -2 -12  188.58   40.50   1
   2  -2  12  183.78   39.00   1
  -2   2 -13  144.49   36.90   1
   2   2  13   58.69   28.60   1
   2   2  13  125.69   47.70   1
  -2  -2 -13  166.48   45.10   1
   2  -2  13  159.88   42.20   1
   2  -2  13  163.78   43.90   1
   2  -2  13   93.29   28.70   1
  -2  -2 -13  101.89   34.20   1
   2   2  14    1.10   23.70   1
  -2   2 -14   -5.90   40.80   1
  -2   2 -14   48.90   34.30   1
   2  -2  14   47.00   40.20   1
   2  -2  14   42.00   43.10   1
  -2  -2 -14  -84.69   38.30   1
   2  -2  14   45.80   26.30   1
  -2  -2 -14  -31.20   32.40   1
  -2   2 -15  -22.70   47.30   1
  -2   2 -15  150.08   39.10   1
   2   2  15   53.79   26.80   1
   2  -2  15   76.29   46.80   1
   2  -2  15   82.79   30.60   1
  -2  -2 -15   78.79   39.10   1
   2  -2  15  221.28   56.09   1
  -2   3  14  320.77   48.50   1
   2   3 -14  366.06   82.29   1
   2   3 -14  193.98   71.19   1
  -2  -3  14  544.95   91.29   1
  -2  -3  14  554.54   69.49   1
  -2  -3  14  305.87   60.59   1
   2   3 -13  634.34   71.99   1
  -2   3  13  577.04   60.49   1
  -2   3  13  632.64   74.39   1
   2  -3 -13  663.83   65.99   1
   2  -3 -13  435.96   76.99   1
  -2  -3  13  436.46   74.89   1
  -2   3  12  741.03   77.79   1
   2   3 -12  752.22   75.49   1
  -2   3  12  697.53   65.59   1
  -2  -3  12  614.84   79.29   1
  -2  -3  12  680.23   82.59   1
  -2  -3  12  736.23   64.09   1
   2  -3 -12  430.96   79.69   1
   2   3 -11   61.29   33.90   1
  -2   3  11    0.40   32.50   1
  -2   3  11   -2.60   23.30   1
  -2  -3  11   61.39   28.30   1
   2  -3 -11   65.59   27.20   1
  -2  -3  11   77.09   32.90   1
   2  -3 -11   43.30   40.10   1
   2   3 -10  456.95   58.79   1
  -2   3  10  450.65   52.09   1
  -2   3  10  435.16   47.60   1
  -2   3  10  473.35   61.19   1
   2  -3 -10  367.66   60.19   1
   2  -3 -10  436.66   50.89   1
  -2  -3  10  358.46   50.19   1
  -2  -3  10  503.15   43.50   1
  -2   3   9    6.60   24.90   1
  -2   3   9   39.70   21.30   1
  -2   3   9   14.20   29.90   1
   2   3  -9   25.10   28.70   1
   2  -3  -9  -10.30   38.30   1
   2  -3  -9  -18.80   29.90   1
  -2   3   8  169.88   35.90   1
  -2   3   8  159.88   34.00   1
  -2   3   8  202.68   31.30   1
   2   3  -8  182.28   39.50   1
   2  -3  -8  161.78   37.90   1
   2  -3  -8  170.18   31.00   1
  -2   3   7   42.10   27.90   1
  -2   3   7   31.00   25.30   1
   2   3  -7   42.00   30.80   1
  -2   3   7   41.90   20.20   1
   2  -3  -7   48.50   24.20   1
   2  -3  -7   18.00   29.60   1
  -2   3   6  105.49   31.40   1
  -2   3   6  131.09   22.40   1
  -2   3   6   91.99   28.60   1
   2   3  -6   63.99   27.50   1
   2  -3  -6  131.39   30.90   1
   2  -3  -6  129.69   28.90   1
  -2   3   5  394.76   38.10   1
  -2   3   5  371.36   46.70   1
   2   3  -5  374.06   48.50   1
  -2   3   5  410.06   46.30   1
   2  -3  -5  342.67   46.80   1
   2  -3  -5  375.36   47.80   1
  -2   3   4  684.03   56.39   1
  -2   3   4  652.83   64.69   1
  -2   3   4  702.63   62.69   1
   2   3  -4  721.33   64.19   1
   2  -3  -4  699.13   63.29   1
   2  -3  -4  608.24   61.79   1
  -2   3   3  336.97   30.80   1
  -2   3   3  269.17   36.90   1
  -2   3   3  288.37   42.00   1
   2   3  -3  349.96   44.40   1
   2  -3  -3  316.47   42.20   1
   2  -3  -3  244.68   37.00   1
  -2   3   2   30.00   19.70   1
  -2   3   2   57.29   27.50   1
  -2   3   2   69.69   15.20   1
   2   3  -2   38.80   27.60   1
   2  -3  -2   34.10   19.20   1
  -2   3   1  675.93   52.59   1
  -2   3   1  676.43   64.69   1
   2   3  -1  625.64   61.79   1
  -2  -3   1  660.93   68.29   1
   2  -3  -1  680.23   65.49   1
  -2   3   0  943.31   79.99   1
   2   3   0  937.21   70.19   1
   2   3   0  973.50   80.59   1
  -2  -3   0  762.82   86.19   1
   2  -3   0  907.51   82.59   1
   2   3   1  566.44   53.59   1
   2   3   1  653.33   48.70   1
  -2   3  -1  564.84   58.39   1
   2   3   1  602.94   59.49   1
  -2  -3  -1  479.25   51.39   1
  -2  -3  -1  637.84   63.19   1
   2  -3   1  588.04   63.99   1
  -2   3  -2 1653.53  121.79   1
   2   3   2 1487.75  118.39   1
   2   3   2 1572.74  114.59   1
   2   3   2 1569.14  120.79   1
  -2  -3  -2 1516.55  120.79   1
   2  -3   2 1530.85  123.69   1
  -2  -3  -2 1354.06  117.19   1
   2   3   3  445.86   49.30   1
   2   3   3  458.45   42.80   1
   2   3   3  503.55   49.80   1
  -2   3  -3  519.05   51.99   1
  -2  -3  -3  471.25   49.20   1
   2  -3   3  421.76   57.59   1
  -2  -3  -3  403.26   53.09   1
   2   3   4 1274.27  102.89   1
   2   3   4 1253.27  102.59   1
   2   3   4 1262.07   97.69   1
  -2   3  -4 1302.17  103.49   1
   2  -3   4 1270.87  108.09   1
  -2  -3  -4 1287.87  103.39   1
  -2  -3  -4 1200.08  102.49   1
  -2   3  -5   94.59   28.60   1
   2   3   5  103.09   29.30   1
   2   3   5  116.09   21.80   1
   2   3   5  101.39   29.60   1
   2  -3   5   94.09   31.70   1
  -2  -3  -5   80.49   28.40   1
  -2  -3  -5   89.39   28.50   1
   2   3   6  142.29   26.20   1
   2   3   6  162.68   35.20   1
   2   3   6  150.78   32.20   1
  -2   3  -6  128.79   35.50   1
   2  -3   6  152.18   37.00   1
  -2  -3  -6  169.38   30.30   1
  -2  -3  -6  179.78   33.80   1
   2   3   7   91.69   22.60   1
  -2   3  -7   81.99   31.10   1
   2   3   7   19.80   25.60   1
   2   3   7   90.39   32.00   1
  -2  -3  -7   84.19   27.50   1
   2  -3   7   84.29   33.00   1
  -2  -3  -7  117.89   33.20   1
   2   3   8   33.20   31.00   1
  -2   3  -8   89.09   33.50   1
   2   3   8   28.80   27.00   1
   2   3   8    1.50   19.40   1
  -2  -3  -8  -11.00   21.90   1
  -2  -3  -8   14.70   28.80   1
   2  -3   8   52.79   31.50   1
   2   3   9  160.88   38.40   1
   2   3   9  259.07   36.30   1
   2   3   9  237.28   43.70   1
  -2   3  -9  229.78   40.60   1
   2  -3   9  218.28   43.70   1
  -2  -3  -9  246.68   37.40   1
  -2  -3  -9  229.78   44.60   1
   2   3  10  101.19   27.20   1
  -2   3 -10  181.38   42.60   1
   2   3  10  150.28   39.70   1
  -2  -3 -10  136.09   40.40   1
   2  -3  10  141.89   42.40   1
  -2   3 -11  435.86   57.79   1
   2   3  11  430.36   66.69   1
   2   3  11  353.06   46.80   1
  -2  -3 -11  438.76   64.39   1
   2  -3  11  345.37   58.69   1
   2  -3  11  322.07   45.40   1
   2   3  12  632.64   59.19   1
  -2   3 -12  506.65   65.79   1
   2   3  12  641.74   73.09   1
  -2  -3 -12  582.64   65.29   1
   2  -3  12  516.95   76.79   1
  -2  -3 -12  367.16   67.09   1
   2  -3  12  479.25   71.39   1
   2   3  13   72.59   37.40   1
  -2   3 -13   28.90   33.60   1
  -2  -3 -13   54.59   35.80   1
   2  -3  13   43.80   49.80   1
   2  -3  13   24.90   40.10   1
  -2   4  11   53.89   47.40   1
   2   4 -11   20.90   37.50   1
  -2   4  11    4.60   34.30   1
  -2   4  11   35.80   26.10   1
   2  -4 -11  -46.10   37.60   1
  -2  -4  11   67.29   48.50   1
  -2   4  10   39.20   26.60   1
  -2   4  10   -5.50   30.70   1
  -2   4  10   26.30   40.30   1
   2   4 -10  -17.40   29.60   1
   2  -4 -10   47.30   39.70   1
  -2  -4  10   62.79   43.50   1
   2  -4 -10   30.70   34.80   1
  -2   4   9  364.96   62.79   1
   2   4  -9  296.37   49.50   1
  -2   4   9  379.36   49.30   1
  -2   4   9  324.77   45.20   1
   2  -4  -9  282.87   49.90   1
  -2  -4   9  284.87   54.19   1
   2  -4  -9  334.47   54.19   1
   2   4  -8  154.68   40.20   1
  -2   4   8  113.79   39.50   1
  -2   4   8   89.39   27.20   1
  -2   4   8  102.79   32.90   1
   2  -4  -8  107.39   35.00   1
  -2  -4   8   50.49   40.30   1
   2  -4  -8   93.69   40.10   1
  -2   4   7   27.90   36.20   1
  -2   4   7  -17.20   26.50   1
   2   4  -7   79.89   33.50   1
  -2   4   7    9.40   22.10   1
   2  -4  -7   -8.20   32.60   1
   2  -4  -7   65.99   33.80   1
  -2  -4   7   55.59   39.90   1
  -2   4   6  132.49   37.50   1
  -2   4   6  178.28   30.10   1
  -2   4   6  104.79   32.80   1
   2   4  -6   70.39   32.40   1
   2  -4  -6  170.98   38.30   1
  -2  -4   6   92.09   40.20   1
   2  -4  -6  144.79   38.80   1
   2   4  -5  313.67   49.40   1
  -2   4   5  313.97   35.90   1
  -2   4   5  270.17   44.70   1
  -2   4   5  282.57   49.40   1
   2  -4  -5  336.87   46.80   1
  -2  -4   5  213.78   47.20   1
   2  -4  -5  175.48   40.40   1
   2   4  -4  258.77   44.70   1
  -2   4   4  278.47   46.20   1
  -2   4   4  289.87   35.00   1
   2  -4  -4  362.16   47.80   1
  -2  -4   4  226.58   49.30   1
   2   4  -3  306.97   46.90   1
  -2   4   3  268.17   41.60   1
  -2   4   3  187.88   30.80   1
  -2   4   3  215.98   41.10   1
   2  -4  -3  326.67   45.00   1
  -2  -4   3  417.26   58.99   1
  -2   4   2 1277.97   99.39   1
   2   4  -2 1316.37  108.99   1
  -2   4   2 1338.47  109.59   1
   2  -4  -2 1244.58  111.39   1
  -2  -4   2 1330.17  113.49   1
   2   4  -1  615.94   71.49   1
  -2   4   1  926.91   72.59   1
  -2  -4   1  588.44   76.99   1
   2  -4  -1  785.12   75.59   1
  -2   4   0  706.03   68.29   1
   2   4   0  505.55   66.09   1
   2   4   0  706.83   55.49   1
  -2  -4   0  711.93   72.19   1
   2  -4   0  610.04   70.89   1
  -2   4  -1  654.73   59.49   1
   2   4   1  500.25   59.29   1
   2   4   1  490.75   46.60   1
  -2  -4  -1  462.05   63.69   1
  -2  -4  -1  408.46   52.59   1
   2  -4   1  662.73   68.39   1
  -2   4  -2  217.18   41.20   1
   2   4   2  188.38   28.00   1
   2   4   2  190.68   35.10   1
   2   4   2  183.38   38.50   1
  -2  -4  -2  149.29   33.90   1
  -2  -4  -2  237.58   44.20   1
   2  -4   2  233.68   42.90   1
   2   4   3  230.78   32.10   1
  -2   4  -3  222.78   44.50   1
   2   4   3  280.87   43.80   1
   2   4   3  207.68   36.90   1
  -2  -4  -3  240.68   45.50   1
   2  -4   3  279.27   49.00   1
   2   4   4   94.39   31.80   1
  -2   4  -4   53.89   30.00   1
   2   4   4   45.20   19.70   1
   2   4   4   97.69   34.20   1
  -2  -4  -4   34.80   33.00   1
  -2  -4  -4   63.09   33.60   1
   2  -4   4  103.39   39.10   1
   2   4   5  355.16   49.80   1
  -2   4  -5  248.58   45.10   1
   2   4   5  275.87   35.70   1
   2   4   5  196.88   39.60   1
  -2  -4  -5  217.48   44.80   1
  -2  -4  -5  294.97   47.70   1
   2  -4   5  242.78   46.80   1
  -2   4  -6  881.11   86.49   1
   2   4   6  844.32   81.79   1
   2   4   6 1028.80   87.79   1
   2   4   6  929.91   78.59   1
  -2  -4  -6  948.21   84.99   1
  -2  -4  -6  898.61   93.39   1
   2  -4   6  942.51   92.19   1
  -2   4  -7  457.85   60.69   1
   2   4   7  426.86   60.09   1
   2   4   7  483.35   48.70   1
   2   4   7  360.06   51.29   1
  -2  -4  -7  424.46   56.19   1
  -2  -4  -7  455.95   61.59   1
   2  -4   7  388.86   58.29   1
   2   4   8  139.59   34.60   1
   2   4   8  178.28   32.40   1
   2   4   8  208.78   45.30   1
  -2   4  -8  194.28   42.10   1
   2  -4   8  175.28   43.80   1
  -2  -4  -8  135.69   45.80   1
  -2   4  -9   66.49   38.60   1
   2   4   9   71.59   39.90   1
   2   4   9   40.90   24.70   1
   2   4   9   69.89   32.90   1
  -2  -4  -9    0.90   42.50   1
  -2  -4  -9  151.98   40.90   1
   2  -4   9   39.00   39.80   1
   2   4  10   93.99   29.80   1
  -2   4 -10  104.69   40.10   1
   2   4  10   87.69   37.40   1
   2   4  10  134.49   49.30   1
   2  -4  10   83.29   42.70   1
  -2  -4 -10   56.19   53.39   1
  -2   4 -11  -33.40   37.40   1
   2   4  11   41.30   26.60   1
  -2  -4 -11  -91.59   45.80   1
   2  -4  11   10.70   40.10   1
   2   5  -6  131.89   41.80   1
  -2   5   6  149.49   36.90   1
  -2   5   6  209.98   47.50   1
  -2   5   6  183.08   35.30   1
   2  -5  -6  160.78   47.40   1
  -2  -5   6  168.98   46.30   1
   2  -5  -6  132.69   50.59   1
   2   5  -5   46.90   35.60   1
  -2   5   5    4.50   33.20   1
  -2   5   5   79.49   42.20   1
  -2   5   5   38.20   26.70   1
  -2  -5   5   21.80   40.20   1
   2  -5  -5   10.40   36.80   1
  -2   5   4  134.09   42.50   1
  -2   5   4  123.89   41.30   1
   2   5  -4  121.09   44.60   1
   2  -5  -4   39.70   47.00   1
   2  -5  -4  201.58   44.00   1
   2  -5  -3   47.90   37.90   1
  -2  -5   3  132.39   46.40   1
   2  -5  -3   36.70   39.20   1
  -2   5   2  548.45   90.49   1
   2   5  -2  633.84   89.99   1
  -2  -5   2  436.96   74.79   1
   2  -5  -2  466.55   66.29   1
   2   5  -1  296.97   53.99   1
  -2   5   1  378.36   59.69   1
   2  -5  -1  227.18   49.70   1
  -2  -5   1  306.47   58.29   1
   2   5   0  240.08   45.50   1
  -2   5   0  221.18   46.20   1
   2  -5   0  157.38   45.90   1
  -2  -5   0  177.88   47.40   1
   2  -5   1  290.37   50.09   1
  -2  -5  -1  155.18   46.80   1
   2  -5   2  149.79   43.80   1
  -2  -5  -2   84.29   42.90   1
  -2   5  -3   80.59   34.60   1
   2   5   3  181.18   43.10   1
  -2  -5  -3  221.48   48.40   1
  -2  -5  -3   69.09   48.90   1
   2   5   4  189.58   34.00   1
   2   5   4  154.28   43.00   1
  -2   5  -4   73.89   35.60   1
   2   5   4   34.30   34.40   1
   2  -5   4  123.89   43.50   1
  -2  -5  -4   -5.30   53.79   1
  -2  -5  -4  157.28   46.40   1
   2   5   5   15.50   31.40   1
   2   5   5   13.10   41.50   1
   2   5   5  -12.40   25.20   1
  -2   5  -5  -23.00   31.60   1
   2  -5   5   54.69   43.50   1
  -2  -5  -5   -2.20   38.70   1
   2   5   6   55.09   44.30   1
   2   5   6   78.99   29.80   1
  -2  -5  -6  -82.29   49.50   1
   2  -5   6   70.59   43.10   1
   3   0 -17   -0.80   28.80   1
  -3   0  17   12.90   35.00   1
   3   0 -16    2.90   26.20   1
   3   0 -16  -28.40   44.20   1
  -3   0  16   58.69   39.40   1
  -3   0  16   21.50   23.70   1
   3   0 -16   10.90   40.50   1
   3   0 -15  172.08   42.30   1
  -3   0  15   31.80   35.60   1
  -3   0  15   36.40   23.90   1
   3   0 -15   37.10   25.90   1
   3   0 -15  -59.39   35.90   1
  -3   0  14  -20.90   30.10   1
   3   0 -14   38.60   24.30   1
   3   0 -14  109.59   34.30   1
  -3   0  14   10.00   21.10   1
   3   0 -14    2.80   33.30   1
   3   0 -13   20.80   30.60   1
  -3   0  13   27.50   19.70   1
   3   0 -13   59.39   29.30   1
  -3   0  13    1.90   27.60   1
   3   0 -13   38.40   23.90   1
  -3   0  12   29.90   20.90   1
   3   0 -12   13.10   28.10   1
   3   0 -12   63.19   22.00   1
  -3   0  12   59.39   27.00   1
  -3   0  11  -11.50   16.50   1
   3   0 -11   10.60   21.90   1
   3   0 -11   35.40   24.50   1
  -3   0  11    2.00   23.60   1
   3   0 -11    9.80   24.20   1
   3   0 -10   17.30   22.70   1
  -3   0  10    8.20   24.90   1
  -3   0  10    3.00   17.80   1
   3   0 -10   35.20   24.30   1
  -3   0   9   33.00   18.90   1
  -3   0   9   31.10   23.20   1
   3   0  -9   24.10   23.60   1
   3   0  -9   60.19   20.50   1
   3   0  -9   26.20   17.70   1
  -3   0   8   32.60   19.30   1
   3   0  -8   64.59   23.00   1
   3   0  -8   81.29   21.20   1
  -3   0   8   43.20   25.40   1
   3   0  -7    4.80   20.90   1
  -3   0   7   37.50   21.10   1
  -3   0   7   39.80   17.40   1
   3   0  -7   -6.10   17.70   1
   3   0  -7   18.60   15.20   1
   3   0  -6   23.20   21.70   1
  -3   0   6   21.40   15.20   1
   3   0  -6    4.80   13.40   1
  -3   0   6   46.80   21.60   1
   3   0  -6   20.50   17.80   1
   3   0  -5   35.40   19.10   1
   3   0  -5    1.90   12.00   1
   3   0  -5   18.00   16.30   1
  -3   0   5   15.60   14.10   1
  -3   0   5   57.29   19.40   1
   3   0  -4   21.90   17.60   1
  -3   0   4   54.29   16.90   1
  -3   0   4   24.50   13.70   1
   3   0  -4   13.20    9.80   1
   3   0  -4  -14.20   14.50   1
   3   0  -3    4.90   12.80   1
  -3   0   3   -8.00   11.40   1
   3   0  -3    5.40    7.60   1
  -3   0   3   33.60   15.50   1
   3   0  -3   19.90   14.40   1
  -3   0   2   17.00    9.50   1
  -3   0   2   19.40   13.10   1
   3   0  -2   23.30   11.00   1
   3   0  -2   28.80   12.20   1
   3   0  -1    0.20    9.90   1
  -3   0   1    1.50   11.00   1
   3   0  -1    3.20    9.10   1
   3   0   0   23.10    9.10   1
  -3   0   0   -1.20   10.30   1
   3   0   0    0.80    7.90   1
   3   0   0   -3.40    9.60   1
  -3   0   0   23.00    5.40   1
   3   0   1    7.10   10.20   1
  -3   0  -1    1.20   13.00   1
  -3   0  -1   26.70    8.50   1
   3   0   1    1.80    9.70   1
   3   0   2  -10.70   16.80   1
   3   0   2   11.90   11.00   1
  -3   0  -2    7.40   10.80   1
   3   0   2   -6.50   11.50   1
  -3   0  -2  -22.00   14.90   1
   3   0   3   64.79   13.40   1
   3   0   3   40.50   19.60   1
   3   0   3   69.09   15.40   1
  -3   0  -3   30.10   19.40   1
  -3   0  -3   59.69   14.80   1
   3   0   4   32.80   15.00   1
  -3   0  -4   65.09   16.10   1
   3   0   4   41.00   13.10   1
   3   0   4   42.70   21.00   1
  -3   0  -4   21.00   19.30   1
   3   0   5   47.00   23.00   1
  -3   0  -5   54.89   21.80   1
  -3   0  -5   62.79   16.10   1
   3   0   5   65.89   15.10   1
   3   0   5   51.19   16.50   1
   3   0   6   75.19   18.00   1
  -3   0  -6   52.39   22.80   1
   3   0   6   63.49   17.50   1
  -3   0  -6   70.29   20.10   1
   3   0   6   80.89   25.10   1
   3   0   7  -52.29   21.40   1
   3   0   7   13.20   15.70   1
  -3   0  -7    3.40   16.40   1
   3   0   7   18.80   15.90   1
  -3   0  -7   -4.90   21.20   1
   3   0   8   43.90   18.60   1
  -3   0  -8   18.60   18.50   1
   3   0   8   30.60   24.50   1
   3   0   8   10.40   17.70   1
  -3   0  -8   -9.30   27.60   1
   3   0   9   -1.10   18.50   1
   3   0   9   12.90   25.30   1
  -3   0  -9   13.70   20.20   1
  -3   0  -9   12.70   24.40   1
   3   0   9    0.20   17.40   1
   3   0  10    1.50   20.20   1
  -3   0 -10  -30.90   47.50   1
   3   0  10   12.00   18.40   1
  -3   0 -10   -5.40   18.50   1
   3   0  10  -11.90   25.50   1
   3   0  11  -32.50   27.40   1
  -3   0 -11   -6.60   26.50   1
   3   0  11  -24.50   17.10   1
  -3   0 -11   -9.70   21.00   1
   3   0  11   45.60   23.30   1
   3   0  12   25.20   21.10   1
   3   0  12  -46.90   27.50   1
   3   0  12   23.50   24.40   1
  -3   0 -12  -15.70   24.80   1
  -3   0 -12   10.80   29.80   1
   3   0  13    7.90   22.00   1
  -3   0 -13  -20.00   33.60   1
  -3   0 -13    5.80   23.40   1
   3   0  13   42.60   33.70   1
   3   0  14  -30.30   20.60   1
  -3   0 -14  -34.10   36.70   1
  -3   0 -14  -42.50   25.80   1
   3   0  14   54.69   40.50   1
  -3   0 -15   -2.90   42.10   1
  -3   0 -15    6.00   25.60   1
   3   0  15   -7.70   23.40   1
   3   0  15  -66.09   40.70   1
  -3   0 -16  -16.40   50.79   1
  -3   0 -16   60.49   31.70   1
   3   0  16   34.80   27.10   1
  -3   1  17   -4.60   23.70   1
   3   1 -17  -31.90   43.20   1
  -3  -1  17  122.79   49.60   1
  -3  -1  17   -1.20   27.00   1
   3   1 -16   35.40   30.30   1
   3   1 -16  -39.30   39.80   1
  -3   1  16    6.10   24.00   1
  -3  -1  16   -9.60   22.50   1
   3  -1 -16    7.40   25.00   1
  -3  -1  16   52.09   44.30   1
  -3   1  15   56.09   34.80   1
  -3   1  15  -21.20   20.20   1
   3   1 -15   36.80   40.20   1
   3   1 -15    9.60   42.70   1
   3   1 -15   -0.60   27.30   1
   3  -1 -15   -5.30   37.10   1
  -3  -1  15   -8.50   22.80   1
   3  -1 -15  -11.80   24.30   1
  -3   1  14   32.50   33.30   1
   3   1 -14   -9.30   37.80   1
  -3   1  14   -3.30   21.90   1
   3   1 -14  -12.00   32.10   1
   3   1 -14   29.10   28.30   1
  -3  -1  14  -28.40   22.10   1
   3  -1 -14  -36.50   29.10   1
   3  -1 -14  -71.29   33.10   1
   3  -1 -14   14.80   28.50   1
  -3  -1  14   23.00   35.10   1
   3   1 -13    7.30   24.60   1
  -3   1  13   32.70   29.60   1
  -3   1  13   39.20   20.80   1
   3   1 -13   16.30   29.90   1
   3   1 -13   69.19   34.70   1
   3  -1 -13   10.00   27.60   1
  -3  -1  13   43.00   30.10   1
   3  -1 -13   74.59   28.50   1
  -3  -1  13   24.00   21.40   1
   3  -1 -13   42.80   29.90   1
   3   1 -12   33.00   25.30   1
   3   1 -12   70.09   31.80   1
  -3   1  12   14.00   19.40   1
  -3   1  12   71.99   27.70   1
   3   1 -12   -0.40   25.60   1
  -3  -1  12   41.40   22.50   1
   3  -1 -12  -23.00   23.40   1
   3  -1 -12  105.19   24.40   1
   3  -1 -12   39.50   26.50   1
  -3  -1  12   43.50   26.10   1
  -3   1  11   49.10   20.40   1
   3   1 -11   27.10   26.00   1
   3   1 -11   78.59   26.60   1
  -3   1  11   70.59   27.50   1
   3   1 -11   20.60   29.10   1
   3  -1 -11   69.39   26.00   1
   3  -1 -11   50.49   27.10   1
   3  -1 -11  103.19   23.50   1
  -3  -1  11   95.29   21.60   1
  -3   1  10   21.80   23.80   1
   3   1 -10   32.70   22.70   1
   3   1 -10   33.00   26.90   1
  -3   1  10   16.30   19.00   1
   3   1 -10   42.50   24.90   1
  -3  -1  10   33.50   24.80   1
  -3  -1  10   38.80   19.70   1
   3  -1 -10  127.39   25.40   1
   3  -1 -10   57.69   26.30   1
   3  -1 -10   72.39   20.80   1
  -3   1   9  -42.50   36.80   1
   3   1  -9   12.50   21.30   1
   3   1  -9   -0.30   22.20   1
  -3   1   9  -18.10   17.60   1
   3   1  -9   -7.90   25.00   1
  -3  -1   9    9.60   22.50   1
   3  -1  -9   63.19   26.40   1
   3  -1  -9   33.40   21.00   1
  -3  -1   9  -13.50   15.50   1
   3  -1  -9   28.50   18.00   1
   3   1  -8   16.90   24.50   1
  -3   1   8    9.00   23.80   1
   3   1  -8   44.10   22.40   1
   3   1  -8   -1.40   21.90   1
  -3   1   8   14.30   18.00   1
  -3  -1   8   33.10   22.90   1
   3  -1  -8   47.80   24.40   1
   3  -1  -8   38.80   21.20   1
  -3  -1   8   30.40   16.80   1
   3  -1  -8   58.09   17.30   1
   3   1  -7   46.20   20.90   1
   3   1  -7   31.50   24.60   1
  -3   1   7   47.30   19.00   1
   3   1  -7   75.29   26.60   1
  -3   1   7   28.50   23.00   1
  -3  -1   7   65.39   16.60   1
   3  -1  -7   69.39   24.20   1
   3  -1  -7   58.49   16.00   1
  -3  -1   7   70.19   22.20   1
   3  -1  -7   87.29   23.10   1
   3   1  -6   60.89   34.10   1
   3   1  -6   51.49   21.20   1
  -3   1   6   18.80   22.10   1
  -3   1   6   18.30   15.80   1
   3   1  -6   43.60   19.50   1
  -3  -1   6   28.00   14.50   1
   3  -1  -6   53.29   21.00   1
   3  -1  -6   25.50   14.70   1
  -3  -1   6   66.19   19.80   1
   3   1  -5   19.60   18.00   1
  -3   1   5   56.09   22.30   1
   3   1  -5   32.80   17.80   1
   3   1  -5   21.00   23.20   1
  -3   1   5   16.10   17.90   1
  -3   1   5   45.80   17.80   1
   3  -1  -5   59.49   19.70   1
  -3  -1   5   37.30   12.70   1
   3  -1  -5   42.40   16.60   1
  -3   1   4   26.70   16.70   1
   3   1  -4    5.00   20.40   1
  -3   1   4   21.10   15.60   1
  -3   1   4   63.49   21.20   1
   3   1  -4   10.60   15.90   1
   3   1  -4   -6.30   17.30   1
   3  -1  -4   38.30   18.80   1
  -3  -1   4   25.00   11.40   1
   3  -1  -4   11.30   17.00   1
  -3   1   3   84.59   18.40   1
   3   1  -3   72.59   16.60   1
   3   1  -3   63.69   22.50   1
  -3   1   3  101.99   16.80   1
   3   1  -3   68.49   18.10   1
   3  -1  -3   75.99   18.70   1
   3  -1  -3  124.09   20.60   1
  -3  -1   3   22.30   15.70   1
  -3  -1   3   66.99   13.50   1
   3   1  -2    0.70   16.20   1
  -3   1   2   53.39   15.70   1
   3   1  -2    4.60   19.40   1
  -3   1   2   14.90   11.10   1
   3   1  -2    2.50   13.40   1
  -3   1   2   -8.20   16.20   1
  -3  -1   2  -25.60   13.90   1
   3  -1  -2   16.30   14.90   1
   3  -1  -2    8.30   17.50   1
  -3   1   1  117.29   20.40   1
   3   1  -1   96.29   20.70   1
  -3   1   1  116.09   16.80   1
  -3   1   1  162.38   23.20   1
   3   1  -1  100.99   15.50   1
   3   1  -1  100.99   20.90   1
  -3  -1   1   95.19   17.50   1
   3  -1  -1  126.69   22.80   1
   3  -1  -1  127.09   22.20   1
   3   1   0  187.88   23.80   1
  -3   1   0  107.79   16.30   1
  -3   1   0  157.98   22.40   1
   3   1   0  165.68   19.50   1
   3   1   0  190.38   27.80   1
   3  -1   0  260.97   30.20   1
  -3  -1   0  136.09   25.00   1
  -3   1  -1  133.49   21.30   1
   3   1   1  163.48   24.00   1
   3   1   1  119.39   18.80   1
   3   1   1  136.49   21.90   1
   3   1   1  153.48   24.30   1
   3  -1   1  156.88   25.40   1
  -3  -1  -1   75.99   21.70   1
   3  -1   1  107.39   16.70   1
   3   1   2   -1.30   13.00   1
  -3   1  -2   -3.30   19.00   1
   3   1   2  -27.30   17.90   1
   3   1   2   -3.20   15.30   1
   3   1   2   -1.60   13.70   1
   3  -1   2   12.20   19.00   1
   3  -1   2    0.10   10.00   1
  -3  -1  -2  -32.40   19.30   1
   3   1   3  116.89   16.80   1
   3   1   3  126.79   22.20   1
  -3   1  -3  132.19   23.00   1
   3   1   3  125.09   19.00   1
   3   1   3   95.39   23.70   1
   3  -1   3  124.19   25.60   1
  -3  -1  -3   94.79   24.20   1
   3  -1   3  123.29   20.10   1
   3  -1   3  139.29   16.40   1
   3   1   4  127.69   24.40   1
  -3   1  -4  114.59   23.80   1
   3   1   4   91.59   18.50   1
   3   1   4   83.19   25.80   1
  -3   1  -4  107.99   20.10   1
   3  -1   4  118.09   26.00   1
   3  -1   4   97.29   21.00   1
   3  -1   4  117.29   16.40   1
  -3  -1  -4   83.69   24.90   1
   3   1   5   15.60   26.80   1
   3   1   5   -9.70   21.10   1
  -3   1  -5    7.00   16.50   1
   3  -1   5   26.40   18.40   1
  -3  -1  -5  -16.40   20.50   1
   3  -1   5   24.80   22.20   1
   3  -1   5   19.10   13.10   1
  -3   1  -6    0.20   20.60   1
   3   1   6   -2.00   24.30   1
  -3   1  -6  -13.50   17.50   1
   3   1   6   -2.00   15.30   1
  -3  -1  -6   11.50   21.20   1
   3  -1   6   -7.90   19.20   1
   3  -1   6   19.70   22.60   1
   3  -1   6  -16.70   13.00   1
  -3  -1  -6  -18.80   21.50   1
   3   1   7   38.90   18.60   1
  -3   1  -7   63.19   23.90   1
  -3   1  -7   37.60   22.40   1
   3   1   7   99.69   28.70   1
  -3  -1  -7   62.69   23.90   1
   3  -1   7   49.20   17.60   1
  -3  -1  -7   21.60   23.80   1
   3  -1   7   67.79   26.10   1
   3  -1   7   60.39   22.40   1
   3   1   8   12.70   18.30   1
   3   1   8    4.30   30.20   1
  -3   1  -8   10.00   22.50   1
  -3   1  -8   -6.40   21.50   1
   3  -1   8  -12.50   23.90   1
  -3  -1  -8    1.40   23.90   1
   3  -1   8   12.40   23.20   1
  -3  -1  -8   42.30   21.70   1
   3  -1   8   -0.40   15.90   1
   3   1   9   26.80   20.30   1
  -3   1  -9    0.90   23.40   1
   3   1   9  -15.50   24.90   1
  -3   1  -9    9.00   23.00   1
  -3  -1  -9   29.50   25.00   1
   3  -1   9   -2.60   24.60   1
   3  -1   9   23.60   17.50   1
  -3  -1  -9   50.19   23.50   1
   3   1  10   29.90   29.10   1
   3   1  10   27.10   19.80   1
  -3   1 -10   28.60   26.60   1
  -3   1 -10   14.00   22.60   1
   3  -1  10   29.40   17.70   1
   3  -1  10   24.90   26.70   1
  -3  -1 -10   42.70   26.90   1
  -3  -1 -10   25.30   25.00   1
   3  -1  10   20.10   27.30   1
  -3   1 -11   46.60   39.00   1
   3   1  11   21.90   20.00   1
   3   1  11   63.09   30.30   1
  -3   1 -11   -6.50   22.60   1
  -3  -1 -11   41.90   28.40   1
   3  -1  11   43.80   29.50   1
   3  -1  11   34.10   28.90   1
  -3  -1 -11   28.60   31.60   1
   3  -1  11    9.20   18.70   1
  -3   1 -12  -40.70   30.70   1
   3   1  12   23.50   31.30   1
  -3   1 -12   35.00   27.40   1
   3   1  12    8.30   20.90   1
   3  -1  12  -14.20   21.00   1
   3  -1  12   35.10   31.80   1
  -3  -1 -12   42.80   26.40   1
  -3  -1 -12   23.10   30.20   1
   3  -1  12   -1.40   29.50   1
   3   1  13   36.00   24.30   1
   3   1  13   55.39   37.40   1
  -3   1 -13   -1.40   26.90   1
  -3   1 -13   19.20   36.50   1
  -3  -1 -13   55.29   31.40   1
   3  -1  13   83.69   37.10   1
   3  -1  13   34.00   24.50   1
   3  -1  13   10.20   34.10   1
  -3  -1 -13  -17.50   31.80   1
  -3   1 -14  -12.20   27.40   1
  -3   1 -14    7.50   37.80   1
   3   1  14   58.39   40.20   1
   3   1  14   24.20   23.30   1
  -3  -1 -14  -37.70   37.00   1
   3  -1  14   -9.30   23.40   1
  -3  -1 -14   52.29   25.80   1
   3  -1  14  100.99   40.40   1
  -3   1 -15   20.70   28.30   1
   3   1  15  -14.00   23.00   1
  -3   1 -15  -22.50   44.20   1
   3  -1  15   24.50   25.40   1
  -3  -1 -15    4.30   26.60   1
  -3  -1 -15    0.80   48.60   1
   3  -1  15   71.99   46.40   1
   3   1  16   -5.60   24.60   1
  -3   1 -16   -4.50   28.80   1
   3  -1  16   87.79   52.39   1
   3  -1  16    4.20   24.90   1
  -3  -1 -16  -15.10   26.00   1
   3   2 -16  -32.10   47.10   1
  -3   2  16    3.80   24.20   1
  -3  -2  16  150.08   57.39   1
  -3  -2  16   15.10   28.00   1
   3   2 -15   42.50   41.40   1
   3   2 -15  -34.10   31.70   1
  -3  -2  15    5.50   24.30   1
   3  -2 -15   43.90   35.20   1
  -3  -2  15   83.69   45.80   1
  -3   2  14  119.49   39.20   1
   3   2 -14   57.89   38.80   1
  -3   2  14   36.20   24.40   1
   3   2 -14   43.80   33.40   1
   3   2 -14   87.29   41.40   1
  -3  -2  14   79.89   26.10   1
   3  -2 -14   38.50   36.50   1
  -3  -2  14   51.59   39.10   1
   3   2 -13   30.70   31.90   1
   3   2 -13   36.20   35.00   1
  -3   2  13   -3.40   22.90   1
  -3   2  13   67.99   33.70   1
   3   2 -13   25.50   38.60   1
  -3  -2  13   52.99   37.80   1
  -3  -2  13   39.80   24.00   1
   3  -2 -13   42.30   32.10   1
   3  -2 -13   69.09   30.20   1
  -3   2  12   -6.90   20.60   1
   3   2 -12   33.60   31.70   1
   3   2 -12   43.70   31.40   1
  -3   2  12   41.90   31.30   1
   3   2 -12   26.40   38.50   1
  -3  -2  12   72.19   22.90   1
   3  -2 -12   28.10   28.90   1
   3  -2 -12   56.79   28.10   1
   3  -2 -12  -11.20   26.40   1
  -3  -2  12   29.90   44.80   1
   3   2 -11  124.39   36.30   1
  -3   2  11  116.09   29.40   1
   3   2 -11  181.68   42.00   1
   3   2 -11  113.49   32.40   1
  -3   2  11  143.39   36.00   1
  -3  -2  11   83.59   30.30   1
   3  -2 -11  128.49   34.40   1
  -3  -2  11  144.49   25.60   1
   3  -2 -11  144.69   26.00   1
   3  -2 -11  155.68   30.80   1
   3   2 -10   39.50   34.00   1
   3   2 -10  -28.80   25.90   1
  -3   2  10   14.40   17.70   1
  -3   2  10   -2.80   25.20   1
   3   2 -10   -1.40   23.30   1
   3  -2 -10   11.50   26.20   1
  -3  -2  10   21.90   24.00   1
   3  -2 -10   -3.10   18.10   1
  -3  -2  10   42.10   18.80   1
   3   2  -9  -19.60   28.60   1
  -3   2   9    1.00   19.70   1
  -3   2   9   23.60   25.10   1
   3   2  -9   -8.50   26.50   1
  -3   2   9    4.00   24.10   1
   3   2  -9    4.50   21.60   1
  -3  -2   9   32.60   16.70   1
   3  -2  -9   45.10   19.60   1
   3  -2  -9   17.70   25.10   1
  -3  -2   9   -9.90   22.00   1
  -3   2   8   20.40   18.10   1
   3   2  -8   36.50   31.10   1
  -3   2   8   21.90   23.00   1
   3   2  -8   10.20   19.90   1
  -3   2   8   23.30   26.90   1
   3   2  -8   -0.60   22.80   1
   3  -2  -8   15.20   19.40   1
  -3  -2   8   10.50   15.50   1
   3  -2  -8   30.40   25.20   1
  -3  -2   8   33.90   21.10   1
   3   2  -7   72.49   30.80   1
  -3   2   7   43.50   25.90   1
  -3  -2   7   78.49   21.70   1
   3  -2  -7   44.50   21.10   1
  -3  -2   7   46.20   16.60   1
   3  -2  -7   80.59   26.30   1
   3   2  -6  206.78   36.90   1
  -3   2   6  165.38   26.10   1
  -3   2   6  157.68   27.50   1
   3   2  -6  190.98   32.70   1
  -3   2   6  155.18   31.10   1
   3  -2  -6  214.78   27.90   1
  -3  -2   6  208.58   23.40   1
   3  -2  -6  207.38   31.60   1
   3   2  -5  446.96   55.19   1
  -3   2   5  528.05   49.30   1
  -3   2   5  509.75   49.30   1
  -3   2   5  474.25   51.79   1
   3   2  -5  483.35   49.30   1
   3  -2  -5  498.25   49.60   1
   3  -2  -5  499.75   47.20   1
  -3  -2   5  490.75   39.70   1
  -3   2   4  288.17   38.90   1
   3   2  -4  247.58   35.00   1
   3   2  -4  292.47   45.10   1
  -3   2   4  277.77   34.10   1
  -3   2   4  297.57   30.20   1
   3  -2  -4  251.37   36.50   1
   3  -2  -4  329.57   36.00   1
  -3  -2   4  195.68   24.70   1
  -3   2   3  375.96   44.60   1
   3   2  -3  418.66   52.09   1
  -3   2   3  420.46   37.80   1
   3  -2  -3  395.96   45.00   1
   3  -2  -3  428.56   43.40   1
  -3  -2   3  464.95   34.80   1
  -3   2   2  109.09   21.90   1
  -3   2   2  119.39   27.50   1
   3   2  -2   75.89   27.40   1
  -3   2   2  133.29   18.40   1
   3   2  -2  116.39   17.60   1
   3  -2  -2  106.99   26.20   1
   3  -2  -2  110.99   20.00   1
   3   2  -1  251.87   36.20   1
  -3   2   1  283.27   26.60   1
   3   2  -1  282.27   27.10   1
  -3   2   1  269.07   38.70   1
   3   2  -1  271.77   43.60   1
   3  -2  -1  345.57   42.50   1
   3   2   0  124.79   30.30   1
   3   2   0  146.19   19.20   1
  -3   2   0  147.89   30.90   1
   3   2   0  138.89   29.10   1
   3  -2   0  175.98   33.20   1
  -3  -2   0  172.48   27.90   1
   3   2   1   51.09   14.80   1
   3   2   1   67.19   23.90   1
   3   2   1   47.50   19.60   1
   3  -2   1   76.49   27.90   1
   3   2   2   32.10   20.20   1
   3   2   2   22.70   22.30   1
   3   2   2   20.90   13.60   1
  -3   2  -2   14.20   21.30   1
   3  -2   2    2.80   23.50   1
   3   2   3   39.30   23.40   1
   3   2   3   16.70   21.00   1
   3   2   3   77.19   17.90   1
  -3   2  -3   12.80   23.30   1
   3  -2   3   55.59   27.50   1
  -3  -2  -3   62.79   21.40   1
  -3  -2  -3   29.50   22.00   1
   3   2   4  356.26   36.50   1
   3   2   4  352.16   44.30   1
  -3   2  -4  387.26   43.70   1
   3   2   4  385.76   39.00   1
   3  -2   4  418.06   50.19   1
  -3  -2  -4  414.96   40.70   1
  -3  -2  -4  340.87   45.30   1
   3   2   5   79.29   19.40   1
   3   2   5   74.19   26.90   1
  -3  -2  -5   56.59   19.10   1
   3  -2   5   62.09   28.20   1
  -3  -2  -5   50.19   23.90   1
   3   2   6   31.00   24.90   1
   3   2   6   38.60   18.10   1
  -3   2  -6   71.39   26.00   1
   3   2   6   32.00   23.90   1
  -3  -2  -6  -20.10   21.10   1
   3  -2   6   17.60   12.20   1
  -3  -2  -6   -3.60   15.00   1
   3  -2   6   29.90   28.60   1
   3   2   7  152.78   26.20   1
   3   2   7  157.28   29.50   1
  -3   2  -7  115.59   30.10   1
   3   2   7  200.48   35.30   1
  -3  -2  -7  213.88   35.40   1
   3  -2   7  166.28   35.30   1
   3  -2   7  115.79   20.00   1
   3   2   8  179.58   34.20   1
   3   2   8  136.09   24.90   1
  -3   2  -8   73.59   28.30   1
  -3   2  -8  101.19   27.40   1
   3  -2   8   92.89   20.80   1
   3  -2   8  148.89   26.00   1
  -3  -2  -8  107.29   29.80   1
   3  -2   8  140.69   34.20   1
  -3   2  -9   71.39   27.40   1
   3   2   9  105.59   25.80   1
  -3   2  -9  169.68   34.20   1
   3   2   9  184.48   37.60   1
   3  -2   9  148.99   36.10   1
   3  -2   9  248.68   37.60   1
  -3  -2  -9  171.98   34.50   1
   3  -2   9   84.69   26.50   1
  -3  -2  -9  149.49   31.20   1
   3   2  10   -7.90   29.30   1
   3   2  10   39.50   21.40   1
  -3   2 -10   -9.70   25.70   1
  -3   2 -10   11.10   26.50   1
   3  -2  10   14.60   31.70   1
   3  -2  10    6.10   26.70   1
   3  -2  10   35.70   20.40   1
  -3  -2 -10    6.00   29.70   1
  -3  -2 -10    3.10   27.70   1
  -3   2 -11   41.40   27.00   1
   3   2  11   21.90   32.80   1
  -3   2 -11  -31.60   30.70   1
   3   2  11   12.80   21.80   1
   3  -2  11   63.09   31.40   1
  -3  -2 -11  -22.20   25.40   1
  -3  -2 -11   65.79   33.40   1
   3  -2  11   36.00   31.80   1
   3   2  12  121.89   28.70   1
  -3   2 -12   46.10   36.40   1
   3   2  12  173.98   41.70   1
  -3   2 -12  152.78   37.20   1
   3  -2  12  157.48   40.20   1
  -3  -2 -12  119.19   40.20   1
   3  -2  12  171.88   41.20   1
  -3  -2 -12  165.78   34.10   1
   3  -2  12  122.09   29.00   1
  -3   2 -13   -6.00   34.30   1
  -3   2 -13   33.60   28.50   1
   3   2  13   59.59   25.60   1
   3   2  13    0.90   40.30   1
   3  -2  13   30.20   38.10   1
  -3  -2 -13  -14.00   35.50   1
   3  -2  13   29.50   26.60   1
   3  -2  13   23.70   38.50   1
  -3  -2 -13    2.70   30.40   1
   3   2  14   16.80   39.10   1
  -3   2 -14   25.40   29.20   1
  -3   2 -14  -13.60   39.10   1
   3  -2  14   88.59   45.50   1
  -3  -2 -14   32.20   37.20   1
   3  -2  14   35.80   39.90   1
   3  -2  14   31.60   27.60   1
  -3   2 -15  -50.49   44.90   1
  -3   2 -15   30.80   29.80   1
   3   2  15    4.30   24.20   1
  -3  -2 -15   41.70   38.30   1
   3  -2  15   47.40   30.50   1
   3  -2  15   64.69   47.70   1
   3  -2  15   67.49   51.69   1
  -3   3  14    9.90   25.80   1
   3   3 -14   26.20   49.70   1
  -3  -3  14   42.20   54.39   1
  -3  -3  14  -14.20   29.00   1
  -3  -3  14   -2.40   40.50   1
   3  -3 -14   35.70   38.20   1
   3   3 -13  115.69   41.10   1
  -3   3  13  210.18   44.20   1
  -3   3  13   67.49   28.70   1
   3  -3 -13  122.99   41.20   1
   3  -3 -13  185.98   37.60   1
  -3  -3  13  146.69   47.40   1
  -3   3  12  145.69   41.40   1
   3   3 -12   72.79   41.40   1
  -3   3  12  130.99   31.10   1
  -3  -3  12  247.48   35.40   1
   3  -3 -12  110.39   40.50   1
  -3  -3  12  116.89   41.80   1
   3   3 -11  153.88   40.80   1
  -3   3  11  202.58   42.80   1
  -3   3  11  209.78   39.30   1
  -3   3  11  188.38   32.90   1
  -3  -3  11  113.09   36.00   1
   3  -3 -11  152.28   41.90   1
  -3   3  10   10.30   22.30   1
  -3   3  10  114.79   33.50   1
  -3   3  10   56.39   33.40   1
   3   3 -10   21.20   30.00   1
   3  -3 -10   84.09   33.20   1
  -3  -3  10   54.69   30.60   1
  -3  -3  10  103.49   23.60   1
   3  -3 -10  129.89   29.00   1
  -3   3   9   70.49   32.20   1
   3   3  -9   51.89   31.80   1
  -3   3   9   42.80   22.30   1
  -3   3   9   60.09   26.80   1
   3   3  -9   -7.20   32.90   1
   3  -3  -9   54.89   27.50   1
   3  -3  -9   -5.70   28.90   1
  -3  -3   9   72.79   20.00   1
   3   3  -8   68.69   34.00   1
   3   3  -8   45.40   29.20   1
  -3   3   8   53.29   27.60   1
  -3   3   8   80.89   31.10   1
  -3   3   8   70.39   22.40   1
   3  -3  -8  123.29   30.50   1
   3  -3  -8   66.49   28.50   1
  -3   3   7   42.60   28.00   1
  -3   3   7   21.60   19.00   1
   3   3  -7   33.30   34.10   1
   3   3  -7   19.80   32.00   1
  -3   3   7   50.89   24.40   1
   3  -3  -7  -11.50   23.80   1
   3  -3  -7   17.20   22.10   1
  -3   3   6   36.30   23.60   1
   3   3  -6   67.59   33.00   1
   3   3  -6    5.00   24.50   1
  -3   3   6   32.30   24.90   1
  -3   3   6   43.60   18.80   1
   3  -3  -6    9.80   22.80   1
   3  -3  -6   38.50   24.90   1
  -3   3   5    5.60   24.80   1
   3   3  -5   11.10   30.00   1
   3   3  -5    9.70   24.70   1
  -3   3   5   43.10   16.30   1
  -3   3   5   38.30   23.40   1
   3  -3  -5    3.60   21.70   1
   3  -3  -5    0.10   25.60   1
   3   3  -4   45.30   28.40   1
   3   3  -4   63.59   31.00   1
  -3   3   4   43.40   23.60   1
  -3   3   4   89.89   18.90   1
  -3   3   4   91.59   30.80   1
   3  -3  -4   88.39   24.90   1
   3  -3  -4   86.29   32.60   1
  -3   3   3   46.00   28.60   1
  -3   3   3   50.39   14.60   1
  -3   3   3   29.80   20.70   1
   3   3  -3   52.79   28.00   1
   3  -3  -3   51.79   21.60   1
  -3   3   2    5.00   26.20   1
  -3   3   2   30.20   12.70   1
  -3   3   2   16.90   17.50   1
   3   3  -2   10.90   23.80   1
   3  -3  -2   48.30   25.90   1
   3   3  -1  170.58   21.10   1
   3   3  -1  151.58   34.50   1
  -3   3   1  123.19   18.70   1
  -3   3   1  174.28   33.30   1
   3  -3  -1  145.09   33.60   1
   3   3   0   89.89   29.60   1
  -3   3   0  109.89   30.10   1
   3   3   0   75.99   16.80   1
   3  -3   0   57.99   27.00   1
  -3  -3   0   11.30   19.40   1
   3   3   1  197.98   28.20   1
  -3   3  -1  245.78   40.10   1
   3   3   1  238.68   37.30   1
  -3  -3  -1  209.58   31.70   1
   3  -3   1  324.27   45.50   1
  -3  -3  -1  263.67   40.60   1
   3   3   2  106.49   18.70   1
  -3   3  -2   82.69   28.50   1
   3   3   2   95.99   24.30   1
   3   3   2  150.68   34.20   1
   3  -3   2   84.89   31.70   1
  -3  -3  -2   10.90   22.40   1
  -3  -3  -2   73.79   30.70   1
   3   3   3    6.10   22.40   1
  -3   3  -3  -10.30   24.00   1
   3   3   3   21.60   22.80   1
   3   3   3   -2.30   14.90   1
  -3  -3  -3  -64.19   23.40   1
  -3  -3  -3    2.40   20.60   1
   3  -3   3    6.10   28.50   1
  -3   3  -4  298.17   41.70   1
   3   3   4  284.27   40.30   1
   3   3   4  299.67   32.90   1
   3   3   4  300.57   41.30   1
   3  -3   4  261.57   41.90   1
  -3  -3  -4  207.08   37.10   1
  -3  -3  -4  222.28   39.80   1
   3   3   5  113.99   30.30   1
   3   3   5  117.69   29.90   1
   3   3   5   58.59   20.80   1
  -3   3  -5   64.59   30.70   1
   3  -3   5  111.49   35.10   1
  -3  -3  -5   85.19   28.10   1
   3   3   6   77.99   26.30   1
   3   3   6   71.29   27.80   1
  -3   3  -6   68.39   32.50   1
   3   3   6   21.80   17.70   1
  -3  -3  -6   19.60   34.00   1
  -3  -3  -6   -0.40   24.50   1
   3  -3   6   35.70   30.30   1
  -3   3  -7   42.40   30.50   1
   3   3   7    2.80   25.80   1
   3   3   7   30.10   28.00   1
   3   3   7   -5.20   18.60   1
  -3  -3  -7    6.70   26.80   1
  -3  -3  -7  -13.10   22.90   1
   3  -3   7   25.70   30.50   1
   3   3   8   69.79   29.70   1
   3   3   8   31.20   31.20   1
   3   3   8   -3.70   20.10   1
  -3   3  -8   39.70   31.60   1
  -3  -3  -8   47.20   23.50   1
   3  -3   8  -10.10   30.40   1
  -3  -3  -8   14.10   29.10   1
   3   3   9   98.29   35.10   1
   3   3   9  108.39   33.10   1
  -3   3  -9  120.69   37.70   1
   3   3   9   97.29   25.60   1
  -3  -3  -9  128.79   38.60   1
   3  -3   9   94.99   37.00   1
  -3   3 -10   39.70   36.10   1
   3   3  10   27.10   23.70   1
   3   3  10   92.79   38.30   1
  -3  -3 -10   37.90   34.50   1
   3  -3  10   20.70   35.90   1
  -3   3 -11   49.50   36.80   1
   3   3  11   45.10   36.90   1
   3   3  11   19.50   23.90   1
  -3  -3 -11   46.80   31.20   1
   3  -3  11   17.40   35.80   1
   3  -3  11   18.90   32.20   1
  -3  -3 -11   -9.90   33.60   1
  -3   3 -12  246.08   45.30   1
   3   3  12  181.78   54.89   1
   3   3  12  165.18   33.60   1
  -3  -3 -12  132.69   45.20   1
   3  -3  12  133.09   43.70   1
   3  -3  12  144.99   49.00   1
  -3  -3 -12  171.38   39.30   1
   3  -3  12  249.88   48.10   1
  -3   3 -13   32.00   36.20   1
   3   3  13   23.70   26.00   1
  -3  -3 -13   33.30   35.10   1
   3  -3  13   -0.10   37.90   1
   3  -3  13   97.39   47.30   1
  -3   4  11   53.29   29.10   1
  -3   4  11  201.98   53.59   1
   3  -4 -11   45.90   44.00   1
  -3  -4  11   15.60   44.30   1
   3  -4 -11   51.69   58.89   1
  -3   4  10  141.99   46.50   1
  -3   4  10   31.00   27.50   1
   3   4 -10   72.69   38.30   1
  -3   4  10  -12.40   32.70   1
  -3  -4  10   90.09   42.90   1
   3  -4 -10   -0.50   41.20   1
   3  -4 -10   27.90   36.80   1
  -3   4   9  153.78   32.10   1
   3   4  -9  138.79   43.00   1
  -3   4   9  134.69   37.40   1
  -3   4   9  173.38   44.30   1
   3  -4  -9  228.18   49.20   1
   3  -4  -9  198.08   41.10   1
  -3  -4   9  148.89   45.60   1
  -3   4   8  207.48   43.80   1
   3   4  -8  187.78   41.00   1
  -3   4   8  202.98   33.20   1
  -3   4   8  246.28   39.60   1
  -3  -4   8  159.08   46.50   1
   3  -4  -8  321.97   44.00   1
   3  -4  -8  147.79   42.50   1
  -3   4   7  -13.00   26.50   1
  -3   4   7   39.20   23.60   1
  -3   4   7   77.99   37.20   1
   3   4  -7   18.60   33.60   1
   3  -4  -7    8.50   35.10   1
  -3  -4   7   52.99   39.30   1
   3  -4  -7   35.60   32.20   1
  -3   4   6    4.50   20.50   1
  -3   4   6   39.70   31.20   1
  -3   4   6  -22.40   26.10   1
   3   4  -6  -18.50   30.20   1
  -3  -4   6  -17.80   34.70   1
   3  -4  -6   -6.90   29.40   1
  -3   4   5   58.69   28.70   1
  -3   4   5   63.49   29.90   1
  -3   4   5   62.89   21.70   1
   3   4  -5   27.20   29.40   1
   3  -4  -5  104.89   35.10   1
   3  -4  -5   -4.50   29.10   1
  -3  -4   5   52.69   37.10   1
  -3   4   4   23.30   19.10   1
  -3   4   4   33.20   27.80   1
   3   4  -4  -10.20   30.20   1
  -3   4   4   36.20   33.20   1
   3  -4  -4   67.79   31.70   1
   3  -4  -4  -46.60   24.80   1
  -3  -4   4   58.19   36.20   1
  -3   4   3  275.67   37.50   1
   3   4  -3  166.28   37.70   1
  -3   4   3  234.08   40.20   1
  -3   4   3  147.09   36.20   1
   3  -4  -3  252.37   40.80   1
   3  -4  -3  114.69   31.20   1
  -3  -4   3  208.88   44.40   1
   3   4  -2   87.49   35.00   1
  -3   4   2  152.28   38.30   1
  -3   4   2   91.09   19.90   1
   3  -4  -2  172.18   35.60   1
  -3  -4   2  113.59   38.00   1
  -3   4   1   83.59   34.10   1
   3   4  -1  116.99   36.50   1
  -3  -4   1  160.28   42.50   1
   3  -4  -1   88.19   35.00   1
  -3   4   0  102.59   33.50   1
   3   4   0  117.09   36.10   1
   3   4   0  114.99   23.10   1
   3  -4   0   81.99   34.90   1
  -3  -4   0   28.80   34.20   1
  -3  -4   0   33.60   24.50   1
  -3   4  -1   33.80   28.80   1
   3   4   1   49.50   30.70   1
  -3  -4  -1   38.50   33.10   1
  -3  -4  -1   -0.70   25.10   1
   3  -4   1   46.50   31.70   1
   3   4   2  128.39   24.20   1
  -3   4  -2   90.39   32.60   1
   3   4   2  101.19   36.90   1
  -3  -4  -2   89.29   36.20   1
   3  -4   2   92.79   37.40   1
  -3  -4  -2   99.99   29.60   1
   3   4   3   38.20   36.50   1
   3   4   3   71.09   29.80   1
  -3   4  -3   85.29   34.30   1
   3   4   3    5.30   25.60   1
  -3  -4  -3   78.89   34.80   1
   3  -4   3   73.89   36.00   1
  -3  -4  -3   83.89   31.00   1
   3   4   4  -13.00   17.20   1
   3   4   4   10.60   28.80   1
   3   4   4   -5.70   28.30   1
  -3   4  -4   22.70   28.40   1
   3  -4   4   42.10   36.50   1
  -3  -4  -4   33.70   31.20   1
  -3  -4  -4   15.70   32.70   1
   3   4   5   -8.90   29.60   1
  -3   4  -5   23.50   32.80   1
   3   4   5   27.80   31.90   1
   3   4   5   13.90   18.40   1
  -3  -4  -5  -30.30   31.10   1
   3  -4   5    8.10   36.00   1
  -3  -4  -5   56.79   33.70   1
   3   4   6   54.59   23.70   1
   3   4   6  106.59   32.50   1
  -3   4  -6   42.80   35.30   1
   3   4   6  107.89   36.00   1
  -3  -4  -6   57.69   32.90   1
   3  -4   6   52.69   36.50   1
  -3  -4  -6   53.09   34.10   1
   3   4   7   67.79   23.30   1
   3   4   7   91.29   36.50   1
   3   4   7   68.49   32.00   1
  -3   4  -7   46.50   33.20   1
  -3  -4  -7   44.50   36.80   1
   3  -4   7  108.89   38.20   1
  -3  -4  -7   47.80   33.70   1
   3   4   8  -23.30   32.90   1
  -3   4  -8    7.30   31.10   1
   3   4   8  -30.90   28.90   1
   3   4   8  -16.20   21.30   1
  -3  -4  -8  -21.90   34.70   1
  -3  -4  -8   30.90   35.90   1
   3  -4   8   34.50   35.60   1
   3   4   9   -2.10   24.20   1
  -3  -4  -9   23.60   41.40   1
   3  -4   9   45.10   39.40   1
   3   4  10    1.20   24.40   1
  -3   4 -10   11.40   34.50   1
   3   4  10   62.39   47.70   1
   3   4  10   20.00   35.00   1
  -3  -4 -10  -90.79   42.50   1
   3   5  -6  148.69   43.50   1
  -3   5   6  158.38   32.10   1
  -3   5   6  149.59   38.50   1
  -3   5   6  203.98   48.10   1
  -3  -5   6   80.09   44.60   1
   3  -5  -6  126.49   52.29   1
   3  -5  -6  128.69   44.20   1
  -3   5   5   40.10   41.70   1
   3   5  -5   80.09   37.10   1
  -3   5   5   23.50   33.10   1
  -3   5   5   68.39   27.50   1
   3  -5  -5   42.90   61.99   1
  -3  -5   5   53.69   42.30   1
   3  -5  -5   55.59   40.20   1
  -3   5   4  224.58   45.00   1
   3   5  -4  133.69   62.39   1
  -3   5   4  109.29   52.19   1
   3  -5  -4  110.99   43.20   1
   3  -5  -4  165.88   42.60   1
   3  -5  -3   56.69   37.00   1
  -3  -5   3  159.38   46.20   1
   3   5  -2  477.35   76.29   1
  -3   5   2  404.86   85.99   1
   3  -5  -2  342.67   55.69   1
  -3   5   1  206.88   56.59   1
   3   5  -1  166.08   43.20   1
   3  -5  -1  140.49   40.50   1
  -3  -5   1  180.58   46.60   1
  -3   5   0  178.78   56.19   1
   3   5   0  169.38   54.19   1
  -3  -5   0   55.49   41.80   1
   3  -5   0  111.59   41.00   1
  -3  -5  -1   -5.70   38.30   1
   3  -5   1   32.70   41.00   1
   3   5   2   48.80   48.00   1
  -3   5  -2   10.90   48.00   1
  -3  -5  -2   51.99   42.80   1
   3  -5   2   29.90   43.00   1
  -3  -5  -2   40.10   41.80   1
  -3  -5  -2  -50.89   46.60   1
   3   5   3   96.99   34.30   1
   3   5   3  136.99   31.80   1
  -3   5  -3   52.29   34.90   1
  -3  -5  -3   94.99   56.79   1
  -3  -5  -3  204.48   49.50   1
   3  -5   3  117.69   46.90   1
   3   5   4  163.98   33.70   1
  -3   5  -4   61.99   36.90   1
   3   5   4  229.08   44.10   1
  -3  -5  -4  254.27   48.60   1
  -3  -5  -4   90.99   55.49   1
   3  -5   4  108.79   46.80   1
   3   5   5  150.68   32.40   1
   3   5   5   67.09   33.90   1
   3   5   5  116.69   45.90   1
  -3   5  -5  116.69   43.60   1
  -3  -5  -5   30.60   58.89   1
   3  -5   5  139.79   47.10   1
  -3  -5  -5  139.79   44.10   1
   4   0 -17   67.39   30.50   1
  -4   0  17   24.20   25.70   1
  -4   0  16  132.49   40.50   1
   4   0 -16  -14.90   32.80   1
  -4   0  16   43.90   27.80   1
   4   0 -16    0.10   27.90   1
   4   0 -15  -24.40   33.70   1
   4   0 -15    8.80   24.60   1
  -4   0  15   56.09   33.90   1
   4   0 -15   30.20   39.30   1
  -4   0  15   17.30   23.30   1
   4   0 -14    9.50   32.50   1
  -4   0  14   54.19   23.00   1
   4   0 -14  -26.50   32.00   1
  -4   0  14   30.00   30.10   1
   4   0 -14  -17.20   23.90   1
  -4   0  13  518.95   52.29   1
  -4   0  13  551.64   61.89   1
   4   0 -13  463.95   64.99   1
   4   0 -13  554.64   54.19   1
   4   0 -13  629.74   61.89   1
   4   0 -12  234.58   36.30   1
   4   0 -12  220.38   37.30   1
   4   0 -12  267.37   46.20   1
  -4   0  12  205.88   31.70   1
  -4   0  12  275.17   43.60   1
   4   0 -11   48.00   22.00   1
   4   0 -11   31.20   26.50   1
  -4   0  11   38.20   25.20   1
  -4   0  11   17.80   18.20   1
   4   0 -10  502.15   48.50   1
  -4   0  10  691.43   84.59   1
   4   0 -10  506.95   56.69   1
   4   0 -10  499.15   50.99   1
  -4   0  10  481.75   47.50   1
   4   0  -9  284.87   34.00   1
   4   0  -9  307.27   38.70   1
  -4   0   9  338.97   44.90   1
  -4   0   9  304.17   35.50   1
  -4   0   8 5707.43  420.96   1
  -4   0   8 5480.15  418.36   1
   4   0  -8 5927.81  421.26   1
   4   0  -8 5975.10  417.46   1
   4   0  -8 5830.52  417.96   1
   4   0  -7  734.43   56.69   1
   4   0  -7  677.33   63.29   1
  -4   0   7  768.02   65.89   1
   4   0  -7  639.24   59.59   1
   4   0  -6 3415.66  247.78   1
   4   0  -6 3444.66  251.47   1
  -4   0   6 3349.17  251.67   1
   4   0  -6 3486.45  248.88   1
  -4   0   6 3434.56  249.28   1
  -4   0   5   99.99   17.90   1
   4   0  -5  126.29   16.30   1
   4   0  -5  110.69   22.50   1
  -4   0   5  117.19   23.20   1
   4   0  -5  122.89   20.90   1
   4   0  -4  397.16   32.80   1
   4   0  -4  363.96   37.70   1
  -4   0   4  407.36   36.00   1
  -4   0   4  435.06   42.70   1
   4   0  -4  433.16   41.50   1
   4   0  -3  286.87   24.80   1
   4   0  -3  276.27   30.30   1
   4   0  -3  305.57   34.40   1
  -4   0   3  385.16   35.20   1
  -4   0   3  309.57   29.20   1
   4   0  -2   73.49   16.30   1
   4   0  -2   86.79   15.10   1
  -4   0   2   72.59   13.20   1
  -4   0   2   93.09   18.40   1
   4   0  -1  567.34   45.00   1
  -4   0   1  546.25   47.60   1
   4   0  -1  525.15   47.00   1
   4   0  -1  652.33   45.70   1
   4   0   0 3064.29  231.58   1
  -4   0   0 3071.29  229.28   1
  -4   0   0 3139.89  231.68   1
   4   0   0 3435.66  230.28   1
   4   0   0 3278.47  230.68   1
   4   0   1 5870.21  432.46   1
   4   0   1 6065.89  433.26   1
  -4   0  -1 6162.28  434.56   1
  -4   0  -2   45.80   13.20   1
   4   0   2   19.70   13.00   1
   4   0   2    9.50   18.00   1
   4   0   2   22.60   12.90   1
  -4   0  -2   -1.50   17.50   1
   4   0   3  229.18   25.70   1
  -4   0  -3  225.58   35.20   1
   4   0   3  235.48   26.30   1
   4   0   3  228.38   35.00   1
  -4   0  -3  244.58   26.40   1
  -4   0  -4   16.30   12.20   1
  -4   0  -4  -31.70   20.00   1
   4   0   4    2.40   13.30   1
   4   0   4   -2.00   14.60   1
   4   0   4    6.00   19.20   1
   4   0   5 1868.51  148.79   1
  -4   0  -5 2097.49  154.18   1
   4   0   5 2096.49  150.68   1
  -4   0  -5 2087.79  150.08   1
   4   0   5 2069.69  153.98   1
  -4   0  -6 1123.19   88.19   1
  -4   0  -6 1097.09   81.99   1
   4   0   6 1015.60   80.99   1
   4   0   6 1057.99   87.79   1
   4   0   7   -5.60   23.20   1
  -4   0  -7   -4.50   21.80   1
  -4   0  -7   13.80   17.30   1
   4   0   7   18.50   15.60   1
   4   0   7    1.00   17.20   1
   4   0   8   19.20   16.00   1
   4   0   8   -0.40   17.10   1
   4   0   8  -10.10   22.80   1
  -4   0  -8   -1.10   21.50   1
  -4   0  -8   13.60   18.70   1
   4   0   9  109.59   23.30   1
  -4   0  -9  117.19   23.60   1
  -4   0  -9  137.09   30.90   1
   4   0   9  114.49   21.50   1
   4   0  10   60.09   21.80   1
   4   0  10   95.89   21.00   1
  -4   0 -10   59.99   29.40   1
  -4   0 -10   60.69   22.50   1
   4   0  10   76.99   29.20   1
   4   0  11    0.40   20.70   1
  -4   0 -11   52.79   29.70   1
  -4   0 -11   -2.70   24.20   1
   4   0  11   45.20   29.30   1
   4   0  11   -6.90   18.70   1
  -4   0 -12   -2.10   29.80   1
   4   0  12   36.10   33.80   1
   4   0  12  -16.60   19.80   1
  -4   0 -12  -10.80   22.60   1
  -4   0 -13   66.09   28.90   1
   4   0  13   66.19   25.60   1
   4   0  13   61.89   34.80   1
  -4   0 -13   90.79   36.80   1
  -4   0 -14   47.20   41.10   1
   4   0  14   82.29   42.90   1
   4   0  14   97.59   28.10   1
  -4   0 -14   95.39   28.60   1
  -4   0 -15   25.30   44.50   1
   4   0  15   92.99   46.90   1
  -4   0 -15   75.59   32.60   1
   4   0  15  148.69   30.70   1
  -4   0 -16   82.09   32.20   1
  -4   1  17   86.69   28.00   1
   4   1 -17  133.99   51.99   1
   4   1 -17  111.99   35.00   1
   4   1 -17  -36.00   40.80   1
   4  -1 -17   49.30   28.60   1
  -4  -1  17   94.79   31.60   1
  -4  -1  17   94.69   46.00   1
   4   1 -16   86.79   45.90   1
  -4   1  16  159.88   33.20   1
   4   1 -16  185.08   53.39   1
   4   1 -16  187.48   39.70   1
   4  -1 -16  136.79   32.20   1
  -4  -1  16  180.88   33.20   1
   4  -1 -16  246.38   49.80   1
  -4  -1  16  247.88   48.30   1
   4   1 -15   30.80   37.90   1
  -4   1  15  115.99   27.10   1
  -4   1  15  132.69   42.90   1
   4   1 -15  115.19   45.50   1
   4   1 -15   53.79   30.20   1
   4  -1 -15   75.79   38.60   1
  -4  -1  15  149.79   40.10   1
  -4  -1  15   69.89   29.60   1
   4  -1 -15  113.09   30.10   1
   4   1 -14  208.38   40.80   1
   4   1 -14  292.17   49.70   1
  -4   1  14  252.67   42.70   1
  -4   1  14  173.48   32.50   1
   4  -1 -14  226.98   37.20   1
   4  -1 -14  327.97   43.90   1
   4  -1 -14  314.97   52.69   1
  -4  -1  14  303.37   50.89   1
  -4  -1  14  245.08   38.20   1
   4   1 -13  -15.30   30.10   1
  -4   1  13    5.20   21.20   1
   4   1 -13  -18.30   25.60   1
  -4   1  13   18.50   28.70   1
   4   1 -13    3.00   31.80   1
  -4  -1  13    5.80   26.90   1
   4  -1 -13   -6.30   31.10   1
   4  -1 -13    1.70   26.60   1
   4  -1 -13   48.50   27.50   1
  -4  -1  13   -1.20   20.60   1
  -4   1  12  183.98   31.70   1
   4   1 -12  167.68   36.70   1
  -4   1  12  216.78   37.10   1
   4   1 -12  232.08   36.20   1
   4   1 -12  103.29   34.00   1
  -4  -1  12  142.29   33.50   1
   4  -1 -12  240.48   35.00   1
   4  -1 -12  262.07   33.10   1
   4  -1 -12  177.58   36.50   1
  -4  -1  12  214.08   32.70   1
   4   1 -11  191.78   40.10   1
   4   1 -11  134.29   32.40   1
   4   1 -11  147.69   30.90   1
  -4   1  11  204.98   36.90   1
  -4   1  11  125.49   26.80   1
   4  -1 -11  206.28   34.10   1
  -4  -1  11  140.79   25.40   1
   4  -1 -11  227.88   32.30   1
   4  -1 -11  153.38   33.40   1
  -4   1  10   24.40   18.60   1
   4   1 -10   56.09   25.20   1
   4   1 -10   33.90   27.30   1
  -4   1  10   49.80   25.40   1
   4   1 -10    4.60   23.30   1
   4  -1 -10   87.89   23.70   1
  -4  -1  10   24.40   19.10   1
  -4  -1  10   46.90   24.70   1
   4  -1 -10   46.70   21.20   1
   4  -1 -10   63.99   26.80   1
   4   1  -9  240.38   39.10   1
  -4   1   9  292.97   35.80   1
   4   1  -9  311.27   43.90   1
   4   1  -9  347.47   41.70   1
   4  -1  -9  288.37   35.20   1
   4  -1  -9  312.27   35.80   1
   4  -1  -9  327.37   44.60   1
  -4  -1   9  325.47   43.20   1
  -4  -1   9  311.57   35.60   1
   4   1  -8 1390.96  111.99   1
  -4   1   8 1348.57  113.39   1
  -4   1   8 1377.06  108.79   1
   4   1  -8 1479.35  109.49   1
   4   1  -8 1421.36  110.99   1
  -4  -1   8 1450.95  111.59   1
   4  -1  -8 1482.45  113.09   1
   4  -1  -8 1425.46  108.09   1
   4  -1  -8 1336.67  106.09   1
   4   1  -7 1007.00   77.89   1
  -4   1   7  921.91   82.69   1
  -4   1   7  955.10   77.49   1
   4   1  -7  928.31   79.39   1
   4  -1  -7 1040.40   81.89   1
  -4  -1   7  928.21   79.59   1
   4  -1  -7  982.00   75.29   1
   4  -1  -7  999.00   77.09   1
  -4  -1   7  963.50   75.39   1
   4   1  -6  189.48   26.50   1
   4   1  -6  148.09   25.00   1
  -4   1   6  149.79   24.30   1
   4   1  -6  181.08   30.90   1
  -4   1   6  145.29   27.90   1
  -4  -1   6  181.08   30.40   1
  -4  -1   6  149.59   22.60   1
   4  -1  -6  192.58   30.70   1
   4  -1  -6  151.08   21.90   1
  -4   1   5 1683.43  131.69   1
  -4   1   5 1678.03  128.29   1
  -4   1   5 1852.41  127.89   1
   4   1  -5 1702.33  128.69   1
   4   1  -5 1694.83  128.79   1
   4   1  -5 1696.13  130.59   1
   4  -1  -5 1692.03  131.19   1
  -4  -1   5 1786.62  129.19   1
   4  -1  -5 1667.33  126.89   1
  -4  -1   5 1735.03  126.79   1
  -4   1   4 2119.99  159.48   1
  -4   1   4 2122.89  162.38   1
   4   1  -4 2266.87  160.18   1
  -4   1   4 2138.99  159.18   1
   4   1  -4 2065.99  159.58   1
   4   1  -4 2290.37  161.58   1
   4  -1  -4 2023.90  161.58   1
   4  -1  -4 2114.79  159.58   1
  -4  -1   4 2395.66  160.38   1
  -4  -1   4 2185.08  158.48   1
   4   1  -3  685.73   59.79   1
  -4   1   3  737.13   58.49   1
  -4   1   3  748.63   62.79   1
   4   1  -3  791.32   60.89   1
   4   1  -3  873.61   64.19   1
  -4   1   3  699.43   58.89   1
   4  -1  -3  736.73   62.69   1
  -4  -1   3  694.63   57.59   1
   4  -1  -3  729.83   61.19   1
  -4  -1   3  822.02   61.39   1
   4   1  -2 1145.69   98.89   1
  -4   1   2 1379.56   98.09   1
   4   1  -2 1400.76   99.49   1
  -4   1   2 1377.06  100.69   1
   4   1  -2 1283.07   97.79   1
   4   1  -2 1420.56  100.99   1
  -4   1   2 1197.98   99.09   1
   4  -1  -2 1344.97   99.89   1
  -4  -1   2 1286.47   98.99   1
   4  -1  -2 1372.46  100.29   1
  -4   1   1  380.26   31.10   1
   4   1  -1  375.96   36.30   1
   4   1  -1  357.56   37.50   1
  -4   1   1  352.76   35.40   1
  -4   1   1  393.16   35.80   1
   4   1  -1  344.27   36.20   1
   4   1  -1  304.27   32.10   1
  -4  -1   1  332.97   35.40   1
   4  -1  -1  362.26   35.80   1
   4  -1  -1  428.06   39.00   1
   4   1   0  413.76   39.20   1
  -4   1   0  353.46   34.40   1
   4   1   0  486.55   37.20   1
  -4   1   0  420.26   37.90   1
   4   1   0  466.25   40.20   1
  -4   1   0  346.77   38.70   1
  -4  -1   0  469.25   40.90   1
  -4  -1   0  470.45   41.70   1
   4  -1   0  378.36   37.60   1
   4  -1   0  513.05   44.40   1
   4   1   1 2671.43  208.28   1
   4   1   1 3018.50  205.98   1
   4   1   1 2839.72  206.28   1
  -4   1  -1 2549.15  206.88   1
  -4   1  -1 2920.91  205.68   1
   4   1   1 2811.62  206.88   1
   4  -1   1 2920.11  207.78   1
   4  -1   1 2783.22  204.98   1
   4  -1   1 2874.61  205.78   1
  -4  -1  -1 2996.80  209.08   1
   4   1   2  941.51   80.39   1
  -4   1  -2  923.91   75.69   1
   4   1   2 1041.70   74.69   1
   4   1   2  976.60   76.39   1
   4   1   2  983.40   75.79   1
  -4   1  -2  915.01   75.79   1
  -4   1  -2  978.10   77.09   1
   4  -1   2 1024.60   73.59   1
   4  -1   2 1131.59   79.39   1
  -4  -1  -2  913.11   79.69   1
   4   1   3 1139.79   96.19   1
  -4   1  -3 1179.08   92.89   1
   4   1   3 1102.59   89.89   1
   4   1   3 1195.28   92.19   1
  -4   1  -3 1335.77   94.09   1
   4   1   3 1225.98   92.79   1
  -4  -1  -3 1136.29   96.49   1
   4  -1   3 1263.37   90.19   1
   4  -1   3 1363.46   95.89   1
  -4   1  -4  316.57   35.70   1
  -4   1  -4  359.26   36.20   1
   4   1   4  306.37   39.80   1
   4   1   4  286.87   32.90   1
   4   1   4  244.38   27.60   1
   4  -1   4  386.76   41.60   1
   4  -1   4  334.57   29.20   1
   4  -1   4  333.17   35.50   1
  -4  -1  -4  236.38   39.50   1
   4   1   5  188.78   27.30   1
  -4   1  -5  192.38   31.70   1
  -4   1  -5  193.08   29.10   1
   4   1   5  232.78   32.50   1
   4  -1   5  212.48   24.70   1
  -4  -1  -5  174.98   28.20   1
   4  -1   5  223.08   33.30   1
   4  -1   5  228.78   36.30   1
  -4  -1  -5  207.58   32.00   1
   4   1   6  457.35   54.39   1
   4   1   6  539.05   47.40   1
  -4   1  -6  566.14   50.49   1
  -4   1  -6  480.45   49.50   1
  -4  -1  -6  535.55   54.69   1
   4  -1   6  490.65   50.59   1
   4  -1   6  458.65   52.19   1
  -4  -1  -6  543.45   49.30   1
   4  -1   6  563.64   45.30   1
  -4   1  -7  963.00   84.59   1
  -4   1  -7  975.80   81.79   1
   4   1   7  957.80   84.89   1
   4   1   7  968.20   79.39   1
  -4  -1  -7  972.70   84.99   1
   4  -1   7  977.40   77.19   1
   4  -1   7  981.90   81.99   1
  -4  -1  -7 1143.89   83.99   1
   4  -1   7  931.21   81.99   1
   4   1   8 2206.78  167.28   1
  -4   1  -8 2234.68  164.78   1
   4   1   8 2151.98  162.58   1
  -4   1  -8 2133.99  163.08   1
   4  -1   8 2115.89  164.28   1
   4  -1   8 2157.68  160.68   1
   4  -1   8 2059.69  163.38   1
  -4  -1  -8 2175.48  167.08   1
  -4  -1  -8 2242.08  161.98   1
  -4   1  -9  340.97   46.10   1
  -4   1  -9  380.66   42.90   1
   4   1   9  359.86   49.00   1
   4   1   9  357.46   39.00   1
  -4  -1  -9  290.57   38.70   1
   4  -1   9  337.97   45.20   1
  -4  -1  -9  362.46   49.50   1
   4  -1   9  335.67   36.60   1
   4   1  10  666.13   61.89   1
  -4   1 -10  732.73   68.99   1
  -4   1 -10  668.03   64.59   1
   4   1  10  748.63   70.89   1
   4  -1  10  752.12   68.29   1
   4  -1  10  671.63   59.89   1
  -4  -1 -10  712.33   70.89   1
   4  -1  10  667.33   67.59   1
  -4  -1 -10  656.93   64.19   1
   4   1  11  268.77   36.70   1
   4   1  11  268.17   42.80   1
  -4   1 -11  145.49   33.70   1
  -4   1 -11  281.17   46.90   1
   4  -1  11  275.47   47.40   1
   4  -1  11  258.47   35.00   1
  -4  -1 -11  302.47   48.90   1
  -4  -1 -11  265.77   40.40   1
   4  -1  11  320.67   48.80   1
  -4   1 -12  205.98   38.50   1
  -4   1 -12  276.27   45.00   1
   4   1  12  300.07   52.19   1
   4   1  12  290.17   38.80   1
   4  -1  12  319.97   50.49   1
   4  -1  12  257.57   43.80   1
   4  -1  12  257.97   36.70   1
  -4  -1 -12  278.47   46.60   1
  -4  -1 -12  231.58   40.50   1
  -4   1 -13  -37.60   35.00   1
   4   1  13    5.30   37.30   1
  -4   1 -13   14.20   27.30   1
   4   1  13    6.00   22.60   1
   4  -1  13   32.10   34.80   1
   4  -1  13   38.40   34.60   1
  -4  -1 -13   -8.10   31.80   1
  -4  -1 -13    8.20   27.90   1
   4  -1  13   -3.80   22.00   1
   4   1  14   48.20   36.80   1
  -4   1 -14   64.39   30.40   1
  -4   1 -14   -7.80   40.60   1
   4   1  14   -4.90   22.20   1
   4  -1  14   48.70   37.40   1
  -4  -1 -14   17.10   37.30   1
   4  -1  14    8.50   42.60   1
   4  -1  14   47.80   24.50   1
  -4  -1 -14   23.30   26.00   1
  -4   1 -15   -0.60   42.10   1
  -4   1 -15    8.30   40.20   1
   4  -1  15  157.48   32.00   1
  -4  -1 -15   89.19   36.00   1
   4  -1  15  117.89   49.80   1
   4   2 -16   69.99   52.69   1
  -4   2  16   59.19   26.40   1
   4   2 -16  119.39   38.90   1
   4  -2 -16   79.29   36.60   1
  -4  -2  16   89.29   48.60   1
  -4  -2  16  101.99   29.70   1
   4   2 -15   98.89   46.80   1
  -4   2  15   67.49   29.80   1
   4   2 -15   98.59   37.10   1
   4   2 -15  -11.20   43.40   1
  -4  -2  15  128.89   48.10   1
  -4  -2  15   73.19   30.50   1
   4  -2 -15   95.99   36.60   1
  -4   2  14  147.69   35.00   1
   4   2 -14   76.89   45.90   1
   4   2 -14  117.89   42.70   1
  -4   2  14  212.68   45.50   1
   4   2 -14  118.79   35.80   1
  -4  -2  14  173.08   42.30   1
  -4  -2  14  173.88   33.00   1
   4  -2 -14  302.27   52.49   1
   4  -2 -14  189.08   37.40   1
   4   2 -13 1410.66  112.19   1
  -4   2  13 1423.36  118.29   1
  -4   2  13 1307.87  108.09   1
   4   2 -13 1253.77  120.39   1
   4  -2 -13 1064.89  121.19   1
   4  -2 -13 1450.55  107.19   1
   4  -2 -13 1240.58  107.89   1
  -4  -2  13 1399.66  107.89   1
   4   2 -12  912.01   81.69   1
  -4   2  12  858.31   84.39   1
   4   2 -12  823.62   83.09   1
  -4   2  12  834.92   75.49   1
   4   2 -12  863.91   89.19   1
   4  -2 -12  911.01   83.29   1
   4  -2 -12  797.82   74.99   1
   4  -2 -12  944.01   77.09   1
  -4  -2  12  938.51   74.29   1
  -4   2  11  558.74   61.79   1
  -4   2  11  461.95   51.69   1
   4   2 -11  658.83   68.19   1
   4   2 -11  506.65   60.49   1
   4   2 -11  515.45   58.69   1
   4  -2 -11  473.45   51.59   1
   4  -2 -11  540.35   55.99   1
  -4  -2  11  590.84   51.19   1
  -4  -2  11  563.64   58.49   1
   4  -2 -11  510.35   58.49   1
  -4   2  10  306.97   39.10   1
   4   2 -10  324.77   45.00   1
   4   2 -10  321.07   46.90   1
   4   2 -10  289.87   45.90   1
  -4   2  10  358.86   49.80   1
  -4  -2  10  310.37   45.20   1
   4  -2 -10  291.47   36.90   1
  -4  -2  10  342.47   36.40   1
   4  -2 -10  361.96   47.70   1
   4   2  -9  181.98   30.70   1
   4   2  -9  218.98   34.40   1
  -4   2   9  167.48   29.00   1
   4   2  -9  297.97   41.80   1
  -4   2   9  173.78   31.70   1
  -4   2   9  214.38   35.50   1
  -4  -2   9  144.89   29.60   1
   4  -2  -9  219.58   34.90   1
   4  -2  -9  187.38   31.40   1
  -4   2   8  114.79   27.10   1
   4   2  -8  108.19   29.60   1
  -4   2   8  161.28   32.70   1
   4   2  -8   91.49   24.00   1
   4   2  -8  134.59   33.40   1
  -4   2   8  100.49   22.90   1
   4  -2  -8  111.99   27.60   1
  -4  -2   8   76.89   25.00   1
  -4  -2   8  116.49   21.10   1
   4  -2  -8  131.69   24.70   1
  -4   2   7  145.79   27.80   1
   4   2  -7  177.08   31.80   1
  -4   2   7  139.09   30.70   1
   4   2  -7  187.38   34.90   1
   4   2  -7  131.19   24.30   1
  -4  -2   7  153.08   24.80   1
   4  -2  -7  252.17   29.80   1
  -4  -2   7  197.48   33.70   1
   4  -2  -7  208.98   32.50   1
   4   2  -6  955.70   75.29   1
  -4   2   6 1032.20   76.49   1
  -4   2   6  920.21   81.89   1
  -4   2   6  956.60   75.59   1
   4   2  -6  890.71   78.89   1
  -4  -2   6  942.61   71.89   1
   4  -2  -6  908.71   76.79   1
   4  -2  -6  908.51   79.79   1
  -4   2   5 2311.17  166.38   1
  -4   2   5 2272.17  170.08   1
   4   2  -5 2026.20  169.58   1
  -4   2   5 2346.87  167.28   1
   4   2  -5 2267.67  168.38   1
   4  -2  -5 2148.19  166.08   1
   4  -2  -5 2202.78  168.68   1
  -4  -2   5 2332.17  163.68   1
  -4   2   4  367.76   41.40   1
  -4   2   4  346.87   44.40   1
   4   2  -4  331.77   48.40   1
  -4   2   4  430.26   37.00   1
   4   2  -4  407.36   49.20   1
   4  -2  -4  377.76   42.30   1
   4  -2  -4  331.67   41.00   1
  -4  -2   4  369.76   33.30   1
  -4   2   3  293.97   30.80   1
   4   2  -3  346.27   38.90   1
   4   2  -3  284.97   42.80   1
  -4   2   3  273.67   38.70   1
  -4   2   3  285.47   38.60   1
   4  -2  -3  300.67   41.30   1
   4  -2  -3  232.28   34.60   1
   4   2  -2  195.98   23.90   1
   4   2  -2  196.98   33.00   1
  -4   2   2  339.37   48.20   1
   4   2  -2  294.57   43.60   1
  -4   2   2  244.38   33.20   1
  -4   2   2  206.78   24.80   1
   4  -2  -2  189.58   29.00   1
  -4  -2   2  183.88   27.50   1
   4   2  -1  211.18   31.10   1
   4   2  -1  245.28   34.60   1
   4   2  -1  157.28   25.90   1
  -4   2   1  275.37   34.90   1
  -4   2   1  143.99   22.90   1
  -4  -2   1  178.78   29.60   1
  -4  -2   1  237.18   31.50   1
  -4   2   0  442.46   47.30   1
   4   2   0  486.55   51.29   1
   4   2   0  440.56   40.50   1
   4   2   0  455.55   48.20   1
  -4   2   0  492.15   38.40   1
  -4  -2   0  438.66   45.40   1
   4  -2   0  580.24   52.89   1
  -4   2  -1  285.27   41.40   1
   4   2   1  268.07   47.50   1
   4   2   1  296.27   34.40   1
   4   2   1  228.68   35.20   1
   4   2   1  225.38   27.70   1
   4  -2   1  250.77   42.80   1
  -4  -2  -1  206.58   30.70   1
   4   2   2  507.05   50.99   1
   4   2   2  537.45   48.90   1
   4   2   2  503.35   50.29   1
  -4   2  -2  509.05   49.99   1
   4   2   2  542.15   44.20   1
  -4  -2  -2  433.16   50.49   1
   4  -2   2  476.35   52.39   1
  -4   2  -3  813.62   70.39   1
   4   2   3  872.21   74.59   1
   4   2   3  893.91   69.09   1
   4   2   3  771.82   71.49   1
  -4  -2  -3  809.82   71.39   1
   4  -2   3  784.12   73.99   1
  -4   2  -4 2082.89  156.48   1
   4   2   4 2032.40  153.98   1
   4   2   4 2138.89  155.18   1
   4   2   4 1957.50  157.28   1
  -4  -2  -4 2178.88  154.18   1
  -4  -2  -4 2027.90  158.28   1
   4  -2   4 2033.80  158.78   1
   4   2   5  612.74   56.09   1
  -4   2  -5  609.64   58.89   1
   4   2   5  631.14   55.09   1
   4   2   5  607.74   61.89   1
  -4  -2  -5  698.03   54.99   1
   4  -2   5  665.53   64.49   1
  -4  -2  -5  663.93   63.19   1
   4   2   6  140.69   27.90   1
   4   2   6  130.99   30.10   1
  -4   2  -6  202.58   31.90   1
   4   2   6  131.19   22.90   1
  -4  -2  -6  101.09   28.30   1
  -4  -2  -6   73.99   19.70   1
   4  -2   6  125.09   18.80   1
   4   2   7  519.75   58.79   1
   4   2   7  521.55   54.39   1
  -4   2  -7  527.85   56.69   1
   4   2   7  565.34   50.79   1
   4  -2   7  551.44   46.20   1
   4  -2   7  564.04   59.39   1
  -4   2  -8  101.19   25.60   1
   4   2   8   81.39   23.40   1
   4   2   8  157.98   33.50   1
  -4   2  -8  127.69   30.60   1
  -4  -2  -8   64.19   27.50   1
   4  -2   8   91.19   31.30   1
   4  -2   8   82.39   19.20   1
   4  -2   8   88.69   26.50   1
  -4   2  -9  880.81   80.29   1
   4   2   9  998.80   86.49   1
  -4   2  -9  985.60   83.09   1
   4   2   9  836.02   77.29   1
   4  -2   9  964.60   81.49   1
   4  -2   9  903.61   84.59   1
  -4  -2  -9  913.51   81.59   1
  -4  -2  -9  913.21   85.39   1
   4  -2   9  947.61   74.69   1
  -4   2 -10  914.21   84.69   1
   4   2  10  888.61   77.99   1
  -4   2 -10  931.21   82.19   1
   4   2  10  948.31   85.49   1
   4  -2  10  892.91   81.99   1
  -4  -2 -10  979.70   87.09   1
   4  -2  10  895.21   74.79   1
   4  -2  10  911.41   85.09   1
  -4  -2 -10  838.62   80.69   1
  -4   2 -11  651.83   66.49   1
  -4   2 -11  531.95   68.49   1
   4   2  11  648.14   74.39   1
   4   2  11  733.63   63.19   1
   4  -2  11  700.13   71.69   1
  -4  -2 -11  617.34   64.69   1
  -4  -2 -11  669.73   73.09   1
   4  -2  11  707.23   59.89   1
   4  -2  11  634.14   71.69   1
   4   2  12  741.23   78.89   1
   4   2  12  730.23   68.29   1
  -4   2 -12  681.33   70.79   1
   4  -2  12  668.13   83.49   1
  -4  -2 -12  731.43   79.29   1
  -4  -2 -12  686.53   69.79   1
   4  -2  12  707.53   66.59   1
   4  -2  12  845.82   80.09   1
   4   2  13  394.96   57.09   1
   4   2  13  305.47   43.10   1
  -4   2 -13  211.48   41.50   1
   4  -2  13  352.66   44.20   1
  -4  -2 -13  307.67   51.39   1
   4  -2  13  256.37   51.99   1
  -4  -2 -13  303.27   50.69   1
   4   2  14    8.00   26.00   1
  -4   2 -14  -57.39   41.10   1
  -4   2 -14   25.10   34.10   1
   4  -2  14  -64.19   38.30   1
  -4  -2 -14   51.39   50.99   1
   4  -2  14   34.10   26.20   1
   4  -2  14   45.40   51.29   1
  -4   3  14   28.80   26.90   1
   4   3 -14   95.59   41.80   1
  -4  -3  14   71.89   30.00   1
  -4  -3  14   89.19   47.70   1
   4  -3 -14   51.59   34.00   1
   4   3 -13  532.45   64.19   1
  -4   3  13  452.85   70.49   1
  -4   3  13  443.46   51.69   1
   4  -3 -13  395.56   65.19   1
   4  -3 -13  425.06   57.99   1
  -4   3  12  246.58   37.60   1
   4   3 -12  210.98   45.10   1
  -4   3  12  288.57   51.09   1
   4   3 -12  260.87   51.59   1
  -4  -3  12  258.77   53.89   1
  -4  -3  12  418.56   42.70   1
   4  -3 -12  274.07   50.29   1
   4  -3 -12  231.28   37.80   1
  -4   3  11 1602.44  120.49   1
   4   3 -11 1477.25  118.29   1
  -4   3  11 1294.67  110.99   1
   4   3 -11 1340.67  120.29   1
  -4   3  11 1248.48  111.89   1
   4  -3 -11 1166.88  108.89   1
  -4  -3  11 1605.74  109.09   1
   4  -3 -11 1365.36  117.99   1
  -4   3  10    2.30   23.70   1
  -4   3  10    1.10   29.90   1
   4   3 -10   18.20   31.10   1
  -4   3  10   69.39   33.90   1
   4   3 -10    9.60   35.20   1
  -4  -3  10   80.09   22.40   1
  -4  -3  10   49.50   26.20   1
   4  -3 -10   15.20   32.70   1
   4  -3 -10    0.10   27.20   1
  -4   3   9  -25.90   18.70   1
   4   3  -9   13.90   29.40   1
   4   3  -9   13.50   34.80   1
  -4   3   9   38.00   25.60   1
  -4   3   9   56.29   32.30   1
  -4  -3   9   27.20   25.00   1
   4  -3  -9   56.39   27.30   1
   4  -3  -9   10.20   30.00   1
  -4  -3   9   60.49   20.10   1
  -4   3   8   37.70   25.80   1
   4   3  -8   43.20   27.60   1
  -4   3   8   18.60   20.70   1
  -4   3   8   46.90   29.40   1
   4   3  -8   -9.10   31.70   1
   4  -3  -8   39.20   26.30   1
   4  -3  -8   21.80   27.30   1
   4   3  -7  249.48   42.60   1
  -4   3   7  331.37   45.70   1
  -4   3   7  235.08   39.60   1
  -4   3   7  302.37   35.00   1
   4   3  -7  341.97   49.00   1
   4  -3  -7  239.38   44.40   1
   4  -3  -7  240.48   39.50   1
  -4   3   6  285.87   33.10   1
  -4   3   6  158.18   32.20   1
  -4   3   6  238.38   35.60   1
   4   3  -6  229.68   43.80   1
   4   3  -6  179.28   35.30   1
   4  -3  -6  176.68   36.60   1
   4  -3  -6  161.68   33.90   1
  -4   3   5   58.99   23.80   1
   4   3  -5   93.39   29.70   1
  -4   3   5  118.19   27.70   1
  -4   3   5   98.69   20.80   1
   4   3  -5  103.59   36.30   1
   4  -3  -5  102.89   26.90   1
  -4   3   4  597.84   57.49   1
   4   3  -4  605.14   60.59   1
  -4   3   4  617.24   50.69   1
  -4   3   4  600.14   57.39   1
   4   3  -4  546.95   64.19   1
   4  -3  -4  555.74   55.69   1
   4  -3  -4  548.95   60.09   1
  -4   3   3  391.26   45.10   1
   4   3  -3  496.15   50.69   1
  -4   3   3  454.65   39.40   1
   4   3  -3  387.16   52.89   1
  -4   3   3  448.06   50.29   1
   4  -3  -3  397.06   45.30   1
   4  -3  -3  437.36   50.09   1
   4   3  -2  511.55   40.50   1
   4   3  -2  481.15   50.59   1
   4   3  -2  462.85   55.39   1
  -4   3   2  411.06   40.20   1
  -4   3   2  436.46   51.99   1
   4  -3  -2  498.15   52.79   1
   4   3  -1  290.17   30.50   1
  -4   3   1  319.37   42.90   1
  -4   3   1  307.17   28.10   1
   4   3  -1  254.67   40.30   1
   4   3  -1  258.67   43.00   1
   4  -3  -1  353.56   46.10   1
   4   3   0  304.07   42.00   1
   4   3   0  239.48   29.30   1
  -4   3   0  242.48   39.20   1
   4  -3   0  352.26   45.00   1
  -4  -3   0  183.58   34.30   1
   4   3   1  119.29   21.20   1
  -4   3  -1  188.38   35.70   1
   4   3   1  154.38   33.10   1
  -4  -3  -1   93.69   24.70   1
   4  -3   1  167.38   33.30   1
   4   3   2  450.05   46.50   1
   4   3   2  382.56   46.40   1
   4   3   2  404.46   36.90   1
  -4   3  -2  287.17   44.20   1
  -4  -3  -2  254.87   43.00   1
   4  -3   2  353.66   50.69   1
  -4  -3  -2  417.96   48.00   1
   4   3   3  273.37   37.60   1
   4   3   3  281.47   40.60   1
  -4   3  -3  287.87   43.40   1
   4   3   3  224.08   30.60   1
  -4  -3  -3  277.17   40.90   1
   4  -3   3  237.08   40.90   1
  -4  -3  -3  240.08   40.20   1
   4   3   4  312.47   35.90   1
  -4   3  -4  343.27   44.90   1
   4   3   4  339.47   46.40   1
   4   3   4  326.37   43.40   1
   4  -3   4  306.47   52.89   1
  -4  -3  -4  338.87   45.20   1
  -4  -3  -4  357.96   43.40   1
  -4   3  -5  506.25   55.09   1
   4   3   5  498.85   50.49   1
   4   3   5  457.65   45.70   1
   4   3   5  473.55   54.09   1
  -4  -3  -5  365.66   58.39   1
   4  -3   5  492.85   60.79   1
  -4  -3  -5  523.25   54.49   1
   4   3   6  164.98   28.00   1
   4   3   6  146.39   32.10   1
  -4   3  -6  159.78   36.90   1
   4   3   6  191.58   35.50   1
  -4  -3  -6   64.99   29.60   1
  -4  -3  -6  186.38   33.70   1
   4  -3   6  132.39   38.50   1
   4   3   7   86.59   29.40   1
   4   3   7   59.89   23.20   1
   4   3   7   96.99   32.00   1
  -4   3  -7  119.99   33.60   1
  -4  -3  -7   88.69   31.90   1
   4  -3   7   87.69   34.30   1
  -4  -3  -7   65.89   26.00   1
   4   3   8   -5.20   19.60   1
   4   3   8   20.70   30.10   1
   4   3   8   16.70   29.10   1
  -4   3  -8   -0.50   31.40   1
  -4  -3  -8   29.50   31.50   1
  -4  -3  -8    0.20   23.20   1
   4  -3   8   41.30   34.70   1
   4   3   9  181.88   38.50   1
  -4   3  -9  304.87   49.40   1
   4   3   9  256.37   38.60   1
   4   3   9  311.87   53.29   1
   4  -3   9  325.47   49.20   1
  -4  -3  -9  306.67   52.59   1
  -4   3 -10  152.08   40.80   1
   4   3  10  196.78   33.00   1
   4   3  10  215.68   43.00   1
  -4  -3 -10  124.49   39.90   1
   4  -3  10  136.09   43.20   1
  -4   3 -11   42.10   35.10   1
   4   3  11   14.30   24.10   1
   4   3  11  -59.89   34.70   1
   4  -3  11  -40.60   35.90   1
  -4  -3 -11  -19.00   29.70   1
  -4  -3 -11   31.00   36.20   1
   4   3  12   40.80   27.40   1
  -4  -3 -12   16.90   38.10   1
   4  -3  12    6.60   39.00   1
   4   3  13    4.40   24.90   1
  -4   3 -13   16.00   32.90   1
   4  -3  13   14.90   44.20   1
  -4  -3 -13  -11.60   32.40   1
   4   4 -11   13.40   34.60   1
  -4   4  11  -58.69   22.00   1
  -4   4  11  -44.10   41.40   1
  -4   4  11  -17.60   41.80   1
   4  -4 -11  -20.20   39.30   1
   4  -4 -11  -50.69   34.50   1
  -4  -4  11   29.20   41.30   1
  -4   4  10  246.38   39.70   1
  -4   4  10  256.17   50.39   1
   4   4 -10  210.48   49.10   1
  -4   4  10  193.68   39.80   1
   4  -4 -10  184.78   45.40   1
   4  -4 -10  283.17   54.69   1
  -4   4   9  130.29   34.00   1
   4   4  -9  100.29   36.10   1
  -4   4   9  112.89   27.60   1
  -4   4   9  113.49   40.50   1
   4  -4  -9   28.00   37.80   1
   4  -4  -9  143.29   39.70   1
  -4   4   8  464.85   54.79   1
  -4   4   8  638.34   66.09   1
  -4   4   8  544.45   52.49   1
   4   4  -8  473.95   61.39   1
   4  -4  -8  429.26   58.49   1
   4  -4  -8  466.15   71.79   1
   4   4  -7  323.47   50.59   1
  -4   4   7  263.67   38.40   1
  -4   4   7  371.06   54.79   1
  -4   4   7  208.18   42.30   1
   4  -4  -7  356.46   46.60   1
   4  -4  -7  343.07   53.19   1
  -4   4   6   48.90   32.30   1
  -4   4   6  103.99   33.20   1
   4   4  -6   37.50   32.90   1
  -4   4   6   64.69   22.60   1
   4  -4  -6   10.70   34.00   1
   4  -4  -6   81.89   31.80   1
   4   4  -5   56.89   32.80   1
  -4   4   5   57.79   29.10   1
  -4   4   5   76.59   22.00   1
  -4   4   5   83.89   31.20   1
   4  -4  -5   89.39   31.30   1
   4  -4  -5  107.09   36.90   1
  -4   4   4   49.99   20.10   1
   4   4  -4  -17.70   29.10   1
  -4   4   4   16.20   26.10   1
  -4   4   4   13.00   29.00   1
   4  -4  -4  -25.80   24.40   1
   4  -4  -4   -2.30   30.00   1
  -4   4   3  168.58   38.60   1
   4   4  -3  129.49   33.70   1
  -4   4   3   88.19   28.20   1
   4  -4  -3  156.08   35.40   1
  -4  -4   3  141.59   41.50   1
   4  -4  -3   67.29   27.10   1
  -4   4   2  465.65   43.40   1
  -4   4   2  451.15   59.09   1
   4   4  -2  484.15   58.29   1
  -4  -4   2  510.45   66.09   1
   4  -4  -2  455.55   58.99   1
   4   4  -1  260.87   33.90   1
   4   4  -1  295.17   46.90   1
  -4   4   1  359.56   49.20   1
  -4  -4   1  233.28   47.80   1
   4  -4  -1  408.06   50.49   1
  -4  -4   1  160.68   31.50   1
  -4   4   0  228.58   40.20   1
   4   4   0  252.67   33.90   1
   4   4   0  174.08   39.60   1
  -4  -4   0  233.98   36.50   1
  -4  -4   0  222.88   46.30   1
   4  -4   0  316.37   51.79   1
   4   4   1   37.00   28.10   1
  -4   4  -1   80.79   30.30   1
   4   4   1   41.50   21.90   1
  -4  -4  -1   -0.70   23.80   1
  -4  -4  -1   81.29   35.20   1
   4  -4   1   91.09   34.50   1
   4   4   2  111.19   23.80   1
  -4   4  -2   88.69   32.20   1
   4   4   2  124.29   34.80   1
  -4  -4  -2   59.49   35.30   1
   4  -4   2  109.69   37.00   1
   4   4   3   81.29   32.40   1
   4   4   3  102.99   24.30   1
   4   4   3  151.18   36.10   1
  -4   4  -3  154.58   36.20   1
  -4  -4  -3  154.38   35.00   1
  -4  -4  -3   99.19   34.80   1
   4  -4   3   67.49   37.80   1
   4   4   4  113.79   25.70   1
   4   4   4  152.88   34.10   1
  -4   4  -4  137.49   37.00   1
   4   4   4  151.68   32.90   1
  -4  -4  -4  162.08   40.40   1
   4  -4   4  158.18   38.70   1
   4   4   5   86.19   29.70   1
  -4   4  -5   42.50   33.10   1
   4   4   5   68.29   33.30   1
   4   4   5   50.49   21.70   1
  -4  -4  -5   20.00   36.30   1
  -4  -4  -5   13.90   33.70   1
   4  -4   5   91.79   39.70   1
   4   4   6   96.99   31.40   1
   4   4   6  156.48   39.90   1
  -4   4  -6  147.89   39.20   1
   4   4   6  216.38   33.30   1
  -4  -4  -6  118.99   37.50   1
   4  -4   6   87.49   38.40   1
  -4  -4  -6  128.89   39.90   1
  -4   4  -7   94.89   36.40   1
   4   4   7  106.79   25.40   1
   4   4   7   48.40   30.90   1
   4   4   7  123.09   38.70   1
  -4  -4  -7  129.99   41.20   1
   4  -4   7  137.29   44.40   1
  -4   4  -8   51.19   32.60   1
   4   4   8   80.29   27.70   1
   4   4   8  130.09   45.00   1
   4   4   8   26.10   33.70   1
   4  -4   8   85.99   42.00   1
  -4  -4  -8   48.30   40.50   1
  -4  -4  -8  122.49   39.80   1
   4   4   9   94.99   41.60   1
   4   4   9   21.30   36.80   1
   4   4   9   50.69   27.00   1
  -4   4  -9   40.40   37.60   1
   4  -4   9   72.89   42.60   1
  -4  -4  -9   65.99   40.80   1
   4   4  10    7.60   25.10   1
   4   4  10   19.90   35.20   1
  -4   4 -10   -6.80   37.80   1
   4   4  10   27.40   48.30   1
  -4  -4 -10  -35.00   40.30   1
  -4   5   6  118.29   37.60   1
   4   5  -6  117.79   39.80   1
  -4   5   6  211.08   34.20   1
  -4   5   6  295.57   53.09   1
   4  -5  -6  161.68   54.69   1
  -4  -5   6   87.89   47.20   1
   4  -5  -6  194.38   45.50   1
   4   5  -5  122.79   38.30   1
  -4   5   5   96.19   43.10   1
  -4   5   5  120.99   29.70   1
  -4   5   5   60.09   35.00   1
   4  -5  -5  109.89   47.10   1
   4  -5  -5  167.08   46.70   1
  -4  -5   5  127.29   48.20   1
  -4   5   4  471.45   76.69   1
   4  -5  -4  375.56   64.29   1
  -4  -5   3  261.57   53.19   1
  -4   5   2  574.84   97.79   1
   4   5  -2  588.74   94.39   1
   4  -5  -2  451.75   67.39   1
   4   5  -1   71.19   51.29   1
   4  -5  -1   77.99   37.10   1
  -4  -5   1   76.89   41.00   1
   4   5   0  146.89   64.89   1
  -4  -5   0   99.49   42.30   1
  -4  -5   0  -17.20   44.00   1
   4  -5   0  112.39   39.90   1
  -4  -5  -1  -78.39   45.00   1
  -4  -5  -1   73.99   41.10   1
   4  -5   1   88.39   37.90   1
  -4  -5  -1   75.89   40.70   1
  -4   5  -2   11.70   34.90   1
   4   5   2   26.90   34.40   1
  -4  -5  -2   27.70   39.50   1
  -4  -5  -2   57.89   48.20   1
  -4  -5  -2   -2.20   51.49   1
   4   5   3   83.19   38.40   1
   4   5   3   43.60   27.90   1
  -4   5  -3   66.89   35.80   1
   4  -5   3   -4.50   38.50   1
  -4  -5  -3  112.79   45.50   1
  -4  -5  -3   65.99   49.90   1
  -4   5  -4  118.89   39.60   1
   4   5   4  122.49   35.90   1
   4   5   4  221.28   37.20   1
   4  -5   4  290.87   53.79   1
  -4  -5  -4  198.98   59.79   1
  -4  -5  -4  249.28   51.29   1
  -4   5  -5  270.67   51.19   1
   4   5   5  192.28   36.20   1
   4   5   5  287.57   55.89   1
   4   5   5  158.38   42.70   1
  -4  -5  -5  218.18   53.89   1
   4  -5   5  224.18   49.40   1
  -4  -5  -5  366.06   65.49   1
   5   0 -17   86.19   52.19   1
   5   0 -17   -3.50   27.30   1
  -5   0  17    9.30   28.20   1
   5   0 -16    7.90   38.40   1
  -5   0  16   10.10   24.50   1
  -5   0  16  -18.00   34.20   1
   5   0 -16   -7.20   40.10   1
   5   0 -16   17.80   25.60   1
   5   0 -15   47.90   37.30   1
   5   0 -15   -3.50   36.40   1
  -5   0  15   31.50   33.90   1
  -5   0  15    3.20   22.40   1
   5   0 -15    0.90   24.20   1
   5   0 -14  150.68   55.19   1
  -5   0  14   68.59   30.90   1
   5   0 -14   72.69   35.30   1
  -5   0  14   57.09   23.70   1
   5   0 -14   37.90   24.20   1
   5   0 -13   54.89   30.90   1
   5   0 -13   -8.60   29.50   1
   5   0 -13    2.30   21.50   1
  -5   0  13   32.60   20.80   1
  -5   0  13    1.10   27.80   1
  -5   0  12   13.20   25.70   1
  -5   0  12   12.30   18.30   1
   5   0 -12   11.50   26.60   1
   5   0 -12  -12.30   24.70   1
   5   0 -12   23.30   22.20   1
  -5   0  11   10.80   25.00   1
   5   0 -11    0.00   18.90   1
  -5   0  11   -4.00   17.20   1
   5   0 -11  -31.00   23.90   1
   5   0 -11   30.30   23.40   1
  -5   0  10   19.70   38.90   1
  -5   0  10   19.70   19.20   1
   5   0 -10   35.80   19.80   1
   5   0 -10   13.70   23.60   1
  -5   0   9  140.99   36.00   1
   5   0  -9   79.89   20.10   1
   5   0  -9   65.49   24.80   1
  -5   0   9   60.19   25.80   1
   5   0  -9   40.90   22.00   1
  -5   0   8   26.90   18.10   1
   5   0  -8   36.00   21.90   1
  -5   0   8   35.10   24.60   1
   5   0  -8   16.90   21.50   1
  -5   0   7  100.59   27.20   1
   5   0  -7   84.09   17.60   1
   5   0  -7   89.59   24.90   1
  -5   0   7  101.49   19.90   1
   5   0  -7   77.19   21.50   1
   5   0  -6   -7.60   12.90   1
   5   0  -6    6.50   20.60   1
  -5   0   6   -1.00   15.80   1
   5   0  -6   33.80   18.80   1
  -5   0   6   12.60   18.90   1
   5   0  -5   -1.30   11.40   1
  -5   0   5    9.40   14.80   1
   5   0  -5   -0.40   16.80   1
   5   0  -5   -0.90   18.00   1
  -5   0   5   -4.80   20.00   1
  -5   0   4   -0.70   13.00   1
   5   0  -4   -2.00   18.50   1
  -5   0   4   21.10   19.40   1
   5   0  -4  -16.90   16.10   1
   5   0  -4   -9.50   10.00   1
  -5   0   3  -14.90   13.40   1
  -5   0   3   10.40   18.60   1
   5   0  -3   -7.50   16.40   1
   5   0  -3    2.00    7.40   1
   5   0  -3   10.10   15.10   1
  -5   0   2   12.30   17.40   1
   5   0  -2  -13.50   14.70   1
   5   0  -2    9.10   16.20   1
   5   0  -1   21.60   14.40   1
   5   0  -1    9.50   15.30   1
  -5   0   1   12.40   16.50   1
   5   0  -1   12.00   11.90   1
   5   0   0   -7.80   12.80   1
   5   0   0    4.60   14.10   1
  -5   0   0   29.30    7.60   1
  -5   0   0    2.20   15.60   1
   5   0   0    0.80   15.50   1
  -5   0  -1  136.59   21.80   1
   5   0   1  118.89   17.70   1
  -5   0  -1  103.39   15.50   1
   5   0   1  155.98   21.40   1
   5   0   2   90.19   17.90   1
   5   0   2  152.58   22.30   1
  -5   0  -2  107.29   17.00   1
  -5   0  -2  120.99   23.60   1
  -5   0  -3   27.80   20.30   1
   5   0   3   37.20   14.90   1
   5   0   3   13.30   19.60   1
   5   0   3   -1.60   13.90   1
  -5   0  -3   18.00   11.90   1
   5   0   4    7.30   21.60   1
   5   0   4    7.40   14.40   1
   5   0   4   -6.10   13.20   1
  -5   0  -4   22.40   13.90   1
  -5   0  -4  -34.40   20.80   1
  -5   0  -5  222.78   32.10   1
   5   0   5  148.79   24.90   1
   5   0   5  194.48   26.30   1
  -5   0  -5  226.28   35.10   1
   5   0   5  195.08   30.10   1
  -5   0  -6  -24.30   19.80   1
   5   0   6   -2.20   16.90   1
  -5   0  -6   18.00   16.00   1
   5   0   6  -10.00   14.80   1
   5   0   6  -13.00   20.60   1
  -5   0  -7  -14.00   24.80   1
   5   0   7   22.20   17.80   1
   5   0   7   30.70   16.70   1
   5   0   7   11.50   24.00   1
  -5   0  -8   27.30   18.30   1
   5   0   8   27.20   18.20   1
   5   0   8   42.90   23.60   1
  -5   0  -8    7.00   22.60   1
   5   0   8  -21.80   15.20   1
   5   0   9   -2.20   17.00   1
  -5   0  -9   -5.90   20.60   1
  -5   0  -9   34.50   25.50   1
   5   0   9    6.10   19.80   1
   5   0   9   -4.80   24.50   1
  -5   0 -10   13.50   25.90   1
   5   0  10    6.50   17.50   1
   5   0  10    1.20   20.90   1
  -5   0 -10    8.70   21.20   1
   5   0  10   16.50   26.00   1
   5   0  11   33.60   28.90   1
  -5   0 -11   -1.70   20.70   1
   5   0  11   21.70   19.80   1
  -5   0 -11   13.90   28.80   1
   5   0  11   13.70   23.00   1
  -5   0 -12  -20.90   29.80   1
   5   0  12   24.10   20.30   1
  -5   0 -12    2.90   25.20   1
   5   0  12  -19.00   30.70   1
  -5   0 -13  -18.10   33.60   1
  -5   0 -13   32.60   26.60   1
   5   0  13  -36.70   30.00   1
   5   0  13  -23.50   19.90   1
   5   0  14  -17.90   36.70   1
  -5   0 -14  -17.40   25.70   1
  -5   0 -14   -1.90   37.10   1
   5   0  14  -43.80   20.40   1
   5   0  15   39.40   26.60   1
  -5   0 -15  -37.30   41.80   1
  -5   0 -15   52.99   37.70   1
   5   0  15   43.10   43.90   1
   5   1 -17  -28.60   50.09   1
  -5   1  17   53.19   28.10   1
   5   1 -17  -30.30   50.79   1
   5   1 -17   12.50   31.50   1
   5  -1 -17  -22.10   28.40   1
  -5  -1  17   69.09   32.10   1
  -5  -1  17  109.79   54.39   1
   5   1 -16  -37.00   42.70   1
  -5   1  16   13.90   25.00   1
   5   1 -16  -22.20   41.70   1
   5   1 -16   46.20   33.40   1
  -5  -1  16   19.60   24.60   1
  -5  -1  16   52.09   39.00   1
   5  -1 -16   41.60   48.20   1
   5  -1 -16   18.20   24.60   1
   5   1 -15   62.19   40.40   1
  -5   1  15   27.00   33.30   1
   5   1 -15  -17.20   36.70   1
   5   1 -15  -40.20   26.40   1
  -5   1  15   10.10   21.80   1
   5  -1 -15   10.70   23.80   1
   5  -1 -15   44.60   38.90   1
   5  -1 -15    7.90   37.40   1
  -5  -1  15    1.80   22.70   1
  -5  -1  15   -2.60   33.80   1
   5   1 -14   -7.50   28.40   1
   5   1 -14    4.10   32.80   1
  -5   1  14    9.30   21.40   1
  -5   1  14   37.70   31.10   1
   5   1 -14  -11.80   34.30   1
   5  -1 -14   49.30   24.10   1
  -5  -1  14   56.09   33.50   1
   5  -1 -14  109.29   37.90   1
  -5  -1  14   20.40   23.40   1
   5  -1 -14   16.20   31.60   1
  -5   1  13   -6.50   20.80   1
   5   1 -13   -1.10   27.20   1
  -5   1  13   18.40   26.60   1
   5   1 -13   28.20   30.80   1
   5   1 -13    8.80   31.80   1
  -5  -1  13    3.30   21.10   1
   5  -1 -13   34.90   30.70   1
  -5  -1  13  -21.10   28.00   1
   5  -1 -13   45.90   28.80   1
  -5   1  12  -13.10   19.70   1
   5   1 -12    5.10   29.70   1
  -5   1  12   -0.30   27.40   1
   5   1 -12   32.70   26.00   1
   5   1 -12  -26.10   29.10   1
  -5  -1  12    5.60   19.30   1
   5  -1 -12   23.70   29.40   1
  -5  -1  12   20.70   27.00   1
   5  -1 -12   23.80   28.20   1
   5  -1 -12  -13.50   24.00   1
  -5   1  11    7.60   18.90   1
   5   1 -11   54.59   28.50   1
  -5   1  11   40.50   26.70   1
   5   1 -11   43.70   30.40   1
   5   1 -11   28.80   25.40   1
   5  -1 -11   96.19   25.70   1
  -5  -1  11   26.10   20.20   1
   5  -1 -11   27.00   22.60   1
  -5  -1  11    9.00   26.60   1
   5  -1 -11   70.69   30.90   1
  -5   1  10   20.10   24.30   1
   5   1 -10   37.10   24.30   1
  -5   1  10   24.90   17.70   1
   5  -1 -10   22.00   20.50   1
  -5  -1  10   -6.70   29.50   1
   5  -1 -10   -0.70   25.30   1
   5  -1 -10   64.39   43.40   1
  -5  -1  10   24.90   24.50   1
  -5   1   9   50.29   20.30   1
   5   1  -9   48.10   23.10   1
  -5   1   9   27.40   32.30   1
   5   1  -9   17.90   26.90   1
   5   1  -9   56.09   23.50   1
   5  -1  -9   78.59   21.10   1
  -5  -1   9   19.30   18.50   1
   5  -1  -9   58.79   25.10   1
   5  -1  -9   77.39   21.80   1
  -5  -1   9  107.19   28.00   1
  -5   1   8   71.49   26.30   1
   5   1  -8    7.90   24.70   1
  -5   1   8   26.90   30.40   1
   5   1  -8   39.00   22.20   1
  -5  -1   8   62.79   23.20   1
  -5  -1   8   18.20   17.10   1
   5  -1  -8   45.80   23.70   1
   5  -1  -8   78.09   18.80   1
   5   1  -7   16.80   22.80   1
   5   1  -7   -4.30   19.10   1
  -5   1   7   13.50   17.30   1
   5   1  -7  -28.20   18.90   1
  -5   1   7   42.10   23.30   1
   5  -1  -7   37.50   21.50   1
   5  -1  -7   23.40   18.10   1
  -5  -1   7   28.00   19.50   1
   5  -1  -7   -4.40   16.50   1
  -5  -1   7   15.10   14.30   1
  -5   1   6  147.69   27.60   1
   5   1  -6  117.59   26.60   1
   5   1  -6  127.79   23.40   1
   5   1  -6  102.39   22.50   1
  -5   1   6  120.79   23.60   1
  -5   1   6  127.69   22.40   1
  -5  -1   6  137.19   25.00   1
   5  -1  -6  160.98   22.30   1
  -5  -1   6  130.99   19.60   1
   5  -1  -6  128.19   27.00   1
  -5   1   5   33.40   22.30   1
  -5   1   5   21.90   16.50   1
   5   1  -5   32.00   18.10   1
   5   1  -5   45.10   21.10   1
  -5   1   5   48.60   16.60   1
   5   1  -5   51.79   18.10   1
   5  -1  -5   36.70   20.80   1
  -5  -1   5   52.99   14.60   1
   5  -1  -5   32.80   18.30   1
  -5   1   4  104.79   20.40   1
   5   1  -4  133.89   25.30   1
  -5   1   4  125.69   19.40   1
   5   1  -4  172.28   29.40   1
  -5   1   4  131.79   24.80   1
   5   1  -4  125.49   21.10   1
   5  -1  -4  128.79   23.70   1
  -5  -1   4  138.19   19.50   1
   5  -1  -4  157.18   23.80   1
  -5   1   3  133.99   22.80   1
   5   1  -3  159.48   25.60   1
   5   1  -3  110.79   20.90   1
   5   1  -3  124.49   20.90   1
  -5   1   3  136.49   20.90   1
  -5   1   3  112.19   18.10   1
   5  -1  -3  121.69   23.10   1
  -5  -1   3   53.59   17.30   1
  -5  -1   3  117.59   20.40   1
   5  -1  -3  118.89   22.00   1
   5   1  -2  144.29   22.50   1
   5   1  -2  170.48   24.00   1
  -5   1   2  159.28   22.70   1
   5   1  -2  162.18   29.00   1
  -5   1   2  182.68   22.60   1
  -5   1   2  163.08   29.90   1
   5   1  -2  179.88   24.70   1
   5  -1  -2  200.98   26.90   1
   5  -1  -2  154.48   23.50   1
  -5  -1   2  184.18   27.10   1
  -5   1   1   26.50   16.30   1
  -5   1   1   24.80   12.80   1
   5   1  -1   10.40   17.50   1
   5   1  -1   34.60   17.30   1
  -5   1   1   26.20   17.10   1
   5   1  -1   18.10   17.70   1
   5   1  -1   29.20   15.00   1
   5  -1  -1   53.99   16.90   1
   5  -1  -1   51.69   20.50   1
  -5  -1   1   51.29   16.90   1
  -5   1   0  645.14   50.49   1
   5   1   0  596.34   51.09   1
   5   1   0  548.65   48.90   1
  -5   1   0  494.65   48.90   1
   5   1   0  560.44   48.20   1
  -5  -1   0  624.14   53.99   1
   5  -1   0  641.54   53.79   1
   5  -1   0  605.94   50.09   1
  -5  -1   0  646.54   53.19   1
   5   1   1   77.99   17.70   1
  -5   1  -1   44.50   17.60   1
  -5   1  -1   42.20   15.80   1
   5   1   1   50.89   15.50   1
   5   1   1   82.59   18.00   1
   5  -1   1   68.49   15.00   1
   5  -1   1   45.40   16.10   1
  -5  -1  -1   34.80   21.90   1
   5  -1   1   69.99   22.20   1
   5   1   2  160.38   23.60   1
   5   1   2  144.39   22.00   1
  -5   1  -2  146.89   22.70   1
   5   1   2  120.69   28.50   1
  -5   1  -2  182.28   25.50   1
   5   1   2  119.59   21.90   1
  -5   1  -2  148.29   26.40   1
  -5  -1  -2  102.49   26.80   1
   5  -1   2  159.68   20.20   1
   5  -1   2  148.09   25.40   1
  -5   1  -3   -2.70   17.10   1
   5   1   3    3.10   15.90   1
   5   1   3   46.90   18.10   1
   5   1   3   -1.50   13.00   1
   5   1   3   11.40   22.60   1
  -5   1  -3    7.40   18.90   1
   5  -1   3   -0.50   20.30   1
   5  -1   3    5.80   13.40   1
  -5  -1  -3  -21.80   22.30   1
  -5   1  -4   33.40   20.10   1
   5   1   4   25.40   22.00   1
   5   1   4   33.00   12.30   1
  -5   1  -4   25.00   21.10   1
   5  -1   4   43.90   21.20   1
   5  -1   4   27.80   14.30   1
  -5  -1  -4    4.90   23.00   1
   5  -1   4   49.60   19.50   1
   5   1   5   66.89   19.90   1
  -5   1  -5  105.69   24.90   1
   5   1   5   52.89   24.10   1
  -5   1  -5   50.59   20.70   1
   5  -1   5   46.50   23.50   1
   5  -1   5   50.89   21.60   1
  -5  -1  -5   51.49   23.80   1
   5  -1   5   61.69   16.10   1
  -5  -1  -5   72.49   22.10   1
  -5   1  -6   32.60   21.60   1
  -5   1  -6   41.20   23.00   1
   5   1   6   29.60   23.90   1
   5   1   6   15.50   18.10   1
  -5  -1  -6   29.60   26.20   1
   5  -1   6   71.49   24.40   1
   5  -1   6   42.40   21.80   1
   5  -1   6   38.00   16.10   1
  -5  -1  -6   46.50   20.90   1
   5   1   7   -1.20   16.30   1
  -5   1  -7   32.50   21.20   1
   5   1   7   58.69   26.20   1
  -5   1  -7   19.50   20.70   1
  -5  -1  -7   39.00   22.10   1
   5  -1   7   57.79   25.60   1
   5  -1   7   26.50   15.70   1
   5  -1   7    6.80   22.20   1
  -5  -1  -7   22.30   24.80   1
  -5   1  -8   67.89   24.20   1
   5   1   8   82.69   21.50   1
  -5   1  -8   69.89   26.50   1
   5   1   8   78.49   28.50   1
   5  -1   8   89.09   32.60   1
   5  -1   8   69.39   19.40   1
  -5  -1  -8  102.99   26.90   1
   5  -1   8   35.80   24.40   1
   5   1   9   35.70   27.00   1
   5   1   9   -3.30   17.70   1
  -5   1  -9  -18.40   20.60   1
  -5   1  -9    6.30   23.70   1
   5  -1   9  -20.50   22.80   1
  -5  -1  -9   12.00   23.50   1
   5  -1   9   43.40   27.60   1
  -5  -1  -9   34.00   25.10   1
   5   1  10   21.10   29.60   1
  -5   1 -10   28.70   23.10   1
  -5   1 -10   -3.20   25.40   1
   5   1  10   30.90   20.70   1
   5  -1  10   58.79   27.80   1
  -5  -1 -10   55.69   27.50   1
  -5  -1 -10   20.30   27.10   1
   5  -1  10   26.80   20.30   1
   5  -1  10   25.10   28.20   1
   5   1  11  -21.50   29.10   1
  -5   1 -11   -8.60   27.70   1
  -5   1 -11   12.40   23.20   1
   5   1  11  -22.30   17.60   1
   5  -1  11   10.20   30.10   1
  -5  -1 -11   59.39   29.30   1
   5  -1  11   37.20   28.60   1
   5  -1  11   26.70   22.40   1
  -5  -1 -11   12.60   29.90   1
   5   1  12   53.29   32.10   1
   5   1  12  -22.60   20.00   1
  -5   1 -12    5.70   26.10   1
  -5   1 -12  -12.00   31.40   1
  -5  -1 -12   39.30   31.20   1
   5  -1  12   11.90   37.90   1
  -5  -1 -12   47.50   32.70   1
   5  -1  12  -21.30   29.80   1
   5  -1  12   23.10   25.20   1
  -5   1 -13   26.70   27.90   1
  -5   1 -13    1.10   35.60   1
   5   1  13   21.80   25.30   1
   5   1  13   58.79   40.60   1
   5  -1  13  113.39   36.10   1
   5  -1  13   66.89   26.20   1
   5  -1  13   34.20   34.50   1
  -5  -1 -13   30.80   34.60   1
  -5  -1 -13   30.60   23.40   1
   5   1  14    7.60   24.90   1
   5   1  14   64.49   37.30   1
  -5   1 -14  -22.70   31.00   1
  -5   1 -14  -24.40   44.80   1
  -5  -1 -14  -34.10   37.10   1
  -5  -1 -14   38.90   26.10   1
   5  -1  14   -4.40   39.80   1
   5  -1  14  -26.10   23.10   1
   5   1  15   48.50   26.60   1
  -5   1 -15   24.30   27.90   1
  -5   1 -15  -42.90   47.90   1
   5  -1  15   40.80   28.40   1
  -5  -1 -15   66.09   26.80   1
   5  -1  15   72.69   47.50   1
  -5   2  16   -6.40   26.00   1
   5   2 -16  -19.20   49.99   1
   5   2 -16   24.20   36.40   1
   5   2 -16  -25.20   45.90   1
  -5  -2  16  124.09   55.99   1
  -5  -2  16   91.89   32.10   1
   5  -2 -16  112.49   37.80   1
  -5   2  15   -0.70   25.60   1
   5   2 -15   29.30   44.10   1
   5   2 -15   27.00   35.30   1
   5   2 -15  -41.40   40.80   1
  -5  -2  15   14.80   25.30   1
  -5  -2  15   66.39   39.60   1
   5  -2 -15    3.50   31.70   1
   5   2 -14  -33.90   36.80   1
  -5   2  14   -8.50   33.60   1
  -5   2  14  -21.00   20.80   1
   5   2 -14  -12.70   43.20   1
   5   2 -14  -11.30   31.40   1
  -5  -2  14   37.40   36.40   1
   5  -2 -14   -2.20   34.10   1
   5  -2 -14   68.79   31.40   1
  -5  -2  14   18.00   24.40   1
  -5   2  13   20.90   23.00   1
  -5   2  13  122.79   34.70   1
   5   2 -13   54.09   35.60   1
   5   2 -13  101.89   43.20   1
   5   2 -13   76.09   32.60   1
  -5  -2  13   58.59   33.90   1
  -5  -2  13   78.59   25.90   1
   5  -2 -13   86.19   38.90   1
  -5   2  12   50.79   23.60   1
  -5   2  12   56.89   31.20   1
   5   2 -12   62.69   30.90   1
   5   2 -12   79.79   38.70   1
   5   2 -12   83.89   32.70   1
  -5  -2  12   37.80   21.90   1
  -5  -2  12   10.40   30.10   1
   5  -2 -12   67.09   35.30   1
   5  -2 -12   88.49   47.30   1
  -5   2  11   47.30   27.50   1
   5   2 -11  -10.90   27.10   1
   5   2 -11   -1.80   30.80   1
  -5   2  11   21.00   19.10   1
   5   2 -11  -21.10   28.70   1
   5  -2 -11  126.99   28.50   1
  -5  -2  11   26.30   29.10   1
  -5  -2  11  -22.10   19.80   1
   5  -2 -11    9.00   29.40   1
  -5   2  10  138.09   32.00   1
   5   2 -10  130.09   29.20   1
   5   2 -10   98.29   32.10   1
  -5   2  10  111.79   24.60   1
   5   2 -10  174.38   37.80   1
   5  -2 -10  176.08   35.50   1
  -5  -2  10   92.99   24.00   1
  -5  -2  10   85.19   28.10   1
  -5   2   9   21.40   19.80   1
   5   2  -9   10.60   24.00   1
   5   2  -9   83.79   29.20   1
  -5   2   9   58.69   27.50   1
  -5   2   9   51.09   26.60   1
   5   2  -9   24.70   29.50   1
  -5  -2   9   -8.50   18.50   1
   5  -2  -9   69.09   38.10   1
  -5  -2   9   16.60   24.70   1
   5  -2  -9   69.19   27.60   1
  -5   2   8   83.89   28.40   1
   5   2  -8   51.69   28.70   1
   5   2  -8   88.29   22.90   1
  -5   2   8   54.39   23.80   1
   5   2  -8   72.29   27.70   1
  -5   2   8   33.70   18.60   1
   5  -2  -8   90.99   29.30   1
  -5  -2   8   50.79   18.70   1
   5  -2  -8   35.50   25.90   1
  -5  -2   8   40.70   22.30   1
  -5   2   7  232.08   33.60   1
   5   2  -7  181.78   32.90   1
   5   2  -7  219.48   35.00   1
  -5   2   7  141.29   28.70   1
   5   2  -7  139.19   31.80   1
  -5   2   7  214.48   35.30   1
   5  -2  -7  228.98   35.20   1
  -5  -2   7  238.98   34.40   1
  -5  -2   7  192.58   25.50   1
   5  -2  -7  211.58   36.90   1
   5   2  -6   33.10   23.40   1
  -5   2   6   13.30   20.80   1
  -5   2   6   19.70   24.10   1
  -5   2   6   39.70   17.90   1
   5   2  -6   19.60   25.40   1
   5   2  -6   34.50   18.10   1
  -5  -2   6   41.40   14.70   1
   5  -2  -6   59.49   21.60   1
  -5  -2   6   65.49   20.20   1
   5  -2  -6   28.30   26.70   1
   5   2  -5  620.94   63.69   1
  -5   2   5  716.43   58.19   1
  -5   2   5  715.83   59.29   1
   5   2  -5  741.33   57.29   1
  -5   2   5  764.62   64.79   1
   5   2  -5  664.23   60.79   1
  -5  -2   5  647.84   54.59   1
   5  -2  -5  647.74   61.29   1
  -5  -2   5  612.94   58.69   1
  -5   2   4  236.58   27.30   1
   5   2  -4  221.58   28.90   1
  -5   2   4  299.17   38.40   1
   5   2  -4  177.78   31.10   1
  -5  -2   4  146.79   23.10   1
   5  -2  -4  228.98   32.90   1
  -5  -2   4  117.89   25.00   1
   5   2  -3  788.32   59.49   1
  -5   2   3  725.03   63.79   1
  -5   2   3  702.03   57.89   1
   5   2  -3  668.83   64.39   1
  -5   2   3  653.83   61.09   1
   5   2  -3  711.23   62.69   1
   5  -2  -3  671.73   60.09   1
  -5  -2   3  723.63   59.39   1
  -5   2   2   51.09   20.20   1
   5   2  -2  -11.50   22.20   1
   5   2  -2    6.20   14.20   1
  -5   2   2   35.00   15.00   1
   5   2  -2   -8.60   21.00   1
  -5   2   2    1.90   20.50   1
  -5  -2   2   28.50   16.30   1
   5  -2  -2   13.50   23.30   1
   5  -2  -2   -2.40   16.30   1
  -5   2   1  128.59   27.30   1
  -5   2   1  123.99   17.40   1
   5   2  -1   92.89   26.50   1
  -5   2   1   82.09   19.70   1
   5   2  -1  111.79   19.10   1
   5   2  -1   90.79   25.80   1
  -5  -2   1  150.88   23.90   1
  -5  -2   1   94.09   21.50   1
   5  -2  -1  155.28   28.60   1
   5   2   0   55.09   41.90   1
  -5   2   0  107.19   15.50   1
   5   2   0  110.79   19.50   1
   5   2   0  108.29   25.90   1
  -5  -2   0   88.49   22.30   1
   5  -2   0   90.19   27.10   1
  -5  -2   0   80.49   21.90   1
  -5   2  -1   72.39   22.60   1
   5   2   1   74.69   24.00   1
   5   2   1   60.19   16.10   1
   5   2   1  102.19   24.10   1
   5  -2   1   97.19   26.10   1
  -5  -2  -1    2.50   21.30   1
  -5   2  -2   46.90   22.90   1
   5   2   2   33.70   16.60   1
   5   2   2   -3.80   22.30   1
   5   2   2   28.00   22.30   1
   5   2   2   42.20   21.40   1
   5  -2   2   14.50   25.00   1
  -5  -2  -2  -31.40   23.10   1
   5   2   3   73.39   26.10   1
  -5   2  -3  119.19   27.50   1
   5   2   3  120.89   25.40   1
   5   2   3   70.49   19.40   1
   5   2   3  126.39   24.70   1
   5  -2   3  115.59   30.20   1
  -5  -2  -3   69.69   27.00   1
  -5   2  -4   59.39   27.80   1
   5   2   4   27.20   24.60   1
   5   2   4   12.70   21.60   1
   5   2   4   47.90   20.10   1
   5  -2   4   64.69   28.50   1
  -5  -2  -4   39.70   23.40   1
   5   2   5   81.59   26.40   1
   5   2   5   43.10   21.10   1
   5   2   5   48.80   24.40   1
  -5   2  -5   38.50   23.60   1
  -5  -2  -5   71.79   20.80   1
   5  -2   5   86.69   34.00   1
  -5  -2  -5   48.20   25.00   1
   5  -2   5   50.69   16.10   1
   5   2   6   40.20   25.70   1
   5   2   6   32.40   22.30   1
   5   2   6    3.00   18.00   1
  -5   2  -6   14.10   24.10   1
   5  -2   6   48.40   27.80   1
  -5  -2  -6   12.20   25.50   1
   5  -2   6   32.50   15.90   1
  -5  -2  -6   61.49   17.00   1
  -5   2  -7   -9.80   23.80   1
   5   2   7    2.50   24.10   1
   5   2   7  -11.60   17.70   1
  -5   2  -7   -2.90   19.20   1
   5  -2   7   31.30   28.30   1
  -5  -2  -7   14.80   23.90   1
   5  -2   7   21.80   17.00   1
  -5   2  -8  176.78   35.00   1
   5   2   8  172.88   27.60   1
   5   2   8  170.18   35.10   1
  -5   2  -8  166.58   30.30   1
  -5  -2  -8   86.69   28.70   1
  -5  -2  -8  176.18   35.00   1
   5  -2   8  140.69   36.50   1
   5  -2   8  207.98   32.60   1
   5  -2   8  152.08   25.20   1
   5   2   9   89.89   33.90   1
  -5   2  -9   71.79   28.10   1
  -5   2  -9   73.49   30.40   1
   5   2   9    6.70   20.40   1
  -5  -2  -9   62.19   29.30   1
   5  -2   9   54.49   31.60   1
   5  -2   9   91.59   29.00   1
  -5  -2  -9   93.09   33.60   1
   5  -2   9   60.59   20.60   1
  -5   2 -10  129.69   34.00   1
  -5   2 -10  135.39   33.10   1
   5   2  10  107.09   26.40   1
   5   2  10  138.49   37.70   1
   5  -2  10  128.09   26.60   1
   5  -2  10  152.78   35.40   1
   5  -2  10  156.38   36.00   1
  -5  -2 -10  134.29   37.10   1
  -5  -2 -10  107.99   31.20   1
   5   2  11  109.99   38.40   1
   5   2  11  115.79   26.90   1
  -5   2 -11  139.99   35.30   1
  -5   2 -11   78.09   37.20   1
   5  -2  11  150.68   39.90   1
  -5  -2 -11  110.19   36.70   1
   5  -2  11  152.88   27.90   1
   5  -2  11  136.49   37.30   1
  -5  -2 -11  136.39   32.50   1
   5   2  12    7.90   22.70   1
  -5   2 -12  -52.09   36.70   1
  -5   2 -12   -3.60   24.80   1
   5   2  12   -7.30   35.50   1
  -5  -2 -12   10.30   34.20   1
   5  -2  12   53.49   41.50   1
  -5  -2 -12   65.19   31.10   1
   5  -2  12   16.60   22.60   1
   5  -2  12   28.00   35.80   1
   5   2  13   68.29   26.70   1
  -5   2 -13  124.89   36.20   1
  -5   2 -13   30.20   39.30   1
   5  -2  13  119.89   46.10   1
   5  -2  13  113.39   30.30   1
  -5  -2 -13  121.69   38.70   1
   5  -2  13  138.89   44.00   1
  -5  -2 -13  150.18   42.20   1
   5   2  14   12.40   24.80   1
  -5   2 -14  -27.20   50.19   1
  -5   2 -14   -6.40   30.80   1
   5  -2  14   17.60   27.00   1
   5  -2  14  -14.50   41.90   1
  -5  -2 -14  -22.80   36.60   1
   5  -2  14   44.40   47.70   1
  -5   3  14   -3.60   24.00   1
   5   3 -14    5.50   43.80   1
   5   3 -14  -92.99   42.40   1
   5   3 -14  -27.70   35.70   1
   5  -3 -14   30.40   35.40   1
  -5  -3  14  103.29   48.00   1
  -5  -3  14   97.09   33.60   1
   5   3 -13  122.19   38.60   1
  -5   3  13  138.79   42.00   1
   5   3 -13   61.39   42.30   1
   5   3 -13   49.80   38.80   1
  -5   3  13   37.30   26.70   1
   5  -3 -13  129.99   44.30   1
   5  -3 -13  145.59   34.20   1
  -5  -3  13   61.79   31.90   1
  -5   3  12   52.59   38.60   1
   5   3 -12   31.10   36.10   1
  -5   3  12  -13.10   22.80   1
   5   3 -12   38.10   40.90   1
   5  -3 -12    2.60   34.90   1
   5  -3 -12  -66.39   28.30   1
  -5  -3  12   52.59   27.60   1
  -5  -3  12   92.79   36.40   1
   5   3 -11  224.68   43.70   1
   5   3 -11  204.48   47.60   1
  -5   3  11  350.46   46.10   1
  -5   3  11  177.28   42.20   1
  -5   3  11  135.79   32.00   1
   5  -3 -11  251.47   45.60   1
  -5  -3  11   95.39   37.40   1
   5  -3 -11  340.87   41.80   1
  -5  -3  11  188.88   33.00   1
  -5   3  10  -12.60   26.00   1
  -5   3  10   -6.10   21.60   1
  -5   3  10   39.70   32.30   1
   5   3 -10   34.40   32.60   1
   5   3 -10   81.69   40.50   1
   5  -3 -10   23.30   32.50   1
  -5  -3  10   24.00   28.20   1
   5  -3 -10    8.10   30.60   1
  -5   3   9   94.29   28.70   1
  -5   3   9  126.79   34.80   1
  -5   3   9   73.49   23.10   1
   5   3  -9  126.69   33.90   1
   5   3  -9  110.29   41.10   1
  -5  -3   9  101.59   24.50   1
   5  -3  -9  109.49   33.90   1
  -5  -3   9   20.70   26.40   1
  -5   3   8   57.19   21.90   1
   5   3  -8   -1.30   33.90   1
  -5   3   8   48.60   26.10   1
  -5   3   8   39.40   29.10   1
   5   3  -8   10.90   25.30   1
   5  -3  -8   26.60   27.50   1
  -5  -3   8  -31.30   19.40   1
  -5   3   7   89.49   24.80   1
  -5   3   7   33.10   25.10   1
   5   3  -7   72.79   35.70   1
  -5   3   7   46.50   28.20   1
   5   3  -7   28.10   30.90   1
  -5  -3   7   68.89   19.00   1
   5  -3  -7   34.80   25.60   1
   5  -3  -7   11.00   25.10   1
  -5   3   6   28.70   24.60   1
  -5   3   6    7.90   18.00   1
   5   3  -6   25.00   34.10   1
   5   3  -6  -16.90   25.60   1
  -5   3   6  -21.50   24.40   1
  -5  -3   6  -41.50   13.40   1
   5  -3  -6   17.10   24.70   1
   5  -3  -6   -0.10   22.70   1
  -5   3   5   67.99   20.10   1
   5   3  -5   43.20   27.30   1
  -5   3   5   30.80   24.50   1
   5   3  -5   10.10   33.10   1
  -5   3   5   44.90   24.70   1
  -5  -3   5   33.90   15.10   1
   5  -3  -5   -9.20   21.90   1
   5  -3  -5   64.79   27.00   1
   5   3  -4  205.18   38.00   1
  -5   3   4  205.58   29.70   1
  -5   3   4  244.18   38.80   1
   5   3  -4  251.37   42.30   1
  -5   3   4  227.88   38.60   1
   5  -3  -4  252.77   37.90   1
   5  -3  -4  182.18   30.90   1
  -5  -3   4  308.77   26.70   1
   5   3  -3  125.19   35.10   1
  -5   3   3   56.59   22.10   1
  -5   3   3  130.79   20.60   1
   5   3  -3   43.90   28.10   1
  -5   3   3  122.29   33.60   1
   5  -3  -3  111.09   29.80   1
   5  -3  -3   47.40   21.80   1
   5   3  -2  410.46   37.50   1
  -5   3   2  413.86   49.00   1
   5   3  -2  388.36   49.70   1
   5   3  -2  423.16   54.89   1
  -5   3   2  424.76   37.20   1
  -5  -3   2  351.46   41.00   1
   5  -3  -2  434.86   50.59   1
   5   3  -1  176.78   24.70   1
  -5   3   1  148.09   20.80   1
   5   3  -1  153.48   34.60   1
   5   3  -1  124.99   32.50   1
  -5   3   1  146.39   31.30   1
  -5  -3   1  120.59   29.50   1
  -5  -3   1  213.48   34.70   1
   5  -3  -1  194.48   33.90   1
   5   3   0  234.68   37.80   1
   5   3   0  214.18   26.50   1
  -5   3   0  202.68   37.40   1
   5   3   0  188.08   39.20   1
  -5  -3   0  186.08   34.70   1
   5  -3   0  177.88   34.50   1
  -5  -3   0  188.68   31.10   1
  -5   3  -1   92.59   28.90   1
   5   3   1   87.29   29.10   1
   5   3   1  118.09   20.70   1
  -5  -3  -1  109.19   26.90   1
   5  -3   1  131.49   33.30   1
   5   3   2  387.26   49.40   1
   5   3   2  435.86   40.40   1
  -5   3  -2  415.46   48.10   1
   5   3   2  453.75   46.90   1
  -5  -3  -2  323.17   46.30   1
   5  -3   2  401.16   55.49   1
  -5   3  -3  115.39   31.40   1
   5   3   3  155.88   30.80   1
   5   3   3   97.39   21.50   1
   5   3   3  100.39   28.40   1
   5  -3   3  149.19   34.30   1
  -5  -3  -3  128.99   30.80   1
  -5  -3  -3   49.80   30.80   1
  -5   3  -4   28.20   27.20   1
   5   3   4   46.80   27.50   1
   5   3   4   13.40   16.80   1
   5   3   4   57.39   27.00   1
   5  -3   4   15.00   31.90   1
  -5  -3  -4    7.70   27.30   1
  -5  -3  -4   64.49   28.40   1
   5   3   5   -9.70   26.00   1
   5   3   5   25.50   23.90   1
   5   3   5   18.40   16.70   1
  -5   3  -5  -17.80   26.20   1
   5  -3   5   29.80   29.90   1
  -5  -3  -5  -29.70   26.20   1
   5   3   6   41.70   21.60   1
  -5   3  -6   -4.30   27.00   1
   5   3   6   61.99   28.70   1
   5   3   6   44.90   27.70   1
  -5  -3  -6   56.39   26.90   1
  -5  -3  -6   48.70   28.80   1
   5  -3   6   31.10   30.20   1
  -5   3  -7   -1.40   25.70   1
   5   3   7   -6.10   17.70   1
   5   3   7  -25.30   26.30   1
   5   3   7   -7.20   26.60   1
  -5  -3  -7   14.40   27.50   1
  -5  -3  -7  -63.79   22.70   1
   5  -3   7  -12.30   31.30   1
   5   3   8   25.20   28.80   1
   5   3   8   36.50   29.40   1
  -5   3  -8   -5.60   28.00   1
   5   3   8   32.70   22.10   1
  -5  -3  -8   27.30   29.70   1
   5  -3   8   47.30   35.10   1
   5   3   9  137.79   37.20   1
   5   3   9  116.19   27.70   1
  -5   3  -9   68.19   32.40   1
   5  -3   9  104.09   39.40   1
  -5  -3  -9  179.48   41.90   1
   5   3  10    7.80   26.00   1
   5   3  10  110.29   39.80   1
  -5   3 -10   24.80   36.40   1
   5  -3  10   16.30   37.70   1
   5  -3  10   56.49   37.40   1
  -5  -3 -10   16.10   34.60   1
   5   3  11   42.80   39.20   1
  -5   3 -11   51.79   36.80   1
   5   3  11   14.00   23.70   1
  -5  -3 -11   55.69   32.80   1
   5  -3  11  -63.99   30.50   1
  -5  -3 -11   56.99   38.80   1
  -5   3 -12   12.00   34.90   1
  -5   3 -12  -55.99   51.69   1
   5  -3  12   43.20   42.00   1
  -5  -3 -12   10.10   32.00   1
   5   4 -11   44.80   39.40   1
  -5   4  11   43.40   27.10   1
  -5   4  11  171.88   45.20   1
  -5   4  11  111.99   35.40   1
   5  -4 -11   36.60   38.40   1
   5  -4 -11  110.79   41.20   1
  -5   4  10   17.50   29.50   1
   5   4 -10   62.69   38.70   1
  -5   4  10   26.70   24.50   1
  -5   4  10   81.79   40.70   1
   5  -4 -10   41.90   36.90   1
   5  -4 -10   85.39   35.90   1
  -5   4   9   38.80   29.70   1
   5   4  -9   24.10   35.00   1
  -5   4   9   23.30   22.30   1
  -5   4   9   60.99   38.50   1
   5  -4  -9   12.90   42.00   1
   5  -4  -9   35.80   35.10   1
  -5   4   8  135.79   28.60   1
  -5   4   8  126.69   37.00   1
   5   4  -8  115.79   38.10   1
  -5   4   8  105.99   33.00   1
   5  -4  -8  133.49   35.50   1
   5  -4  -8  136.19   43.20   1
   5   4  -7  122.89   35.90   1
  -5   4   7   86.39   36.20   1
  -5   4   7  147.79   29.70   1
  -5   4   7   69.89   31.20   1
   5  -4  -7  117.29   34.40   1
   5  -4  -7  201.88   38.00   1
  -5   4   6   41.00   31.10   1
  -5   4   6   61.09   31.70   1
   5   4  -6  -53.69   28.50   1
  -5   4   6   41.30   22.10   1
   5  -4  -6    6.80   34.90   1
   5  -4  -6   62.39   32.40   1
  -5   4   5    8.60   28.60   1
  -5   4   5   46.40   28.80   1
   5   4  -5    2.60   29.20   1
  -5   4   5   28.60   18.50   1
   5  -4  -5  -33.10   29.70   1
   5  -4  -5   25.70   30.80   1
  -5   4   4   -9.30   17.40   1
  -5   4   4    8.40   29.20   1
   5   4  -4   12.10   29.00   1
  -5   4   4   31.60   27.50   1
   5  -4  -4  -20.10   26.20   1
   5  -4  -4   41.10   34.80   1
  -5   4   3   39.70   31.90   1
  -5   4   3    5.00   23.80   1
   5   4  -3   13.70   30.90   1
   5  -4  -3   -1.40   24.50   1
   5  -4  -3   31.30   30.10   1
   5   4  -2  207.28   31.20   1
  -5   4   2  173.58   37.70   1
   5   4  -2  231.08   43.20   1
  -5   4   2  160.88   25.80   1
   5  -4  -2  269.67   42.00   1
   5   4  -1  157.38   26.20   1
   5   4  -1  115.49   37.30   1
  -5   4   1  126.19   37.90   1
  -5  -4   1   67.79   28.10   1
  -5  -4   1   55.29   37.50   1
   5  -4  -1  166.88   37.00   1
  -5  -4   1  123.49   27.60   1
   5   4   0   88.49   33.60   1
   5   4   0  109.29   23.70   1
  -5   4   0   35.00   29.20   1
  -5  -4   0  101.29   28.30   1
   5  -4   0  115.99   33.00   1
  -5  -4   0   91.39   38.80   1
  -5  -4   0   91.29   29.80   1
   5   4   1   93.09   31.80   1
  -5   4  -1  105.69   33.40   1
   5   4   1   67.59   23.20   1
  -5  -4  -1   57.19   37.70   1
   5  -4   1  147.49   36.90   1
  -5  -4  -1   90.69   28.70   1
  -5  -4  -1   71.79   31.70   1
   5   4   2   59.19   21.90   1
   5   4   2   65.49   30.90   1
  -5   4  -2   38.30   30.80   1
  -5  -4  -2   26.90   29.00   1
   5  -4   2   57.49   34.10   1
  -5  -4  -2   48.20   35.30   1
  -5   4  -3   39.60   31.40   1
   5   4   3   29.90   21.60   1
   5   4   3   41.60   32.10   1
  -5  -4  -3  -28.40   31.00   1
   5  -4   3   68.69   35.30   1
  -5  -4  -3   27.50   29.60   1
  -5   4  -4   97.09   35.50   1
   5   4   4   97.59   35.70   1
   5   4   4  141.59   27.90   1
   5   4   4  161.58   37.10   1
  -5  -4  -4  128.99   39.30   1
   5  -4   4  136.99   38.90   1
  -5  -4  -4  209.08   39.00   1
   5   4   5   19.10   20.50   1
  -5   4  -5   -2.00   30.80   1
   5   4   5   22.50   31.80   1
   5   4   5   39.20   29.60   1
  -5  -4  -5   28.10   32.10   1
  -5  -4  -5  -38.90   34.50   1
   5  -4   5   43.10   34.20   1
   5   4   6   96.39   26.00   1
   5   4   6  160.18   41.70   1
   5   4   6   17.30   31.10   1
  -5   4  -6   64.69   32.20   1
  -5  -4  -6   72.19   37.00   1
   5  -4   6   69.69   38.50   1
  -5  -4  -6   83.79   36.60   1
   5   4   7  177.58   45.30   1
   5   4   7  101.59   29.80   1
  -5   4  -7  108.99   38.90   1
   5   4   7  118.99   35.80   1
  -5  -4  -7  101.89   39.70   1
   5  -4   7  109.69   41.30   1
   5   4   8   27.40   21.30   1
  -5   4  -8   90.69   38.00   1
   5   4   8   83.29   39.10   1
   5   4   8   29.80   30.00   1
   5  -4   8   53.09   42.90   1
  -5  -4  -8   77.39   40.30   1
  -5  -4  -8  -31.80   51.49   1
   5   4   9   73.19   43.10   1
   5   4   9   -6.20   34.10   1
  -5   4  -9  -12.80   39.00   1
   5   4   9   -7.90   21.20   1
   5  -4   9   49.50   39.80   1
  -5  -4  -9   77.99   42.50   1
   5   4  10   37.60   24.70   1
   5   4  10    4.70   32.70   1
  -5   4 -10    0.30   34.60   1
  -5  -4 -10   -9.30   42.60   1
   5  -4  10   39.90   42.00   1
  -5   5   6   83.19   27.90   1
  -5   5   6   27.50   34.40   1
  -5   5   6  125.19   49.99   1
   5   5  -6  -22.20   35.70   1
  -5  -5   6   46.70   44.40   1
   5  -5  -6  -25.80   43.70   1
   5  -5  -6   55.39   40.70   1
  -5   5   5   70.59   44.60   1
   5   5  -5   32.90   35.50   1
  -5   5   5   77.19   36.70   1
  -5  -5   5   22.90   43.70   1
   5  -5  -5  -53.19   42.60   1
   5  -5  -5   81.99   40.90   1
  -5   5   4  153.38   57.69   1
  -5  -5   4   54.89   80.99   1
   5  -5  -4  103.39   43.10   1
  -5  -5   3  127.59   46.50   1
   5  -5  -3   -3.80   36.60   1
   5   5  -2  726.03   85.89   1
  -5  -5   2  565.84   76.49   1
   5  -5  -2  375.86   67.19   1
  -5  -5   1  534.25   77.49   1
   5  -5  -1  526.85   69.79   1
  -5  -5   0  162.48   44.60   1
  -5  -5   0  101.89   42.50   1
  -5  -5   0   87.29   41.10   1
  -5   5  -1   26.00   42.70   1
  -5  -5  -1   45.60   42.90   1
  -5  -5  -1   41.70   41.10   1
  -5  -5  -1   21.90   42.60   1
   5   5   2   18.70   31.20   1
  -5   5  -2   66.39   37.10   1
   5   5   2  -13.40   32.80   1
  -5  -5  -2  -27.00   44.70   1
  -5  -5  -2  -26.50   44.70   1
   5  -5   2   42.10   38.20   1
  -5  -5  -2    5.50   39.70   1
   5   5   3   77.59   30.60   1
  -5   5  -3   79.19   37.00   1
   5   5   3   31.00   31.70   1
  -5  -5  -3    0.80   42.50   1
   5  -5   3  142.99   43.60   1
  -5  -5  -3   75.89   45.30   1
   5   5   4  230.88   37.10   1
  -5   5  -4  153.48   43.50   1
   5   5   4  200.08   44.50   1
  -5  -5  -4  171.88   53.79   1
  -5  -5  -4  158.28   51.99   1
   5  -5   4  168.88   46.70   1
   6   0 -17  -83.79   46.20   1
   6   0 -17    0.90   25.60   1
  -6   0  17   37.80   35.30   1
   6   0 -16   21.70   37.60   1
   6   0 -16   73.59   43.00   1
   6   0 -16   44.80   29.00   1
  -6   0  16   55.39   26.40   1
  -6   0  16  110.99   39.30   1
  -6   0  15   42.90   33.70   1
   6   0 -15   64.89   39.70   1
  -6   0  15   79.79   28.30   1
   6   0 -15   70.09   39.70   1
   6   0 -15   40.00   25.40   1
  -6   0  14   24.50   30.50   1
  -6   0  14   30.90   25.10   1
   6   0 -14   74.09   36.50   1
   6   0 -14    4.40   33.40   1
   6   0 -14   34.70   24.20   1
  -6   0  13  184.48   36.20   1
   6   0 -13  142.29   35.30   1
   6   0 -13  176.38   30.50   1
  -6   0  13  141.79   28.30   1
   6   0 -12  201.78   31.90   1
   6   0 -12  147.39   31.50   1
   6   0 -12  103.89   31.80   1
  -6   0  12  143.39   33.60   1
  -6   0  12  110.49   25.90   1
   6   0 -11  275.37   42.40   1
  -6   0  11  376.86   48.40   1
  -6   0  11  310.07   38.00   1
   6   0 -11  255.97   45.30   1
  -6   0  10  306.07   36.60   1
   6   0 -10  352.86   44.70   1
  -6   0  10  276.67   46.40   1
   6   0 -10  311.97   41.80   1
   6   0 -10  309.77   36.80   1
   6   0  -9 3552.74  276.07   1
   6   0  -9 3951.40  278.67   1
  -6   0   9 3861.91  276.47   1
   6   0  -9 3565.34  276.07   1
  -6   0   9 3945.31  279.87   1
  -6   0   8 3260.77  258.67   1
   6   0  -8 3568.24  258.57   1
   6   0  -8 3550.24  255.57   1
   6   0  -8 3673.33  254.27   1
  -6   0   8 3413.06  255.77   1
   6   0  -7    5.70   19.80   1
  -6   0   7   39.20   23.00   1
   6   0  -7   35.30   19.70   1
  -6   0   7   28.70   15.70   1
   6   0  -7    8.20   15.30   1
  -6   0   6  316.37   44.20   1
   6   0  -6  364.66   41.30   1
   6   0  -6  337.57   37.60   1
   6   0  -6  330.87   31.90   1
  -6   0   6  343.07   34.80   1
  -6   0   5  193.98   27.00   1
  -6   0   5  206.18   30.30   1
   6   0  -5  235.38   23.10   1
   6   0  -5  174.98   30.90   1
   6   0  -5  219.98   34.50   1
   6   0  -4 1644.94  120.09   1
  -6   0   4 1590.14  119.89   1
  -6   0   4 1739.43  123.29   1
   6   0  -4 1621.64  122.49   1
   6   0  -4 1500.35  116.79   1
  -6   0   3 1077.79   85.29   1
   6   0  -3 1091.89   82.29   1
   6   0  -3 1047.90   84.79   1
  -6   0   3 1088.89   82.09   1
   6   0  -2   93.29   20.50   1
   6   0  -2  110.89   18.80   1
  -6   0   2   87.59   20.70   1
   6   0  -1  353.96   36.40   1
  -6   0   1  432.16   29.30   1
   6   0  -1  342.77   34.80   1
  -6   0   1  338.17   39.70   1
   6   0  -1  361.66   39.90   1
   6   0   0 2165.88  147.49   1
   6   0   0 2067.59  146.69   1
  -6   0   0 2050.19  144.79   1
   6   0   0 1869.31  148.99   1
  -6   0   0 1863.21  148.99   1
  -6   0  -1 8677.43  627.44   1
  -6   0  -1 7807.42  624.44   1
   6   0   1 9172.88  625.04   1
   6   0   1 9223.68  626.14   1
  -6   0  -2 5985.20  475.15   1
   6   0   2 6868.81  476.85   1
   6   0   2 6719.83  475.15   1
  -6   0  -2 6923.91  478.65   1
  -6   0  -3  587.14   46.40   1
  -6   0  -3  528.55   53.69   1
   6   0   3  591.94   54.09   1
   6   0   3  540.05   47.90   1
   6   0   3  563.44   47.30   1
   6   0   4 4615.44  364.96   1
   6   0   4 5144.19  367.06   1
  -6   0  -4 5312.47  370.06   1
   6   0   4 5045.50  369.46   1
  -6   0  -4 5272.47  366.06   1
   6   0   5  706.93   62.99   1
   6   0   5  601.94   53.79   1
   6   0   5  716.33   56.39   1
  -6   0  -5  666.33   54.69   1
  -6   0  -5  661.53   62.49   1
  -6   0  -6  732.33   60.19   1
   6   0   6  772.72   61.49   1
   6   0   6  704.83   58.49   1
  -6   0  -6  717.03   66.79   1
   6   0   6  758.52   67.59   1
   6   0   7   94.49   21.10   1
  -6   0  -7   88.89   27.50   1
   6   0   7  113.09   19.60   1
  -6   0  -7   89.89   21.90   1
   6   0   7   63.39   26.20   1
   6   0   8   58.39   28.00   1
  -6   0  -8   68.19   27.30   1
   6   0   8   86.39   19.80   1
   6   0   8   30.10   21.30   1
  -6   0  -8   16.30   18.60   1
   6   0   9   56.39   20.70   1
  -6   0  -9   25.80   20.10   1
   6   0   9   22.80   27.90   1
  -6   0  -9   66.59   28.50   1
   6   0   9   33.10   21.40   1
   6   0  10  169.88   29.60   1
   6   0  10  265.57   33.20   1
  -6   0 -10  206.88   36.80   1
  -6   0 -10  171.78   32.10   1
   6   0  10  185.48   36.90   1
   6   0  11  335.87   42.90   1
  -6   0 -11  369.36   53.29   1
  -6   0 -11  442.26   47.70   1
   6   0  11  374.36   53.59   1
   6   0  11  424.76   45.10   1
  -6   0 -12  410.96   49.20   1
  -6   0 -12  522.65   60.89   1
   6   0  12  380.26   46.10   1
   6   0  12  417.76   57.69   1
   6   0  13    1.80   22.30   1
  -6   0 -13    3.30   25.30   1
   6   0  13   13.90   36.40   1
  -6   0 -13   14.50   35.90   1
   6   0  14  103.29   43.70   1
   6   0  14   19.80   23.50   1
  -6   0 -14   81.59   32.00   1
  -6   0 -14    2.60   37.80   1
   6   0  15  292.47   43.10   1
  -6   0 -15  166.28   36.50   1
  -6   0 -15  293.47   55.29   1
   6   1 -17  137.19   48.50   1
   6   1 -17  140.79   37.40   1
   6   1 -17  198.18   57.49   1
  -6   1  17  100.79   30.10   1
  -6  -1  17  213.28   51.39   1
   6  -1 -17  139.09   35.30   1
  -6  -1  17  141.09   34.40   1
   6   1 -16   41.30   32.20   1
  -6   1  16   15.40   24.30   1
   6   1 -16  -15.20   38.10   1
   6   1 -16   66.29   44.80   1
  -6  -1  16   49.00   26.60   1
   6  -1 -16  109.09   67.49   1
   6  -1 -16   53.99   28.10   1
   6  -1 -16   -1.30   38.50   1
  -6  -1  16   77.79   38.80   1
   6   1 -15   -7.00   27.40   1
   6   1 -15   -8.30   38.40   1
   6   1 -15    8.60   34.60   1
  -6   1  15   -2.70   25.40   1
  -6   1  15   45.80   34.90   1
   6  -1 -15  -12.10   33.60   1
  -6  -1  15   25.80   33.10   1
   6  -1 -15  -15.50   31.40   1
   6  -1 -15  -13.80   22.20   1
  -6  -1  15  -26.90   21.30   1
  -6   1  14   51.09   24.10   1
   6   1 -14   18.10   28.50   1
  -6   1  14  128.19   33.80   1
   6   1 -14  -14.40   34.00   1
   6   1 -14   -6.90   31.70   1
   6  -1 -14  113.29   32.90   1
   6  -1 -14   94.29   24.90   1
  -6  -1  14   56.69   33.10   1
  -6  -1  14   67.39   24.60   1
   6  -1 -14   75.89   33.90   1
   6   1 -13  392.56   57.89   1
   6   1 -13  319.07   48.80   1
   6   1 -13  331.07   53.19   1
  -6   1  13  504.35   55.79   1
  -6   1  13  407.16   44.60   1
  -6  -1  13  341.87   43.70   1
   6  -1 -13  367.96   50.79   1
   6  -1 -13  375.36   47.30   1
   6  -1 -13  386.06   54.09   1
  -6  -1  13  419.46   55.99   1
   6   1 -12   90.19   30.10   1
   6   1 -12   60.59   27.70   1
  -6   1  12   94.69   30.70   1
  -6   1  12   57.99   22.10   1
   6   1 -12   90.49   33.80   1
  -6  -1  12   68.69   30.80   1
   6  -1 -12   52.69   25.70   1
   6  -1 -12   31.40   27.80   1
   6  -1 -12  106.99   29.00   1
  -6  -1  12   40.60   22.40   1
   6   1 -11  420.66   54.39   1
  -6   1  11  377.26   42.50   1
  -6   1  11  414.86   53.59   1
   6   1 -11  449.36   51.29   1
   6   1 -11  405.86   45.90   1
  -6  -1  11  432.46   42.50   1
  -6  -1  11  315.37   52.59   1
   6  -1 -11  301.67   46.20   1
   6  -1 -11  471.95   51.89   1
   6  -1 -11  379.36   42.90   1
   6   1 -10  781.82   69.59   1
  -6   1  10  682.13   62.79   1
   6   1 -10  741.63   67.49   1
   6   1 -10  692.03   63.69   1
  -6   1  10  684.53   69.49   1
   6  -1 -10  632.74   59.79   1
  -6  -1  10  757.82   62.29   1
   6  -1 -10  722.93   68.59   1
   6  -1 -10  885.81   78.99   1
  -6  -1  10  684.13   69.99   1
  -6   1   9  639.84   56.99   1
   6   1  -9  690.83   58.29   1
  -6   1   9  663.83   65.39   1
   6   1  -9  655.13   63.89   1
   6  -1  -9  576.34   55.59   1
   6  -1  -9  695.73   55.49   1
  -6  -1   9  618.04   55.59   1
   6  -1  -9  681.43   63.59   1
  -6  -1   9  618.24   62.49   1
  -6   1   8 1468.35  116.99   1
   6   1  -8 1671.73  112.89   1
   6   1  -8 1366.96  113.49   1
   6   1  -8 1455.95  114.09   1
  -6   1   8 1431.56  112.19   1
  -6  -1   8 1328.97  113.89   1
   6  -1  -8 1551.94  110.99   1
  -6  -1   8 1552.44  110.79   1
   6  -1  -8 1336.17  114.99   1
   6  -1  -8 1380.96  109.49   1
   6   1  -7  559.84   53.49   1
  -6   1   7  566.04   57.49   1
  -6   1   7  598.04   50.49   1
   6   1  -7  577.64   50.79   1
   6   1  -7  585.94   55.49   1
  -6  -1   7  546.35   48.40   1
   6  -1  -7  559.44   55.59   1
   6  -1  -7  470.15   49.00   1
  -6  -1   7  621.64   56.59   1
  -6   1   6 1809.32  138.49   1
   6   1  -6 1796.42  138.09   1
  -6   1   6 1936.31  137.29   1
  -6   1   6 1721.93  141.89   1
   6   1  -6 2005.90  140.99   1
   6   1  -6 1920.01  140.19   1
  -6  -1   6 1839.82  140.99   1
   6  -1  -6 1820.42  141.49   1
  -6  -1   6 1867.11  137.59   1
   6  -1  -6 1819.12  137.59   1
  -6   1   5 2742.93  199.78   1
  -6   1   5 2798.72  198.68   1
  -6   1   5 2525.75  202.08   1
   6   1  -5 2741.33  200.78   1
   6   1  -5 2609.44  199.18   1
   6   1  -5 3169.78  201.88   1
  -6  -1   5 2875.41  201.68   1
  -6  -1   5 2754.42  199.28   1
   6  -1  -5 2662.43  198.98   1
   6  -1  -5 2424.96  201.28   1
   6   1  -4 2544.65  195.58   1
   6   1  -4 2806.42  197.48   1
  -6   1   4 2653.03  195.28   1
   6   1  -4 2918.81  197.78   1
  -6   1   4 2568.24  198.58   1
  -6   1   4 2599.34  195.88   1
  -6  -1   4 2623.94  195.58   1
   6  -1  -4 2609.34  197.88   1
   6  -1  -4 2593.74  195.98   1
  -6  -1   4 2917.51  197.68   1
  -6   1   3  908.81   72.59   1
  -6   1   3  843.02   72.19   1
  -6   1   3  981.80   76.89   1
   6   1  -3  874.91   72.89   1
   6   1  -3  961.50   74.89   1
   6   1  -3 1026.10   76.79   1
   6  -1  -3  923.81   75.09   1
   6  -1  -3  919.41   76.29   1
  -6  -1   3 1054.69   75.09   1
  -6   1   2 3415.56  235.78   1
   6   1  -2 3004.60  236.08   1
   6   1  -2 3281.17  237.38   1
  -6   1   2 3257.37  237.78   1
   6   1  -2 3353.96  237.18   1
  -6   1   2 2826.12  235.58   1
   6   1  -2 3421.86  236.48   1
   6  -1  -2 3545.45  237.58   1
   6  -1  -2 3230.38  237.18   1
  -6  -1   2 3213.08  237.18   1
   6   1  -1 5380.26  390.66   1
  -6   1   1 5072.29  389.56   1
  -6   1   1 5624.54  389.06   1
  -6   1   1 5225.08  390.16   1
   6   1  -1 5056.79  389.26   1
   6   1  -1 5363.16  389.56   1
   6   1  -1 5582.34  389.96   1
   6  -1  -1 5709.73  390.56   1
  -6  -1   1 5761.72  391.16   1
   6  -1  -1 5283.57  390.16   1
   6   1   0 7413.46  523.75   1
  -6   1   0 6659.23  523.85   1
   6   1   0 6987.90  523.65   1
  -6   1   0 7405.96  524.35   1
   6   1   0 7228.98  524.05   1
  -6  -1   0 7620.14  525.85   1
   6  -1   0 7524.85  524.75   1
   6  -1   0 7444.46  524.35   1
   6   1   1 2656.23  173.78   1
  -6   1  -1 2401.36  174.18   1
   6   1   1 2271.17  173.38   1
  -6   1  -1 2154.88  173.88   1
   6   1   1 2355.16  174.28   1
   6  -1   1 2337.27  172.88   1
   6  -1   1 2435.36  175.48   1
  -6  -1  -1 2400.66  177.48   1
   6  -1   1 2348.57  174.28   1
   6   1   2 3910.31  299.27   1
  -6   1  -2 4051.69  301.37   1
  -6   1  -2 3966.10  301.07   1
   6   1   2 4327.07  304.17   1
   6   1   2 4056.29  300.47   1
  -6   1  -2 4363.36  301.27   1
   6   1   2 4189.38  301.07   1
   6  -1   2 4366.26  299.97   1
   6  -1   2 4114.39  301.77   1
  -6  -1  -2 4176.28  303.97   1
   6   1   3   56.29   17.10   1
  -6   1  -3   48.70   20.10   1
  -6   1  -3  119.39   24.60   1
   6   1   3   75.19   15.60   1
   6   1   3   57.69   23.00   1
  -6   1  -3   91.69   20.20   1
   6  -1   3   72.99   23.80   1
   6  -1   3   83.99   17.20   1
  -6  -1  -3   77.29   25.40   1
   6   1   4  584.74   51.39   1
  -6   1  -4  512.75   59.89   1
   6   1   4  528.45   47.20   1
   6   1   4  634.84   58.99   1
  -6   1  -4  617.14   55.09   1
  -6  -1  -4  614.34   59.69   1
  -6  -1  -4  545.05   69.39   1
   6  -1   4  635.94   48.80   1
   6  -1   4  617.24   54.99   1
   6   1   5  332.47   33.90   1
  -6   1  -5  399.76   44.90   1
  -6   1  -5  411.96   43.10   1
   6   1   5  399.36   48.60   1
   6   1   5  422.56   39.80   1
   6  -1   5  455.35   38.60   1
   6  -1   5  406.76   44.00   1
  -6  -1  -5  362.66   41.60   1
   6  -1   5  420.16   45.60   1
  -6  -1  -5  476.15   50.39   1
  -6   1  -6  706.73   63.69   1
   6   1   6  706.03   66.49   1
   6   1   6  723.43   60.29   1
   6  -1   6  692.63   57.69   1
   6  -1   6  627.64   61.89   1
   6  -1   6  737.03   63.59   1
  -6  -1  -6  736.53   67.49   1
  -6   1  -7  207.18   37.40   1
   6   1   7  255.17   37.70   1
  -6   1  -7  224.98   32.90   1
   6   1   7  212.08   32.00   1
  -6  -1  -7  289.67   40.70   1
   6  -1   7  250.77   30.00   1
   6  -1   7  235.88   40.70   1
   6  -1   7  221.58   36.90   1
  -6  -1  -7  217.98   35.10   1
  -6   1  -8  122.29   30.00   1
   6   1   8  114.09   25.20   1
  -6   1  -8  146.29   35.60   1
   6   1   8  117.29   30.60   1
  -6  -1  -8  118.89   30.80   1
  -6  -1  -8  192.58   32.00   1
   6  -1   8  129.69   31.10   1
   6  -1   8  110.09   22.80   1
   6   1   9   86.59   24.30   1
   6   1   9  134.09   33.40   1
  -6   1  -9   78.39   25.40   1
  -6   1  -9   83.99   27.60   1
   6  -1   9  108.29   28.50   1
   6  -1   9  120.79   31.00   1
   6  -1   9   70.09   20.80   1
  -6  -1  -9  159.08   31.10   1
  -6  -1  -9  131.39   31.90   1
  -6   1 -10   76.39   26.10   1
   6   1  10   66.79   23.10   1
   6   1  10   48.60   29.30   1
   6  -1  10   99.99   29.20   1
  -6  -1 -10   97.39   33.20   1
   6  -1  10   74.79   30.20   1
   6  -1  10   41.20   20.20   1
  -6  -1 -10   84.89   28.90   1
   6   1  11  101.29   34.50   1
   6   1  11  117.89   28.30   1
  -6   1 -11   69.59   28.70   1
  -6   1 -11  183.78   36.50   1
   6  -1  11   82.09   26.10   1
   6  -1  11  135.49   41.00   1
  -6  -1 -11   75.19   30.50   1
   6  -1  11  155.78   32.20   1
  -6  -1 -11  140.99   36.90   1
   6   1  12  597.34   56.09   1
  -6   1 -12  576.44   67.89   1
  -6   1 -12  509.85   59.59   1
   6   1  12  603.14   66.99   1
   6  -1  12  539.75   54.59   1
  -6  -1 -12  513.05   59.39   1
  -6  -1 -12  592.84   68.89   1
   6  -1  12  529.85   62.09   1
   6  -1  12  587.54   66.39   1
   6   1  13   74.39   46.20   1
  -6   1 -13   69.99   37.50   1
  -6   1 -13   54.79   28.00   1
   6   1  13   41.00   25.20   1
   6  -1  13    9.80   37.30   1
   6  -1  13   64.69   35.20   1
  -6  -1 -13   55.59   26.00   1
   6  -1  13   36.30   22.90   1
  -6  -1 -13  110.19   37.80   1
  -6   1 -14   93.79   45.50   1
  -6   1 -14  101.39   44.90   1
   6   1  14   88.99   29.10   1
  -6  -1 -14  134.29   43.50   1
  -6  -1 -14   57.79   42.20   1
   6  -1  14   64.79   28.60   1
   6  -1  14  193.28   56.29   1
   6   1  15  417.96   51.79   1
  -6   1 -15  388.76   53.69   1
  -6   1 -15  414.26   67.29   1
  -6  -1 -15  396.66   52.59   1
   6  -1  15  507.95   77.69   1
   6  -1  15  336.97   48.80   1
   6   2 -16   41.40   38.60   1
   6   2 -16   48.30   45.70   1
   6   2 -16   33.80   52.19   1
  -6   2  16   42.50   26.90   1
   6  -2 -16   33.80   34.80   1
  -6  -2  16    3.90   26.70   1
  -6  -2  16  112.89   51.29   1
   6   2 -15  292.77   54.99   1
  -6   2  15  168.98   35.20   1
   6   2 -15   95.99   46.70   1
   6   2 -15  152.48   40.90   1
   6  -2 -15  187.18   39.00   1
  -6  -2  15  176.78   34.00   1
  -6  -2  15  130.59   44.00   1
   6  -2 -15  158.18   49.80   1
   6   2 -14  184.28   42.70   1
   6   2 -14  195.28   48.00   1
  -6   2  14  141.99   39.40   1
   6   2 -14   97.49   38.90   1
  -6   2  14  108.99   29.30   1
  -6  -2  14   97.99   37.40   1
   6  -2 -14  184.88   38.60   1
   6  -2 -14   75.59   39.50   1
   6  -2 -14   85.39   32.30   1
  -6  -2  14  114.39   30.00   1
   6   2 -13  178.28   43.80   1
   6   2 -13  330.27   55.39   1
   6   2 -13  290.27   48.90   1
  -6   2  13  355.56   55.09   1
  -6   2  13  313.87   42.50   1
  -6  -2  13  307.67   41.20   1
   6  -2 -13  334.37   54.09   1
   6  -2 -13  377.16   44.50   1
   6  -2 -13  334.97   50.09   1
   6   2 -12   62.69   49.10   1
  -6   2  12   79.19   31.50   1
   6   2 -12   12.10   30.80   1
   6   2 -12   23.40   34.10   1
  -6   2  12   27.10   21.90   1
   6  -2 -12   87.09   32.90   1
  -6  -2  12   57.49   32.50   1
   6  -2 -12   29.40   25.70   1
   6  -2 -12   77.09   28.00   1
  -6  -2  12   18.30   23.10   1
   6   2 -11   98.89   31.20   1
   6   2 -11   57.79   32.90   1
  -6   2  11   70.69   30.00   1
   6   2 -11   54.59   31.00   1
  -6   2  11   41.30   22.30   1
   6  -2 -11   53.49   23.90   1
   6  -2 -11   35.20   29.10   1
   6  -2 -11   42.40   27.70   1
  -6  -2  11   62.19   30.40   1
  -6  -2  11   41.40   23.10   1
   6   2 -10  102.79   32.40   1
  -6   2  10  140.29   33.70   1
  -6   2  10  115.09   25.30   1
   6   2 -10  102.69   28.80   1
   6   2 -10  123.39   36.90   1
  -6  -2  10   77.79   29.90   1
   6  -2 -10  118.99   30.20   1
   6  -2 -10  168.18   26.80   1
  -6  -2  10  154.68   27.20   1
   6   2  -9  275.07   39.10   1
   6   2  -9  216.98   37.90   1
  -6   2   9  225.68   34.70   1
  -6   2   9  244.58   40.40   1
   6   2  -9  239.28   39.00   1
  -6   2   9  197.98   31.80   1
   6  -2  -9  218.78   36.30   1
   6  -2  -9  221.78   30.50   1
  -6  -2   9  136.79   32.10   1
  -6  -2   9  200.48   31.10   1
  -6   2   8  984.10   86.39   1
  -6   2   8 1088.19   80.29   1
   6   2  -8  924.21   80.59   1
   6   2  -8 1022.00   85.59   1
   6  -2  -8  988.60   84.19   1
  -6  -2   8  905.61   81.49   1
   6  -2  -8  951.70   78.59   1
   6   2  -7 1550.64  125.19   1
   6   2  -7 1525.55  129.19   1
  -6   2   7 1728.03  125.29   1
  -6   2   7 1693.33  125.39   1
   6   2  -7 1713.63  126.59   1
  -6   2   7 1600.54  129.69   1
   6  -2  -7 1603.04  124.39   1
  -6  -2   7 1556.14  126.19   1
  -6  -2   7 1722.13  122.69   1
   6  -2  -7 1664.83  127.99   1
   6   2  -6 2859.01  210.18   1
   6   2  -6 2700.83  212.08   1
  -6   2   6 2940.31  208.88   1
   6   2  -6 2941.11  208.78   1
  -6   2   6 2833.62  209.18   1
  -6   2   6 2797.02  212.18   1
  -6  -2   6 2961.80  206.88   1
   6  -2  -6 2784.82  208.78   1
  -6  -2   6 2656.03  209.08   1
   6  -2  -6 2821.32  211.08   1
   6   2  -5 7831.52  573.74   1
  -6   2   5 8303.77  574.64   1
   6   2  -5 8047.89  575.94   1
  -6   2   5 8200.28  575.14   1
  -6   2   5 7468.75  576.24   1
   6  -2  -5 8126.09  574.64   1
   6  -2  -5 7422.76  575.34   1
  -6  -2   5 8325.07  573.04   1
  -6   2   4 1543.15  122.29   1
   6   2  -4 1638.94  124.39   1
  -6   2   4 1679.43  119.29   1
   6   2  -4 1693.23  119.99   1
   6  -2  -4 1695.13  121.49   1
  -6  -2   4 1377.16  119.59   1
   6  -2  -4 1502.55  120.79   1
  -6  -2   4 1549.05  117.39   1
  -6   2   3  514.45   45.00   1
   6   2  -3  452.55   53.69   1
   6   2  -3  436.06   48.20   1
   6   2  -3  553.84   47.70   1
  -6   2   3  561.84   51.59   1
  -6   2   3  532.45   48.40   1
   6  -2  -3  481.75   49.99   1
   6  -2  -3  513.85   48.60   1
  -6  -2   3  483.55   47.80   1
   6   2  -2  664.63   60.19   1
  -6   2   2  661.13   59.29   1
  -6   2   2  637.74   59.19   1
   6   2  -2  708.33   63.29   1
  -6   2   2  674.83   54.19   1
   6   2  -2  657.43   54.69   1
  -6  -2   2  671.73   57.49   1
   6  -2  -2  666.33   57.69   1
   6  -2  -2  721.13   61.99   1
   6   2  -1 1153.78   88.59   1
  -6   2   1 1098.99   90.59   1
   6   2  -1 1173.28   92.79   1
  -6   2   1 1155.18   92.99   1
  -6   2   1 1109.09   87.69   1
  -6  -2   1 1184.88   91.79   1
   6  -2  -1 1197.08   90.29   1
  -6  -2   1 1323.97   93.09   1
   6  -2  -1 1108.99   94.19   1
   6   2   0 1189.38   91.39   1
  -6   2   0 1163.18   84.59   1
   6   2   0 1135.79   86.59   1
  -6  -2   0 1104.29   89.79   1
   6  -2   0 1118.09   92.29   1
  -6  -2   0 1057.29   90.59   1
   6   2   1  127.79   21.60   1
   6   2   1  115.79   25.50   1
   6   2   1  174.78   27.00   1
  -6   2  -1  167.28   28.80   1
  -6   2  -1  121.89   18.00   1
  -6  -2  -1   44.30   26.30   1
   6  -2   1  192.98   31.10   1
  -6   2  -2  133.59   28.40   1
   6   2   2  121.79   26.20   1
   6   2   2  153.98   25.80   1
   6   2   2  109.79   27.10   1
   6   2   2  103.69   20.20   1
  -6  -2  -2   96.99   28.50   1
   6  -2   2  142.19   29.60   1
   6   2   3  607.54   54.69   1
   6   2   3  598.74   52.39   1
  -6   2  -3  643.44   57.29   1
   6   2   3  589.14   59.49   1
   6   2   3  604.34   56.19   1
   6  -2   3  631.84   49.50   1
  -6  -2  -3  594.14   60.39   1
   6  -2   3  568.04   59.49   1
   6   2   4 1470.95  113.19   1
  -6   2  -4 1343.67  113.19   1
   6   2   4 1453.25  107.49   1
   6   2   4 1314.27  107.29   1
   6   2   4 1397.86  110.49   1
   6  -2   4 1134.79  116.09   1
  -6  -2  -4 1518.95  113.39   1
   6  -2   4 1430.46  103.99   1
   6   2   5  135.79   31.40   1
   6   2   5  108.19   24.00   1
  -6   2  -5  150.18   31.80   1
   6   2   5  113.09   29.90   1
   6  -2   5  166.68   33.60   1
  -6  -2  -5   99.49   28.60   1
   6  -2   5  127.69   20.90   1
  -6   2  -6  167.78   33.90   1
   6   2   6  109.19   27.80   1
   6   2   6  201.28   34.80   1
   6   2   6  128.39   24.30   1
  -6  -2  -6   99.59   50.99   1
   6  -2   6  123.39   22.20   1
  -6  -2  -6  128.99   22.50   1
   6  -2   6  141.19   34.50   1
  -6   2  -7  149.59   31.10   1
  -6   2  -7  167.88   27.40   1
   6   2   7  204.18   35.50   1
   6   2   7  129.89   27.80   1
  -6  -2  -7  127.39   33.10   1
   6  -2   7  161.78   25.40   1
   6  -2   7  143.09   34.40   1
  -6   2  -8  712.13   63.19   1
   6   2   8  689.93   68.39   1
   6   2   8  623.94   60.19   1
  -6   2  -8  592.44   63.99   1
   6  -2   8  797.42   59.69   1
   6  -2   8  569.64   67.29   1
  -6  -2  -8  677.63   68.79   1
  -6  -2  -8  635.14   65.49   1
   6   2   9  832.02   76.99   1
  -6   2  -9  779.52   72.89   1
  -6   2  -9  691.73   72.49   1
   6   2   9  879.01   69.89   1
  -6  -2  -9  676.43   71.89   1
   6  -2   9  847.32   75.99   1
  -6  -2  -9  793.92   78.09   1
   6  -2   9  735.53   77.09   1
   6  -2   9  821.62   67.09   1
  -6   2 -10 1042.60   91.39   1
  -6   2 -10 1067.29   93.29   1
   6   2  10 1089.49   96.29   1
   6   2  10  970.80   88.39   1
   6  -2  10 1092.69   96.19   1
   6  -2  10 1159.98   94.99   1
  -6  -2 -10 1022.60   90.09   1
  -6  -2 -10 1058.49   96.69   1
  -6   2 -11  972.60   83.69   1
  -6   2 -11  926.51   86.79   1
   6   2  11  925.51   80.89   1
   6   2  11  784.12   94.39   1
  -6  -2 -11  899.61   81.89   1
   6  -2  11  822.02   77.09   1
  -6  -2 -11 1115.59   91.69   1
   6  -2  11  857.91   86.59   1
   6  -2  11  949.40   87.49   1
  -6   2 -12  927.51   91.79   1
   6   2  12  950.40   83.19   1
   6   2  12  796.92  102.59   1
  -6   2 -12  857.01   84.09   1
   6  -2  12  910.21   80.19   1
   6  -2  12  925.01   91.59   1
  -6  -2 -12 1053.59   94.19   1
  -6  -2 -12  973.80   83.99   1
   6  -2  12 1065.89  100.29   1
  -6   2 -13  175.08   52.79   1
   6   2  13  149.29   48.30   1
  -6   2 -13  137.99   53.59   1
  -6  -2 -13  179.58   55.09   1
   6  -2  13  125.09   42.00   1
  -6  -2 -13  202.88   58.79   1
   6  -2  13  113.09   46.40   1
   6  -2  13   96.69   30.20   1
  -6   2 -14    8.80   32.00   1
   6   2  14   30.10   26.40   1
  -6   2 -14  -81.89   44.60   1
   6  -2  14  108.29   51.79   1
   6  -2  14   -4.60   27.30   1
  -6  -2 -14   19.90   34.30   1
   6  -2  14   35.80   40.70   1
  -6   3  14  274.57   46.80   1
   6   3 -14  193.48   53.89   1
   6   3 -14  174.18   48.30   1
   6   3 -14  174.08   48.40   1
  -6  -3  14  209.18   53.59   1
  -6  -3  14  313.27   45.10   1
   6  -3 -14  161.88   38.20   1
  -6   3  13  184.18   46.40   1
  -6   3  13  114.79   29.50   1
   6   3 -13  226.78   48.20   1
   6   3 -13  156.38   43.70   1
   6   3 -13  190.48   51.49   1
   6  -3 -13  113.59   37.00   1
  -6  -3  13   83.39   40.20   1
  -6  -3  13  296.17   40.70   1
   6  -3 -13  160.88   43.60   1
   6   3 -12  215.18   50.79   1
   6   3 -12  236.38   44.20   1
  -6   3  12  308.77   50.99   1
   6   3 -12  182.98   42.90   1
  -6   3  12  264.37   43.20   1
  -6  -3  12  293.17   44.50   1
   6  -3 -12  258.57   41.90   1
   6  -3 -12  397.06   52.69   1
  -6  -3  12  152.88   41.80   1
  -6   3  11  302.77   47.00   1
   6   3 -11  260.47   46.00   1
   6   3 -11  345.07   55.09   1
  -6   3  11  307.97   53.89   1
  -6   3  11  281.07   42.10   1
   6  -3 -11  346.47   49.80   1
  -6  -3  11  362.26   41.50   1
   6  -3 -11  275.67   44.90   1
   6   3 -10   63.19   37.90   1
  -6   3  10   41.30   31.80   1
   6   3 -10  105.99   35.60   1
  -6   3  10  114.49   37.10   1
  -6   3  10   93.29   28.40   1
   6  -3 -10  130.69   31.00   1
   6  -3 -10   59.19   32.30   1
  -6  -3  10   53.89   31.50   1
  -6  -3  10   74.49   26.10   1
  -6   3   9  520.05   60.59   1
   6   3  -9  410.26   56.09   1
  -6   3   9  502.65   52.39   1
  -6   3   9  518.95   50.69   1
   6   3  -9  500.95   67.09   1
  -6  -3   9  464.25   50.89   1
   6  -3  -9  429.16   56.79   1
   6  -3  -9  489.75   52.59   1
  -6   3   8  180.78   30.50   1
   6   3  -8  137.79   39.70   1
   6   3  -8  124.09   34.80   1
  -6   3   8  136.59   31.00   1
  -6   3   8  180.88   36.50   1
  -6  -3   8  138.09   26.10   1
   6  -3  -8  142.69   32.60   1
   6  -3  -8  105.39   31.30   1
   6   3  -7  135.89   37.10   1
  -6   3   7  103.19   29.90   1
   6   3  -7  128.89   32.80   1
  -6   3   7  139.59   26.70   1
  -6   3   7  139.69   32.40   1
  -6  -3   7  142.69   23.00   1
   6  -3  -7  197.38   33.90   1
   6  -3  -7  117.79   30.90   1
  -6   3   6   46.60   27.80   1
   6   3  -6   43.60   34.00   1
  -6   3   6   69.79   21.20   1
  -6   3   6   57.69   28.30   1
   6   3  -6   59.99   28.10   1
   6  -3  -6   78.99   27.70   1
   6  -3  -6   47.90   25.20   1
  -6  -3   6   80.29   18.50   1
   6   3  -5  279.47   42.60   1
   6   3  -5  347.67   47.30   1
  -6   3   5  316.37   44.60   1
  -6   3   5  305.97   41.50   1
  -6   3   5  278.17   34.00   1
  -6  -3   5  282.17   31.80   1
   6  -3  -5  262.97   38.30   1
   6  -3  -5  290.97   41.80   1
   6   3  -4    0.80   28.60   1
   6   3  -4   -8.50   25.50   1
  -6   3   4   54.99   26.10   1
  -6   3   4   14.60   16.70   1
  -6   3   4   37.70   24.30   1
   6  -3  -4   29.80   25.50   1
   6  -3  -4   30.00   21.70   1
  -6   3   3  167.98   29.40   1
  -6   3   3  199.28   26.00   1
   6   3  -3  180.88   36.90   1
  -6   3   3  193.18   34.90   1
   6   3  -3  193.98   34.10   1
   6  -3  -3  141.39   26.00   1
  -6  -3   3  166.88   27.20   1
   6  -3  -3  207.28   37.20   1
  -6   3   2  790.32   63.29   1
   6   3  -2  735.43   75.99   1
   6   3  -2  909.81   63.69   1
  -6   3   2  784.52   71.49   1
   6   3  -2  810.52   73.39   1
  -6  -3   2  679.33   66.09   1
  -6  -3   2  785.72   69.09   1
   6  -3  -2  789.62   73.59   1
  -6   3   1  947.71   73.19   1
   6   3  -1  842.42   84.99   1
  -6   3   1  912.31   81.59   1
   6   3  -1  909.21   81.69   1
   6   3  -1 1001.40   74.59   1
   6  -3  -1  994.70   82.89   1
  -6  -3   1  978.30   79.79   1
  -6  -3   1  903.81   77.99   1
   6   3   0  182.98   36.80   1
  -6   3   0  160.48   33.80   1
   6   3   0  199.08   34.30   1
   6   3   0  128.49   28.20   1
  -6  -3   0  168.58   33.50   1
   6  -3   0  347.67   44.80   1
  -6  -3   0  197.38   33.00   1
   6   3   1  219.08   32.60   1
   6   3   1  256.97   40.80   1
   6   3   1  338.07   55.69   1
  -6   3  -1  295.07   40.30   1
   6  -3   1  272.27   46.20   1
  -6  -3  -1  255.97   37.20   1
  -6   3  -2  259.47   40.40   1
   6   3   2  173.98   35.40   1
   6   3   2  172.98   26.70   1
   6  -3   2  321.47   46.00   1
  -6   3  -3  495.15   54.99   1
   6   3   3  489.95   47.90   1
   6   3   3  499.25   54.09   1
   6   3   3  570.74   56.99   1
  -6  -3  -3  491.75   56.19   1
   6  -3   3  520.35   60.29   1
  -6   3  -4  111.99   32.40   1
   6   3   4   91.69   21.10   1
   6   3   4  105.49   28.90   1
   6   3   4   56.99   27.40   1
  -6  -3  -4   73.89   30.20   1
  -6  -3  -4  114.39   30.50   1
   6  -3   4   47.40   32.00   1
   6   3   5   33.30   18.20   1
  -6   3  -5   23.70   27.00   1
   6   3   5   38.00   25.50   1
   6   3   5   54.29   28.20   1
  -6  -3  -5   45.80   30.50   1
  -6  -3  -5   88.79   30.40   1
   6  -3   5   12.10   29.90   1
   6   3   6   35.60   20.60   1
   6   3   6   68.79   31.20   1
   6   3   6   64.69   30.10   1
  -6   3  -6   58.99   28.90   1
  -6  -3  -6  108.89   31.50   1
  -6  -3  -6   89.69   28.00   1
   6  -3   6   56.19   32.80   1
   6   3   7    6.80   18.20   1
   6   3   7   10.40   29.70   1
   6   3   7  -24.60   28.30   1
  -6   3  -7   -4.30   30.20   1
  -6  -3  -7  -14.80   28.30   1
  -6  -3  -7    0.30   26.10   1
   6  -3   7   43.10   33.60   1
   6   3   8   81.59   31.30   1
   6   3   8   35.90   33.00   1
   6   3   8   37.60   21.80   1
  -6   3  -8   31.50   32.40   1
  -6  -3  -8   57.99   31.50   1
   6  -3   8   82.29   34.80   1
   6   3   9   28.40   23.40   1
   6   3   9   31.50   33.70   1
  -6   3  -9   36.70   33.90   1
   6  -3   9   38.70   36.00   1
  -6  -3  -9   71.69   35.20   1
   6   3  10    2.30   21.30   1
   6   3  10   29.10   38.70   1
  -6   3 -10    3.10   33.60   1
  -6  -3 -10   22.20   34.80   1
  -6  -3 -10   -8.10   27.50   1
   6  -3  10  -30.30   33.50   1
   6   3  11  144.89   32.80   1
  -6   3 -11  104.19   36.70   1
   6   3  11  109.79   49.70   1
  -6  -3 -11  109.79   41.80   1
   6  -3  11  172.78   43.80   1
  -6  -3 -11   95.29   40.30   1
  -6   3 -12   32.70   45.30   1
  -6   3 -12   12.10   32.90   1
   6   3  12   49.60   31.60   1
  -6  -3 -12   51.29   36.50   1
   6  -3  12   40.30   41.00   1
  -6   4  11  158.48   46.60   1
   6   4 -11  119.39   42.00   1
  -6   4  11   80.49   28.30   1
  -6   4  11   74.59   37.60   1
   6  -4 -11  220.98   49.10   1
   6  -4 -11  116.69   38.70   1
  -6   4  10  563.14   55.59   1
   6   4 -10  484.65   64.79   1
  -6   4  10  449.16   73.39   1
  -6   4  10  461.05   57.29   1
   6  -4 -10  546.15   68.69   1
   6  -4 -10  451.55   60.89   1
   6   4  -9  274.77   55.19   1
  -6   4   9  284.17   44.80   1
  -6   4   9  234.18   38.60   1
   6   4  -9  342.67   51.09   1
  -6   4   9  290.27   53.09   1
   6  -4  -9  240.78   47.30   1
   6  -4  -9  303.17   45.80   1
  -6   4   8   36.60   34.00   1
   6   4  -8   12.50   31.60   1
  -6   4   8   21.40   23.20   1
  -6   4   8    5.70   26.90   1
   6   4  -8   48.60   39.10   1
   6  -4  -8  -30.40   29.10   1
   6  -4  -8  -30.70   33.50   1
   6   4  -7  104.39   40.40   1
  -6   4   7  163.88   36.70   1
   6   4  -7  137.09   37.40   1
  -6   4   7  165.68   30.60   1
  -6   4   7  103.99   38.20   1
   6  -4  -7  169.28   39.70   1
   6  -4  -7  224.78   39.10   1
  -6   4   6  185.68   37.10   1
   6   4  -6  164.08   42.20   1
  -6   4   6   87.09   34.00   1
  -6   4   6  154.88   29.50   1
   6   4  -6  201.88   39.30   1
   6  -4  -6   21.10   42.50   1
   6  -4  -6  254.87   40.30   1
  -6   4   5  191.28   37.70   1
  -6   4   5  245.88   32.50   1
  -6   4   5   99.99   33.30   1
   6   4  -5  166.78   43.50   1
   6   4  -5  176.88   39.00   1
   6  -4  -5  142.29   34.70   1
   6  -4  -5  238.88   40.80   1
  -6   4   4   18.30   28.60   1
   6   4  -4   34.20   31.40   1
  -6   4   4   40.40   26.70   1
  -6   4   4   48.80   19.90   1
   6  -4  -4    6.30   30.30   1
   6  -4  -4   -0.70   26.00   1
  -6   4   3   53.29   27.40   1
  -6   4   3  114.99   36.90   1
   6   4  -3  163.28   39.00   1
  -6   4   3  154.18   28.80   1
   6  -4  -3  107.89   36.20   1
  -6   4   2  175.58   26.20   1
   6   4  -2  157.48   40.50   1
   6   4  -2  223.88   33.40   1
  -6   4   2  119.39   35.60   1
  -6  -4   2  168.48   32.20   1
   6  -4  -2  164.08   38.40   1
   6   4  -1  282.87   37.40   1
  -6   4   1  294.57   47.50   1
   6   4  -1  215.58   43.70   1
  -6  -4   1  310.17   43.50   1
   6  -4  -1  187.48   40.00   1
  -6  -4   1  267.57   44.70   1
  -6   4   0  169.28   36.00   1
   6   4   0  226.88   34.50   1
   6   4   0  201.38   37.20   1
   6  -4   0  232.88   39.80   1
  -6  -4   0  199.78   38.20   1
  -6  -4   0  126.19   32.60   1
   6   4   1  332.57   48.80   1
  -6   4  -1  256.67   43.10   1
   6   4   1  228.08   36.50   1
  -6  -4  -1  244.58   49.00   1
  -6  -4  -1  250.67   42.40   1
   6  -4   1  267.77   43.70   1
  -6  -4  -1  204.38   39.80   1
   6   4   2  154.58   30.00   1
   6   4   2  195.68   39.00   1
  -6   4  -2  155.18   37.00   1
   6  -4   2  199.58   38.50   1
  -6  -4  -2  169.68   38.50   1
  -6  -4  -2  121.99   41.70   1
   6   4   3  172.98   36.80   1
   6   4   3  141.09   26.80   1
  -6   4  -3  103.69   37.80   1
   6  -4   3  206.18   41.50   1
  -6  -4  -3  104.49   36.80   1
  -6  -4  -3  178.78   38.40   1
   6   4   4  264.57   45.00   1
  -6   4  -4  284.27   46.50   1
   6   4   4  296.17   48.90   1
   6   4   4  328.77   39.20   1
  -6  -4  -4  245.08   47.40   1
  -6  -4  -4  327.37   48.60   1
   6  -4   4  317.77   50.69   1
  -6   4  -5   93.29   34.80   1
   6   4   5  159.18   35.70   1
   6   4   5  180.38   31.90   1
   6   4   5  161.98   40.90   1
   6  -4   5   96.19   38.70   1
  -6  -4  -5  150.58   40.20   1
  -6  -4  -5  202.58   41.30   1
  -6   4  -6  -16.10   32.90   1
   6   4   6    1.50   28.30   1
   6   4   6   16.40   33.30   1
   6   4   6  -12.70   18.90   1
  -6  -4  -6  -42.70   34.90   1
   6  -4   6  -38.10   33.70   1
  -6  -4  -6  -10.70   34.90   1
   6   4   7  376.96   59.29   1
  -6   4  -7  212.38   44.00   1
   6   4   7  290.47   49.20   1
   6   4   7  373.86   43.00   1
   6  -4   7  364.76   54.89   1
  -6  -4  -7  463.35   62.19   1
  -6  -4  -7  253.97   52.29   1
   6   4   8   33.80   40.40   1
   6   4   8   29.70   24.70   1
   6  -4   8   50.79   41.40   1
  -6  -4  -8  -17.90   37.30   1
  -6   4  -9  136.19   39.90   1
   6   4   9  231.88   39.60   1
   6   4   9  278.57   53.69   1
   6   4   9  147.39   38.30   1
  -6  -4  -9  195.78   48.30   1
  -6   5   6   68.79   29.30   1
  -6   5   6  122.79   47.80   1
  -6  -5   6  -62.59   42.20   1
   6  -5  -6   26.50   38.90   1
   6  -5  -6    0.40   44.60   1
  -6   5   5  142.89   53.09   1
  -6   5   5   -0.90   34.10   1
   6   5  -5    6.10   34.50   1
  -6  -5   5   -1.10   45.40   1
   6  -5  -5   -8.10   41.90   1
   6  -5  -5  -16.00   34.70   1
  -6   5   4  163.78   48.10   1
  -6   5   4  101.59   51.49   1
   6   5  -4    9.00   59.09   1
   6  -5  -4  189.28   44.80   1
  -6  -5   4  138.29   53.89   1
  -6  -5   3  292.97   58.99   1
   6  -5  -3  301.97   54.69   1
   6  -5  -2  388.16   64.89   1
  -6  -5   1 1425.96  133.69   1
   6  -5  -1 1572.34  134.19   1
  -6  -5   1 1845.82  143.09   1
  -6   5   0  597.24  108.89   1
  -6  -5   0 1047.20   91.79   1
  -6  -5   0  782.52   91.69   1
   6   5   1  336.87   52.09   1
  -6   5  -1  434.06   55.09   1
  -6  -5  -1  183.88   53.49   1
  -6  -5  -1  275.97   55.49   1
   6   5   2   35.50   34.00   1
  -6   5  -2   15.40   35.40   1
   6   5   2   29.90   32.00   1
  -6  -5  -2   -5.10   40.90   1
   6  -5   2   55.79   37.30   1
  -6  -5  -2   27.50   45.20   1
  -6  -5  -2  -27.10   45.90   1
   6   5   3   58.29   35.40   1
  -6   5  -3   75.39   39.30   1
   6   5   3   68.39   32.40   1
  -6  -5  -3  109.89   49.00   1
  -6  -5  -3   93.29   47.00   1
  -6  -5  -3   70.09   46.90   1
   6  -5   3   96.99   40.30   1
   6   5   4  291.47   45.70   1
   6  -5   4  224.88   49.30   1
  -6  -5  -4  300.67   58.89   1
  -6  -5  -4  406.16   63.49   1
   7   0 -17   44.00   28.30   1
   7   0 -17   68.89   49.10   1
   7   0 -16   30.60   41.90   1
   7   0 -16   -3.10   40.40   1
   7   0 -16   25.20   26.80   1
  -7   0  16   49.20   24.90   1
  -7   0  16   32.80   34.40   1
   7   0 -15   14.20   40.10   1
   7   0 -15  -35.70   22.40   1
   7   0 -15  -23.90   35.30   1
  -7   0  15   62.99   33.50   1
  -7   0  15  -33.20   22.90   1
  -7   0  14    8.00   22.40   1
  -7   0  14  -13.70   28.80   1
   7   0 -14  -18.60   21.20   1
   7   0 -14   41.70   31.10   1
   7   0 -14   21.20   34.00   1
   7   0 -13   -8.60   28.10   1
   7   0 -13   48.40   23.90   1
  -7   0  13   19.40   22.40   1
   7   0 -13   -2.70   26.60   1
  -7   0  13   31.40   29.10   1
   7   0 -12   -0.20   28.80   1
   7   0 -12   -9.40   30.50   1
   7   0 -12    3.10   20.10   1
  -7   0  12   -4.90   28.60   1
  -7   0  12   -7.60   20.30   1
   7   0 -11   11.80   24.60   1
   7   0 -11   -0.30   18.60   1
  -7   0  11  -31.80   25.10   1
  -7   0  11    2.10   18.70   1
   7   0 -11  -22.90   24.70   1
  -7   0  10    2.60   26.30   1
   7   0 -10   13.10   18.00   1
  -7   0  10   37.50   20.50   1
   7   0 -10   -0.10   24.10   1
   7   0 -10   -4.60   24.20   1
   7   0  -9   39.20   17.50   1
   7   0  -9   14.60   21.00   1
  -7   0   9    3.50   17.40   1
   7   0  -9   -6.90   21.60   1
  -7   0   9   14.00   25.10   1
   7   0  -8   44.70   21.70   1
   7   0  -8   80.89   17.80   1
   7   0  -8   39.20   23.80   1
  -7   0   8   35.70   18.00   1
  -7   0   8   41.90   23.40   1
   7   0  -7   21.50   20.30   1
   7   0  -7    4.70   22.60   1
   7   0  -7   24.80   14.90   1
  -7   0   7    3.30   16.50   1
  -7   0   7   30.10   23.50   1
   7   0  -6   13.90   19.30   1
  -7   0   6    5.30   21.70   1
  -7   0   6    8.90   19.00   1
   7   0  -6   29.30   13.00   1
   7   0  -6    2.90   19.20   1
  -7   0   5   20.70   14.80   1
  -7   0   5    2.30   23.20   1
   7   0  -5   15.90   18.80   1
   7   0  -5    9.00   10.40   1
   7   0  -5   -3.00   19.10   1
   7   0  -4   18.30   18.30   1
  -7   0   4    0.00   15.20   1
   7   0  -4   12.20    8.50   1
   7   0  -4   15.50   17.80   1
  -7   0   4   11.00   20.40   1
  -7   0   3  179.98   27.60   1
   7   0  -3  182.88   32.60   1
   7   0  -3  126.49   21.70   1
  -7   0   3  141.09   22.00   1
  -7   0   2   10.00   18.40   1
   7   0  -2    2.40   17.80   1
   7   0  -2   -8.20   17.10   1
  -7   0   1  253.97   37.60   1
   7   0  -1  231.68   36.40   1
  -7   0   1  331.57   24.20   1
   7   0  -1  281.47   32.90   1
   7   0  -1  277.27   32.00   1
   7   0   0  579.24   48.70   1
  -7   0   0  535.15   52.39   1
   7   0   0  527.75   51.89   1
  -7   0   0  611.54   43.60   1
   7   0   0  523.95   47.60   1
  -7   0  -1  346.77   28.60   1
   7   0   1  309.27   31.90   1
  -7   0  -1  286.57   39.90   1
   7   0   1  287.77   34.00   1
   7   0   2  139.79   23.70   1
  -7   0  -2  146.59   18.90   1
   7   0   2  123.59   22.10   1
  -7   0  -2  135.49   26.10   1
  -7   0  -2  105.29   24.80   1
  -7   0  -3  117.19   18.00   1
   7   0   3   79.09   18.20   1
   7   0   3   38.70   16.80   1
  -7   0  -3   38.40   23.00   1
   7   0   4  131.09   26.60   1
   7   0   4  114.69   21.40   1
  -7   0  -4  119.59   20.20   1
  -7   0  -4  129.49   27.50   1
  -7   0  -5   19.30   16.90   1
   7   0   5   11.70   21.50   1
   7   0   5   27.40   16.90   1
  -7   0  -5    2.70   23.60   1
   7   0   5  -10.00   16.10   1
   7   0   6    5.40   18.20   1
   7   0   6   -5.80   24.00   1
   7   0   6   -9.80   16.80   1
  -7   0  -6   40.20   18.80   1
   7   0   7  172.38   27.50   1
   7   0   7  128.09   23.70   1
  -7   0  -7  168.78   32.00   1
  -7   0  -7  203.98   27.90   1
   7   0   7  170.38   32.60   1
  -7   0  -8   10.80   24.00   1
   7   0   8   -5.40   24.70   1
   7   0   8   25.50   17.80   1
  -7   0  -8  -17.40   19.40   1
   7   0   8   11.80   19.10   1
  -7   0  -9   12.10   26.00   1
   7   0   9   18.50   25.90   1
  -7   0  -9   12.00   21.10   1
   7   0   9   16.90   17.40   1
   7   0   9   24.90   20.20   1
   7   0  10    3.60   20.30   1
  -7   0 -10   25.90   21.10   1
  -7   0 -10   13.60   27.80   1
   7   0  10   40.30   22.30   1
   7   0  10   -5.10   27.30   1
  -7   0 -11    9.80   24.20   1
  -7   0 -11   34.50   28.90   1
   7   0  11   -0.90   17.80   1
   7   0  11   31.10   29.30   1
   7   0  12   26.50   22.70   1
  -7   0 -12   59.99   29.50   1
   7   0  12   19.90   32.70   1
  -7   0 -12   32.30   33.40   1
  -7   0 -13  -26.50   33.30   1
   7   0  13  -19.40   21.60   1
  -7   0 -13   21.50   26.10   1
   7   0  13  -28.50   35.90   1
   7   0  14   39.50   41.70   1
  -7   0 -14  -15.70   38.50   1
   7   0  14   -2.10   20.50   1
  -7   0 -15  -63.19   26.80   1
  -7   1  17   18.30   28.20   1
   7   1 -17   44.30   32.80   1
   7   1 -17  145.29   50.29   1
   7   1 -17   91.29   47.90   1
   7  -1 -17   92.69   32.40   1
  -7  -1  17   39.10   27.70   1
  -7  -1  17  104.29   45.70   1
   7   1 -16   -8.30   40.10   1
  -7   1  16   25.50   26.20   1
   7   1 -16   82.69   44.10   1
   7   1 -16   50.19   32.40   1
  -7  -1  16    3.80   35.30   1
  -7  -1  16   12.80   25.20   1
   7  -1 -16   32.50   26.40   1
   7  -1 -16  -54.09   36.70   1
  -7   1  15    8.90   22.60   1
   7   1 -15  -30.70   34.60   1
   7   1 -15   24.20   30.40   1
  -7   1  15   62.59   34.90   1
   7   1 -15  -34.00   36.40   1
  -7  -1  15  -16.10   21.70   1
  -7  -1  15    9.80   38.30   1
   7  -1 -15   16.30   34.10   1
   7  -1 -15   45.50   50.89   1
   7  -1 -15    4.10   23.80   1
   7   1 -14  -15.60   27.70   1
  -7   1  14   78.69   35.00   1
   7   1 -14    0.00   32.00   1
   7   1 -14   36.60   39.30   1
  -7   1  14   26.30   26.40   1
   7  -1 -14   -1.00   19.30   1
  -7  -1  14   -1.50   22.50   1
  -7  -1  14    1.40   32.80   1
   7  -1 -14   60.09   39.20   1
   7  -1 -14   30.00   30.10   1
  -7   1  13   48.70   30.00   1
  -7   1  13   15.10   20.50   1
   7   1 -13   14.30   33.70   1
   7   1 -13  -29.50   24.80   1
   7   1 -13   20.50   31.00   1
   7  -1 -13    6.40   29.40   1
  -7  -1  13    7.70   30.10   1
   7  -1 -13    8.40   26.30   1
  -7  -1  13   20.00   23.50   1
   7  -1 -13   32.90   32.60   1
   7   1 -12   16.80   32.50   1
   7   1 -12   -7.40   27.00   1
  -7   1  12   15.30   27.60   1
   7   1 -12  -11.30   25.10   1
  -7   1  12    5.40   19.00   1
   7  -1 -12   27.60   26.40   1
  -7  -1  12   -4.60   21.10   1
   7  -1 -12   17.00   23.70   1
   7  -1 -12  -43.40   25.30   1
  -7   1  11   40.50   27.20   1
   7   1 -11   17.10   24.00   1
  -7   1  11    2.50   19.40   1
   7   1 -11   40.00   30.70   1
   7  -1 -11   54.19   23.80   1
  -7  -1  11   -4.20   28.60   1
  -7  -1  11  -19.80   21.00   1
   7  -1 -11   16.30   26.40   1
   7  -1 -11   14.00   22.90   1
   7   1 -10   38.90   25.50   1
  -7   1  10   36.60   25.90   1
   7   1 -10   59.59   24.20   1
   7   1 -10   34.90   25.80   1
  -7   1  10   13.80   17.90   1
   7  -1 -10   36.30   21.60   1
   7  -1 -10   89.59   20.80   1
  -7  -1  10   -4.60   24.50   1
  -7  -1  10   13.30   18.60   1
   7  -1 -10   27.40   26.00   1
  -7   1   9   21.70   26.10   1
   7   1  -9   28.10   23.10   1
  -7   1   9   27.60   20.70   1
   7   1  -9   -3.10   23.40   1
   7   1  -9   10.90   20.90   1
  -7  -1   9   29.30   18.40   1
   7  -1  -9   27.30   23.30   1
   7  -1  -9   46.00   18.20   1
  -7  -1   9   22.00   23.60   1
   7  -1  -9   31.10   21.70   1
   7   1  -8   -0.10   22.50   1
   7   1  -8   42.50   21.90   1
  -7   1   8   34.40   24.60   1
   7   1  -8    1.30   18.90   1
  -7   1   8   30.50   17.50   1
   7  -1  -8   31.40   17.60   1
   7  -1  -8   17.20   22.70   1
  -7  -1   8   -0.60   16.60   1
  -7  -1   8    7.70   23.80   1
   7   1  -7   40.10   21.80   1
  -7   1   7   30.40   24.30   1
  -7   1   7   -1.90   18.00   1
   7   1  -7    2.10   22.70   1
   7   1  -7   17.40   19.60   1
  -7  -1   7   35.20   16.80   1
   7  -1  -7   30.70   23.20   1
  -7  -1   7   15.80   21.70   1
   7   1  -6   21.50   21.40   1
  -7   1   6   28.40   16.60   1
  -7   1   6   24.50   16.50   1
  -7   1   6   29.60   21.80   1
   7   1  -6   30.50   20.20   1
   7   1  -6    1.60   16.40   1
   7  -1  -6   46.80   21.30   1
   7  -1  -6   18.50   19.20   1
  -7  -1   6   61.39   17.40   1
  -7  -1   6   46.70   23.50   1
   7   1  -5   18.70   23.00   1
   7   1  -5   40.00   21.40   1
  -7   1   5   12.80   15.20   1
   7   1  -5   27.80   20.00   1
  -7   1   5   47.70   23.70   1
  -7   1   5   11.40   26.00   1
  -7  -1   5   75.99   21.50   1
   7  -1  -5   19.10   19.20   1
   7  -1  -5   12.10   18.70   1
  -7  -1   5   44.50   17.10   1
  -7   1   4   13.90   21.50   1
  -7   1   4    5.40   14.30   1
   7   1  -4   27.40   20.50   1
   7   1  -4   16.80   18.00   1
   7   1  -4   23.80   16.00   1
  -7   1   4   27.50   14.30   1
  -7  -1   4   54.69   20.10   1
   7  -1  -4    4.30   20.00   1
   7  -1  -4   19.30   19.00   1
  -7  -1   4  -17.00   13.10   1
   7   1  -3  178.48   31.80   1
  -7   1   3  188.18   27.90   1
   7   1  -3  127.29   22.40   1
   7   1  -3  184.28   27.70   1
  -7   1   3  196.38   25.40   1
  -7   1   3  142.69   22.30   1
   7  -1  -3  157.18   25.50   1
  -7  -1   3  244.98   32.20   1
   7  -1  -3  197.68   33.00   1
   7   1  -2  387.56   39.00   1
  -7   1   2  401.46   38.60   1
  -7   1   2  416.06   44.80   1
  -7   1   2  436.06   38.50   1
   7   1  -2  494.75   44.50   1
   7   1  -2  408.06   40.20   1
   7   1  -2  439.96   44.70   1
  -7  -1   2  450.65   44.10   1
   7  -1  -2  506.65   45.10   1
   7  -1  -2  424.26   44.60   1
   7   1  -1  289.77   36.50   1
  -7   1   1  257.47   29.80   1
   7   1  -1  244.78   29.20   1
  -7   1   1  292.17   35.30   1
   7   1  -1  253.67   34.00   1
  -7   1   1  289.17   28.60   1
   7   1  -1  251.37   31.00   1
   7  -1  -1  300.67   34.20   1
  -7  -1   1  293.77   37.20   1
   7  -1  -1  308.07   35.90   1
   7   1   0   50.09   18.70   1
  -7   1   0   51.09   17.50   1
   7   1   0   53.89   20.20   1
   7   1   0   47.20   16.10   1
  -7   1   0   41.80   19.10   1
   7  -1   0   70.19   21.40   1
   7  -1   0   77.29   17.30   1
   7  -1   0   43.90   18.00   1
  -7  -1   0   42.80   21.40   1
  -7   1  -1    9.90   17.80   1
   7   1   1   27.20   17.30   1
   7   1   1   21.50   16.90   1
  -7   1  -1   44.00   18.20   1
   7   1   1   29.70   17.70   1
   7  -1   1   29.30   20.80   1
   7  -1   1   16.80   17.90   1
  -7  -1  -1   44.70   23.40   1
  -7  -1  -1   -7.60   20.30   1
   7  -1   1   30.60   16.80   1
   7   1   2  118.89   19.70   1
  -7   1  -2  108.89   21.90   1
  -7   1  -2  118.19   22.40   1
  -7   1  -2  147.29   23.20   1
   7   1   2  160.18   24.20   1
   7   1   2   93.69   21.80   1
  -7  -1  -2  105.99   27.10   1
   7  -1   2  114.69   25.90   1
   7  -1   2  145.29   21.10   1
   7   1   3   23.00   16.20   1
  -7   1  -3   22.70   19.20   1
  -7   1  -3  -21.30   18.10   1
  -7   1  -3   -4.60   19.40   1
   7   1   3   24.00   15.30   1
   7   1   3   -2.40   21.00   1
  -7  -1  -3   10.70   22.80   1
   7  -1   3   16.10   21.00   1
   7  -1   3   12.70   15.70   1
  -7   1  -4  193.48   31.50   1
   7   1   4  177.08   26.50   1
  -7   1  -4  199.48   28.70   1
   7   1   4  159.28   29.20   1
   7   1   4  189.68   24.00   1
  -7  -1  -4  134.49   26.10   1
  -7  -1  -4  140.89   30.60   1
   7  -1   4  202.38   30.10   1
   7  -1   4  186.18   26.10   1
   7   1   5   20.40   12.90   1
   7   1   5   15.40   18.70   1
   7   1   5   -3.10   24.40   1
  -7   1  -5    2.20   18.80   1
  -7   1  -5  -33.80   21.50   1
   7  -1   5   52.99   23.70   1
  -7  -1  -5  -11.40   18.20   1
  -7  -1  -5  -12.70   23.30   1
   7  -1   5   25.80   15.40   1
  -7   1  -6   23.70   22.00   1
  -7   1  -6  -20.10   20.90   1
   7   1   6   -3.20   22.40   1
   7   1   6   -4.40   15.20   1
  -7  -1  -6   22.20   25.20   1
  -7  -1  -6   26.50   21.60   1
   7  -1   6   10.40   26.40   1
   7  -1   6    7.10   16.50   1
   7  -1   6   41.10   23.40   1
  -7   1  -7   96.39   25.20   1
   7   1   7   83.39   20.80   1
  -7   1  -7   85.49   25.70   1
   7   1   7   96.39   28.40   1
   7  -1   7  110.39   22.30   1
  -7  -1  -7   93.29   25.80   1
   7  -1   7  101.19   27.10   1
   7  -1   7  131.49   29.00   1
  -7   1  -8   20.30   24.60   1
  -7   1  -8   29.20   24.10   1
   7   1   8   22.90   18.30   1
   7   1   8  -25.30   23.90   1
   7  -1   8   40.30   24.40   1
   7  -1   8   13.70   24.50   1
  -7  -1  -8   34.10   23.90   1
  -7  -1  -8  -24.40   23.50   1
   7   1   9   85.89   23.60   1
  -7   1  -9   45.40   26.40   1
   7   1   9   55.49   29.30   1
  -7   1  -9   70.19   27.00   1
  -7  -1  -9   77.49   29.90   1
   7  -1   9  106.79   27.40   1
  -7  -1  -9   91.79   30.50   1
   7  -1   9   37.80   19.70   1
   7  -1   9   48.00   36.50   1
  -7   1 -10   56.79   28.00   1
   7   1  10   17.30   27.60   1
   7   1  10    2.10   19.50   1
  -7   1 -10    9.60   23.70   1
   7  -1  10    1.70   27.60   1
  -7  -1 -10   21.20   29.00   1
   7  -1  10   18.40   29.10   1
   7  -1  10    5.80   20.40   1
  -7  -1 -10   16.20   26.50   1
  -7   1 -11   37.50   31.00   1
   7   1  11    0.60   22.30   1
   7   1  11  -11.10   31.90   1
  -7   1 -11  -15.50   27.30   1
  -7  -1 -11   39.50   29.50   1
  -7  -1 -11  -18.80   27.80   1
   7  -1  11   -1.60   18.30   1
   7  -1  11    3.70   31.80   1
   7  -1  11   23.00   31.20   1
  -7   1 -12    7.30   28.10   1
  -7   1 -12   -2.70   32.30   1
   7   1  12   24.50   33.10   1
   7   1  12   14.80   23.80   1
   7  -1  12    2.80   33.60   1
  -7  -1 -12  -10.90   30.90   1
   7  -1  12   13.90   22.00   1
   7  -1  12  -11.20   33.60   1
  -7  -1 -12   16.70   24.60   1
  -7   1 -13   -6.70   28.80   1
   7   1  13   -4.30   24.50   1
   7   1  13    5.90   37.10   1
  -7   1 -13  -41.40   34.70   1
   7  -1  13  -17.10   42.40   1
   7  -1  13   60.09   26.20   1
   7  -1  13   19.60   41.10   1
  -7  -1 -13   37.10   37.30   1
  -7  -1 -13   35.10   27.40   1
  -7   1 -14   -2.60   42.00   1
  -7   1 -14   54.69   32.70   1
  -7  -1 -14   60.99   29.50   1
   7  -1  14   61.29   27.20   1
   7  -1  14   70.59   48.80   1
   7   2 -16   34.00   46.80   1
   7   2 -16  -26.20   34.30   1
   7   2 -16   38.40   48.30   1
  -7   2  16  -17.30   23.70   1
  -7  -2  16   33.50   27.60   1
  -7  -2  16   83.69   44.40   1
   7  -2 -16  -50.69   33.80   1
   7   2 -15  160.68   49.90   1
  -7   2  15   35.70   29.40   1
   7   2 -15   64.59   40.80   1
   7   2 -15   68.19   37.30   1
   7  -2 -15  194.48   58.19   1
   7  -2 -15  123.99   36.40   1
  -7  -2  15  133.39   43.00   1
  -7  -2  15  109.09   31.20   1
   7   2 -14   58.79   39.20   1
   7   2 -14  -30.20   35.90   1
  -7   2  14   12.00   25.10   1
  -7   2  14   36.60   32.10   1
   7   2 -14   78.09   36.80   1
  -7  -2  14   32.20   27.60   1
   7  -2 -14   73.19   38.80   1
  -7  -2  14  106.49   40.60   1
   7  -2 -14   26.10   35.50   1
   7  -2 -14   42.30   30.40   1
   7   2 -13  163.08   41.30   1
   7   2 -13   71.09   37.70   1
  -7   2  13  175.68   41.10   1
   7   2 -13  203.38   46.20   1
  -7   2  13  175.38   34.80   1
  -7  -2  13  126.59   31.70   1
  -7  -2  13  124.79   38.80   1
   7  -2 -13  173.98   34.70   1
   7  -2 -13  280.37   39.10   1
   7  -2 -13  180.18   39.80   1
  -7   2  12   35.40   30.60   1
   7   2 -12   79.49   31.50   1
   7   2 -12    7.30   33.60   1
  -7   2  12   -6.70   21.20   1
   7   2 -12  -77.09   29.70   1
  -7  -2  12   12.80   24.70   1
  -7  -2  12  -31.80   31.10   1
   7  -2 -12   44.40   27.00   1
   7  -2 -12   53.89   26.40   1
   7  -2 -12   12.80   28.00   1
  -7   2  11   28.40   20.00   1
   7   2 -11    4.70   27.80   1
   7   2 -11   20.40   30.50   1
   7   2 -11    2.10   28.50   1
  -7   2  11   -0.10   27.10   1
   7  -2 -11    0.80   25.40   1
   7  -2 -11  -30.00   21.80   1
   7  -2 -11   42.20   26.90   1
  -7  -2  11  -15.00   20.80   1
   7   2 -10  -11.20   23.30   1
  -7   2  10  -13.10   19.80   1
  -7   2  10   12.80   28.10   1
   7   2 -10   33.20   29.30   1
   7   2 -10    5.60   26.40   1
   7  -2 -10   -7.20   21.90   1
   7  -2 -10   11.70   25.20   1
  -7  -2  10    4.90   33.50   1
  -7  -2  10  -17.30   24.20   1
   7   2  -9   52.59   30.50   1
  -7   2   9   36.30   20.80   1
  -7   2   9   72.39   28.40   1
   7   2  -9  100.99   27.80   1
  -7   2   9   69.59   27.10   1
   7   2  -9   46.10   23.90   1
   7  -2  -9    5.80   22.10   1
  -7  -2   9   53.69   25.10   1
   7  -2  -9   54.79   26.30   1
  -7  -2   9   30.60   19.00   1
  -7   2   8   92.09   30.50   1
   7   2  -8  176.48   35.80   1
  -7   2   8  108.79   26.50   1
   7   2  -8   81.89   26.50   1
  -7   2   8   98.99   24.00   1
   7   2  -8   95.99   25.50   1
  -7  -2   8  145.99   29.50   1
   7  -2  -8  100.99   27.90   1
   7  -2  -8   93.89   24.80   1
  -7  -2   8  112.69   20.90   1
   7   2  -7   66.59   25.10   1
   7   2  -7   55.09   27.80   1
   7   2  -7   31.80   22.30   1
  -7   2   7   65.69   27.50   1
  -7   2   7   60.99   22.30   1
  -7   2   7   57.09   20.60   1
   7  -2  -7   83.29   24.70   1
  -7  -2   7   45.50   24.70   1
  -7  -2   7   95.79   23.90   1
   7  -2  -7   69.19   25.30   1
  -7   2   6   76.79   28.00   1
   7   2  -6   35.50   22.60   1
  -7   2   6   74.89   23.40   1
   7   2  -6   47.60   20.40   1
  -7   2   6   75.29   20.40   1
   7   2  -6   73.19   29.80   1
  -7  -2   6   82.39   18.50   1
  -7  -2   6   65.19   22.50   1
   7  -2  -6   49.80   23.60   1
   7   2  -5  225.08   39.50   1
   7   2  -5  322.77   37.60   1
  -7   2   5  297.87   34.10   1
  -7   2   5  342.47   34.20   1
   7   2  -5  354.36   46.20   1
  -7   2   5  341.97   43.60   1
  -7  -2   5  278.37   31.20   1
  -7  -2   5  218.68   38.60   1
   7  -2  -5  289.57   38.40   1
   7  -2  -5  253.97   39.50   1
  -7   2   4   15.00   17.20   1
   7   2  -4    5.00   22.30   1
   7   2  -4    6.40   24.80   1
  -7   2   4   -7.00   21.40   1
  -7   2   4   28.70   21.30   1
   7   2  -4   13.30   18.10   1
   7  -2  -4    8.40   20.50   1
   7  -2  -4  -17.40   18.80   1
  -7  -2   4  -44.00   16.70   1
   7   2  -3  303.67   35.00   1
   7   2  -3  282.97   34.90   1
  -7   2   3  227.38   32.60   1
   7   2  -3  295.67   43.60   1
  -7   2   3  251.87   29.20   1
   7   2  -3  228.78   29.50   1
  -7   2   3  255.17   39.10   1
  -7  -2   3  188.28   34.00   1
   7  -2  -3  260.17   37.70   1
   7  -2  -3  214.38   35.90   1
   7   2  -2   23.90   24.60   1
  -7   2   2   -0.30   21.00   1
  -7   2   2   29.50   14.60   1
   7   2  -2  -25.70   20.70   1
   7   2  -2   -4.90   15.70   1
  -7   2   2   30.40   19.40   1
   7  -2  -2   28.90   22.70   1
  -7  -2   2   27.20   18.60   1
   7  -2  -2   -1.70   17.10   1
  -7   2   1  222.48   26.30   1
  -7   2   1  216.48   54.19   1
   7   2  -1  243.58   41.30   1
   7   2  -1  222.78   37.00   1
   7   2  -1  217.78   28.90   1
  -7   2   1  285.77   35.40   1
  -7  -2   1  223.68   35.90   1
  -7  -2   1  239.28   34.00   1
   7  -2  -1  233.08   39.40   1
   7  -2  -1  260.27   33.30   1
   7   2   0  244.08   35.70   1
   7   2   0  311.37   38.90   1
  -7   2   0  262.67   26.40   1
  -7   2   0  215.08   36.60   1
   7   2   0  243.68   30.40   1
  -7  -2   0  206.98   38.40   1
   7  -2   0  301.87   43.30   1
   7  -2   0  306.27   32.90   1
  -7  -2   0  208.38   36.60   1
   7   2   1  104.99   26.30   1
   7   2   1  105.39   21.40   1
  -7   2  -1  130.09   18.60   1
  -7   2  -1  123.39   26.80   1
   7   2   1  145.39   25.60   1
   7  -2   1  164.48   31.10   1
  -7  -2  -1   71.19   26.40   1
   7   2   2  102.59   24.10   1
   7   2   2   80.89   21.50   1
  -7   2  -2   62.19   24.80   1
   7   2   2   64.79   22.10   1
   7  -2   2   69.09   26.80   1
  -7  -2  -2   76.49   27.50   1
   7   2   3  233.88   32.10   1
  -7   2  -3  242.88   36.70   1
   7   2   3  256.37   34.00   1
   7   2   3  241.18   34.30   1
   7   2   3  244.58   41.60   1
   7  -2   3  221.18   29.10   1
  -7  -2  -3  299.37   42.80   1
   7   2   4   74.59   22.50   1
   7   2   4   38.10   24.70   1
   7   2   4   43.60   17.10   1
  -7   2  -4  135.69   27.80   1
   7   2   4   97.19   22.80   1
   7  -2   4   65.89   18.00   1
   7  -2   4  107.39   28.90   1
  -7  -2  -4   79.89   27.90   1
   7   2   5  211.38   31.30   1
  -7   2  -5  223.58   37.10   1
   7   2   5  256.27   36.30   1
   7   2   5  215.48   36.50   1
   7   2   5  290.07   33.00   1
   7  -2   5  208.78   29.80   1
   7  -2   5  262.97   37.80   1
  -7  -2  -5  252.27   43.10   1
  -7   2  -6   95.19   23.10   1
  -7   2  -6  107.79   27.60   1
   7   2   6   41.50   27.30   1
   7   2   6   54.79   21.40   1
  -7  -2  -6   64.29   27.10   1
   7  -2   6   94.69   28.30   1
   7  -2   6   28.30   19.10   1
   7   2   7   13.70   17.30   1
  -7   2  -7    5.90   24.40   1
  -7   2  -7   49.99   21.30   1
   7   2   7    0.30   25.80   1
   7  -2   7   39.30   20.00   1
  -7  -2  -7    7.20   26.50   1
   7  -2   7   52.29   27.40   1
  -7  -2  -7   17.20   25.90   1
  -7   2  -8  123.59   27.20   1
  -7   2  -8   72.29   27.50   1
   7   2   8   80.89   32.30   1
   7   2   8   46.50   22.50   1
   7  -2   8   90.29   30.30   1
  -7  -2  -8  110.59   34.80   1
  -7  -2  -8   70.89   27.80   1
   7  -2   8   76.29   21.40   1
  -7   2  -9  144.99   38.90   1
   7   2   9  163.28   34.60   1
   7   2   9   57.59   24.40   1
  -7   2  -9   38.20   29.90   1
   7  -2   9  105.79   25.80   1
   7  -2   9   81.89   31.20   1
  -7  -2  -9   82.39   34.30   1
  -7  -2  -9   97.09   31.60   1
  -7   2 -10  107.39   33.50   1
  -7   2 -10  100.59   31.40   1
   7   2  10  117.39   35.70   1
   7   2  10   65.39   22.90   1
   7  -2  10  102.89   35.70   1
   7  -2  10  138.39   28.50   1
   7  -2  10  152.88   34.80   1
  -7  -2 -10  149.59   35.70   1
  -7  -2 -10  108.39   35.30   1
   7   2  11   71.09   27.40   1
  -7   2 -11   83.09   30.50   1
   7   2  11   78.69   35.70   1
  -7  -2 -11  116.09   36.70   1
  -7  -2 -11   81.69   35.90   1
   7  -2  11   50.09   38.90   1
   7  -2  11   60.09   28.50   1
   7  -2  11   86.69   35.40   1
  -7   2 -12  -58.99   36.80   1
   7   2  12   12.50   27.50   1
  -7   2 -12   11.50   28.60   1
   7   2  12   10.30   37.10   1
  -7  -2 -12   57.49   39.90   1
  -7  -2 -12   49.10   33.20   1
   7  -2  12   20.20   35.20   1
   7  -2  12  -19.60   39.20   1
   7  -2  12    5.20   26.00   1
  -7   2 -13  -82.29   42.70   1
  -7   2 -13  -15.70   30.90   1
   7   2  13   -6.90   25.50   1
   7  -2  13   -5.70   45.70   1
   7  -2  13  -27.10   26.60   1
  -7  -2 -13   55.39   39.10   1
   7  -2  13  -22.50   36.70   1
   7  -2  14   32.10   41.70   1
   7   3 -14  -24.30   34.70   1
   7   3 -14   43.40   45.60   1
  -7   3  14    6.80   24.30   1
   7   3 -14   34.00   49.50   1
  -7  -3  14   61.19   32.50   1
  -7  -3  14   15.40   46.80   1
   7  -3 -14   47.30   30.60   1
   7   3 -13   60.79   45.10   1
   7   3 -13   57.49   37.00   1
   7   3 -13   69.69   44.00   1
  -7   3  13  137.09   41.90   1
  -7   3  13   54.99   29.70   1
  -7  -3  13   84.29   30.00   1
  -7  -3  13   82.39   49.50   1
   7  -3 -13   64.69   32.30   1
   7  -3 -13   69.29   37.70   1
   7  -3 -13   34.10   30.20   1
  -7   3  12   68.89   38.50   1
   7   3 -12   55.69   41.90   1
   7   3 -12   12.90   36.50   1
   7   3 -12   37.70   33.50   1
  -7   3  12   69.09   26.70   1
   7  -3 -12   80.49   37.20   1
   7  -3 -12   46.50   31.70   1
  -7  -3  12   80.39   28.00   1
   7   3 -11  173.98   45.90   1
  -7   3  11  184.28   38.00   1
   7   3 -11   69.29   35.60   1
  -7   3  11  160.18   30.80   1
  -7   3  11  161.58   40.00   1
   7  -3 -11  163.88   39.70   1
  -7  -3  11  104.19   32.20   1
  -7  -3  11   52.79   38.10   1
   7  -3 -11  219.48   34.70   1
   7   3 -10  196.78   41.60   1
   7   3 -10  216.88   46.40   1
  -7   3  10  165.88   33.90   1
  -7   3  10  192.28   41.40   1
  -7   3  10  136.29   34.30   1
   7  -3 -10  166.08   34.20   1
  -7  -3  10   62.39   37.40   1
  -7  -3  10  134.29   31.30   1
   7  -3 -10  236.18   42.70   1
  -7   3   9   20.50   30.30   1
   7   3  -9   64.99   38.20   1
  -7   3   9   59.09   25.10   1
   7   3  -9   25.90   29.50   1
  -7   3   9   35.90   27.50   1
   7  -3  -9   44.40   30.30   1
  -7  -3   9  -14.40   22.90   1
   7  -3  -9   18.00   28.20   1
  -7  -3   9    3.30   30.70   1
   7   3  -8  -13.20   31.30   1
   7   3  -8   39.00   29.70   1
  -7   3   8  -19.00   24.30   1
  -7   3   8    7.90   28.60   1
  -7   3   8   -1.50   19.60   1
   7  -3  -8   45.10   27.30   1
   7  -3  -8   -4.90   25.70   1
  -7  -3   8   25.20   29.20   1
  -7   3   7   47.00   29.40   1
  -7   3   7    3.70   24.80   1
  -7   3   7   31.40   19.40   1
   7   3  -7   45.10   33.40   1
   7   3  -7   -4.90   24.90   1
   7  -3  -7   16.20   27.50   1
  -7  -3   7   -1.10   16.90   1
   7  -3  -7   69.09   37.30   1
  -7   3   6  -28.00   24.30   1
  -7   3   6   19.50   18.40   1
   7   3  -6  -34.70   25.20   1
   7   3  -6   14.60   29.60   1
  -7   3   6   42.90   29.50   1
  -7  -3   6  -18.90   17.20   1
   7  -3  -6   -1.50   23.10   1
   7  -3  -6   29.70   25.20   1
  -7   3   5   -3.10   24.40   1
  -7   3   5   17.90   18.10   1
  -7   3   5   -7.20   25.70   1
   7   3  -5  -14.50   27.00   1
   7   3  -5   -2.60   24.50   1
   7  -3  -5   41.10   39.30   1
  -7  -3   5   15.20   16.40   1
   7  -3  -5   17.60   24.50   1
   7   3  -4   31.70   29.30   1
  -7   3   4   27.40   19.70   1
  -7   3   4   47.90   26.50   1
   7   3  -4   39.30   27.10   1
  -7   3   4   55.49   27.10   1
   7  -3  -4   15.10   22.40   1
   7  -3  -4   67.19   28.10   1
  -7  -3   4   36.70   21.00   1
   7   3  -3   11.00   29.50   1
   7   3  -3   21.10   19.10   1
   7   3  -3   30.80   27.80   1
  -7   3   3   -8.60   17.60   1
  -7   3   3  -40.00   24.00   1
  -7   3   3   33.60   23.30   1
   7  -3  -3   -5.60   21.50   1
   7  -3  -3    9.90   25.30   1
  -7  -3   3  -19.30   21.90   1
  -7  -3   3    8.70   19.60   1
  -7   3   2  -15.70   16.10   1
   7   3  -2   16.00   26.40   1
  -7   3   2   42.60   27.20   1
   7   3  -2   16.80   30.00   1
   7   3  -2   28.90   18.70   1
  -7  -3   2   -7.20   19.20   1
   7  -3  -2   22.60   27.80   1
  -7  -3   2   39.60   24.00   1
   7   3  -1  252.37   31.20   1
   7   3  -1  199.38   38.20   1
   7   3  -1  217.48   39.70   1
  -7   3   1  218.68   28.40   1
  -7   3   1  264.77   39.60   1
   7  -3  -1  265.17   39.80   1
  -7  -3   1  269.67   40.10   1
  -7  -3   1  198.98   37.80   1
   7   3   0  353.96   44.90   1
  -7   3   0  301.87   43.40   1
   7   3   0  329.87   44.10   1
   7   3   0  297.57   35.90   1
  -7  -3   0  323.67   44.30   1
  -7  -3   0  284.77   44.40   1
   7  -3   0  286.77   47.40   1
   7   3   1   34.60   19.80   1
   7   3   1   50.09   25.70   1
  -7   3  -1   75.79   29.40   1
   7  -3   1   80.19   30.80   1
  -7  -3  -1   83.99   26.80   1
  -7  -3  -1   -2.10   33.20   1
   7   3   2  147.59   28.10   1
   7   3   2  216.78   35.20   1
  -7   3  -2  260.17   40.00   1
   7   3   2  162.88   36.40   1
   7  -3   2  243.28   38.70   1
  -7  -3  -2  184.78   35.50   1
   7   3   3   49.20   26.80   1
   7   3   3   64.89   21.30   1
  -7   3  -3   20.10   26.20   1
   7  -3   3    2.90   27.40   1
  -7  -3  -3   25.10   26.00   1
   7   3   4  122.59   32.40   1
   7   3   4   89.89   28.50   1
  -7   3  -4  157.58   36.70   1
   7   3   4  101.79   23.00   1
  -7  -3  -4  113.49   32.20   1
   7  -3   4  114.19   32.50   1
   7   3   5   23.50   17.80   1
   7   3   5  -15.40   25.80   1
  -7   3  -5  -11.80   24.50   1
   7   3   5    6.70   26.10   1
  -7  -3  -5    6.30   28.40   1
   7  -3   5    0.00   28.20   1
  -7   3  -6   58.69   34.70   1
   7   3   6   34.00   20.30   1
   7   3   6   68.19   30.40   1
   7   3   6   81.79   30.50   1
  -7  -3  -6   35.80   28.10   1
  -7  -3  -6   54.19   31.50   1
   7  -3   6   61.79   30.40   1
   7   3   7   -7.90   29.70   1
   7   3   7   21.50   28.60   1
   7   3   7   -9.80   17.50   1
  -7   3  -7   -0.30   26.50   1
  -7  -3  -7  -20.10   28.40   1
   7  -3   7   -1.20   30.90   1
  -7  -3  -7   30.80   30.70   1
  -7   3  -8   16.50   29.50   1
   7   3   8   86.69   27.20   1
   7   3   8   97.99   32.60   1
   7   3   8   75.79   35.20   1
  -7  -3  -8   55.49   33.50   1
   7  -3   8   61.99   35.50   1
  -7   3  -9   20.00   29.80   1
   7   3   9   81.59   36.60   1
   7   3   9    8.80   25.00   1
   7  -3   9   -5.60   30.60   1
  -7  -3  -9   59.99   34.40   1
   7  -3   9   30.90   34.00   1
   7   3  10  -15.60   21.50   1
  -7   3 -10   22.60   32.30   1
   7   3  10   49.10   40.10   1
   7  -3  10   63.79   35.90   1
  -7  -3 -10  -32.50   33.10   1
  -7  -3 -10   37.40   34.50   1
   7   3  11   56.09   28.20   1
  -7   3 -11   29.10   40.60   1
  -7  -3 -11   62.39   43.40   1
   7  -3  11   37.20   36.90   1
  -7  -3 -11   38.50   50.89   1
  -7   3 -12  -11.50   31.50   1
   7   3  12  -15.60   20.80   1
  -7  -3 -12   46.10   36.40   1
   7  -3  12   34.60   37.90   1
  -7   4  11   49.99   33.20   1
  -7   4  11   14.60   25.10   1
   7   4 -11  -23.80   36.30   1
  -7   4  11   67.49   46.00   1
   7   4 -11   51.39   45.70   1
   7  -4 -11   41.40   36.30   1
   7  -4 -11   33.80   41.30   1
  -7   4  10  265.07   54.19   1
   7   4 -10  319.37   51.29   1
   7   4 -10  278.77   66.19   1
  -7   4  10  333.27   44.80   1
  -7   4  10  198.88   41.30   1
   7  -4 -10  282.17   55.99   1
   7  -4 -10  346.27   54.09   1
   7   4  -9   60.99   36.40   1
  -7   4   9   66.39   28.50   1
   7   4  -9   81.59   43.10   1
  -7   4   9   93.69   45.70   1
  -7   4   9   40.10   30.40   1
   7  -4  -9   18.20   49.40   1
   7  -4  -9   71.19   36.10   1
  -7   4   8  138.59   41.50   1
  -7   4   8   34.80   25.10   1
   7   4  -8  -17.80   36.40   1
   7   4  -8   10.50   32.10   1
  -7   4   8   -0.20   29.60   1
   7  -4  -8  -17.00   32.00   1
   7  -4  -8   -0.70   33.90   1
  -7   4   7   23.90   23.10   1
   7   4  -7   27.80   35.60   1
  -7   4   7   61.49   35.20   1
   7   4  -7  -32.60   28.50   1
  -7   4   7   20.90   28.90   1
   7  -4  -7  -16.50   28.80   1
   7  -4  -7   16.70   33.50   1
  -7   4   6  120.99   35.10   1
  -7   4   6   95.69   31.50   1
  -7   4   6  133.89   29.10   1
   7   4  -6  105.79   38.60   1
   7   4  -6   36.00   33.50   1
   7  -4  -6   67.09   34.20   1
   7   4  -5   69.89   36.70   1
  -7   4   5  106.59   23.60   1
  -7   4   5   80.69   32.90   1
  -7   4   5  117.89   34.10   1
   7   4  -5  104.09   34.00   1
   7  -4  -5   38.00   31.30   1
   7  -4  -5  137.79   36.30   1
  -7   4   4   23.50   19.10   1
  -7   4   4   58.79   29.00   1
   7   4  -4   52.29   33.00   1
   7   4  -4   -1.30   33.80   1
  -7   4   4   59.99   31.50   1
   7  -4  -4   43.00   31.40   1
   7  -4  -4  -23.30   28.40   1
   7   4  -3   46.10   31.70   1
  -7   4   3   92.99   22.10   1
   7   4  -3  118.39   39.10   1
  -7   4   3   91.69   36.40   1
  -7   4   3   80.19   28.40   1
   7  -4  -3   42.10   32.00   1
  -7  -4   3   56.69   28.80   1
  -7   4   2  156.28   38.80   1
   7   4  -2  206.88   42.20   1
  -7   4   2  193.38   29.00   1
   7   4  -2  279.17   46.20   1
   7   4  -2  292.97   35.20   1
  -7  -4   2  229.98   36.00   1
   7  -4  -2  162.38   40.80   1
   7   4  -1  344.17   41.30   1
   7   4  -1  272.87   45.90   1
  -7   4   1  374.86   49.90   1
  -7  -4   1  345.27   49.20   1
   7  -4  -1  380.86   54.69   1
  -7  -4   1  325.97   49.90   1
   7   4   0   82.59   31.90   1
  -7   4   0   57.79   31.10   1
   7   4   0   39.80   24.00   1
  -7  -4   0   20.80   30.00   1
   7  -4   0  155.18   37.10   1
  -7  -4   0   52.89   29.90   1
  -7   4  -1   16.10   28.60   1
   7   4   1   36.70   22.40   1
   7   4   1   55.49   28.90   1
  -7  -4  -1   -7.50   30.20   1
   7  -4   1   28.50   30.20   1
  -7  -4  -1   48.60   30.50   1
   7   4   2   31.00   29.90   1
   7   4   2  102.29   27.50   1
  -7   4  -2   60.19   32.20   1
  -7  -4  -2   50.89   35.40   1
   7  -4   2   78.59   34.10   1
  -7  -4  -2  -33.60   35.40   1
  -7  -4  -2    7.60   35.60   1
   7   4   3   49.50   23.20   1
   7   4   3   43.70   29.40   1
  -7   4  -3    2.40   32.90   1
   7  -4   3  -20.00   28.70   1
  -7  -4  -3  -34.70   35.40   1
  -7  -4  -3   16.00   32.30   1
   7   4   4   36.50   31.10   1
  -7   4  -4  108.59   36.50   1
   7   4   4    4.20   20.70   1
   7  -4   4   66.49   35.00   1
  -7  -4  -4   48.40   33.00   1
  -7  -4  -4   14.30   35.80   1
  -7   4  -5  160.58   40.70   1
   7   4   5   99.79   26.20   1
   7   4   5  112.69   33.30   1
   7   4   5  118.19   38.70   1
  -7  -4  -5   80.39   38.70   1
   7  -4   5   99.99   36.60   1
  -7  -4  -5   56.19   39.10   1
   7   4   6    7.00   25.10   1
  -7   4  -6   10.20   32.60   1
   7   4   6   12.80   36.10   1
   7   4   6   27.60   30.20   1
  -7  -4  -6  -38.70   37.20   1
  -7  -4  -6   24.50   34.50   1
   7  -4   6   17.90   33.60   1
   7   4   7   71.99   27.70   1
   7   4   7   46.70   37.00   1
  -7   4  -7   71.49   36.80   1
   7   4   7   28.70   32.40   1
   7  -4   7    8.60   36.40   1
  -7  -4  -7   -7.70   38.50   1
  -7  -4  -7   46.60   36.80   1
   7   4   8   27.90   31.60   1
   7   4   8   30.70   22.90   1
   7   4   8   33.80   40.10   1
  -7   4  -8   10.10   34.10   1
  -7  -4  -8   20.00   39.80   1
   7  -4   8   18.40   36.30   1
  -7   4  -9   36.30   39.70   1
   7   4   9  108.79   39.40   1
   7   4   9   68.49   25.60   1
   7  -4   9   34.50   40.60   1
  -7  -4  -9  115.99   45.80   1
   7   5  -5  136.19   41.10   1
  -7   5   5  175.68   42.60   1
  -7   5   5  132.59   55.19   1
  -7  -5   5  127.39   50.19   1
   7  -5  -5  165.78   45.40   1
   7  -5  -5   87.29   55.49   1
  -7   5   4  108.19   40.00   1
  -7  -5   4  127.99   49.99   1
   7  -5  -4  123.59   42.50   1
  -7  -5   3   82.39   83.49   1
   7  -5  -3   80.49   38.90   1
  -7  -5   2  388.46   60.49   1
   7  -5  -2   55.99   46.20   1
  -7  -5   1  849.22  108.59   1
  -7  -5   1 1207.08  107.09   1
   7   5   0   84.99   41.40   1
  -7  -5   0   95.99   47.20   1
  -7  -5   0  118.09   42.50   1
  -7  -5   0   98.09   52.29   1
   7   5   1   18.50   34.90   1
   7   5   1   36.80   33.00   1
  -7   5  -1   52.89   33.40   1
   7  -5   1   80.29   39.90   1
  -7  -5  -1   86.19   46.60   1
  -7  -5  -1  -55.39   39.20   1
   7   5   2   16.60   32.10   1
   7   5   2   40.70   34.50   1
  -7   5  -2   47.60   36.30   1
   7  -5   2   70.99   38.30   1
  -7  -5  -2    8.80   46.50   1
  -7  -5  -2   24.90   42.80   1
  -7  -5  -2  -22.10   38.60   1
  -7   5  -3   60.29   35.30   1
   7   5   3   37.00   31.20   1
  -7  -5  -3   42.00   44.80   1
  -7  -5  -3   60.99   48.70   1
  -7  -5  -3  106.09   49.80   1
   7  -5   3   46.60   38.40   1
   8   0 -17  163.68   48.70   1
  -8   0  17   25.40   33.20   1
   8   0 -17   35.10   28.90   1
   8   0 -16  -31.90   37.80   1
  -8   0  16  -44.80   23.00   1
  -8   0  16   38.00   36.90   1
   8   0 -16   48.20   27.10   1
   8   0 -16   10.60   42.00   1
   8   0 -15   68.89   27.80   1
  -8   0  15  109.49   37.70   1
   8   0 -15   90.19   37.10   1
  -8   0  15   80.49   27.50   1
   8   0 -15  176.68   41.70   1
  -8   0  14   -3.90   31.10   1
   8   0 -14   22.60   23.40   1
   8   0 -14   56.89   36.50   1
   8   0 -14   58.59   31.80   1
  -8   0  14   18.60   22.10   1
  -8   0  13  194.18   40.40   1
  -8   0  13  237.38   37.70   1
   8   0 -13  221.88   33.20   1
   8   0 -13  253.87   46.30   1
   8   0 -13  322.87   43.00   1
  -8   0  12  581.84   66.19   1
   8   0 -12  559.74   53.89   1
  -8   0  12  587.54   55.89   1
   8   0 -12  549.05   60.79   1
   8   0 -12  670.33   62.69   1
   8   0 -11  172.78   32.80   1
   8   0 -11  135.89   25.10   1
  -8   0  11  170.58   31.20   1
   8   0 -11  113.29   30.00   1
  -8   0  11  155.08   35.80   1
   8   0 -10  731.63   64.09   1
   8   0 -10  641.84   60.79   1
  -8   0  10  650.43   67.99   1
  -8   0  10  739.93   60.89   1
   8   0  -9 2550.54  187.88   1
   8   0  -9 2426.26  190.18   1
  -8   0   9 2830.62  197.98   1
   8   0  -9 2534.45  193.38   1
  -8   0   9 2514.55  190.48   1
   8   0  -8  635.14   56.49   1
   8   0  -8  523.55   57.79   1
  -8   0   8  662.43   56.29   1
   8   0  -8  593.54   49.90   1
  -8   0   8  610.64   61.39   1
   8   0  -7 3795.82  271.57   1
   8   0  -7 3906.91  269.27   1
   8   0  -7 3465.75  273.47   1
  -8   0   7 3787.12  272.07   1
  -8   0   7 3665.73  274.97   1
   8   0  -6  540.25   51.99   1
  -8   0   6  509.25   46.90   1
   8   0  -6  498.65   41.70   1
  -8   0   6  544.15   54.59   1
  -8   0   5  297.47   36.20   1
   8   0  -5  289.87   39.70   1
   8   0  -5  377.06   37.00   1
  -8   0   5  322.77   41.90   1
   8   0  -5  297.67   27.10   1
  -8   0   4  284.77   39.10   1
   8   0  -4  235.08   36.70   1
   8   0  -4  281.07   34.10   1
  -8   0   4  201.98   28.50   1
  -8   0   3  964.30   76.39   1
   8   0  -3  875.91   76.09   1
  -8   0   3  936.41   72.39   1
   8   0  -3  917.91   72.59   1
  -8   0   2   24.60   19.50   1
   8   0  -2   16.40   19.10   1
   8   0  -2   17.90   17.50   1
  -8   0   1 4299.67  317.27   1
   8   0  -1 4673.43  316.27   1
  -8   0   1 4456.55  312.97   1
   8   0  -1 4043.40  317.07   1
   8   0  -1 4339.67  315.07   1
   8   0   0 6121.89  420.46   1
   8   0   0 5375.56  421.26   1
  -8   0   0 5681.43  421.76   1
   8   0   0 5689.73  419.16   1
  -8   0   0 6249.47  418.16   1
  -8   0  -1 2719.23  194.98   1
   8   0   1 2692.23  196.08   1
   8   0   1 2750.12  197.48   1
  -8   0  -1 2603.74  199.18   1
  -8   0  -2   -7.10   19.30   1
  -8   0  -2  -26.10   19.70   1
   8   0   2    3.50   15.80   1
  -8   0  -2   34.20   14.50   1
   8   0   2    0.50   16.80   1
   8   0   3 6136.59  436.46   1
  -8   0  -3 5982.10  436.76   1
  -8   0  -3 6078.19  440.76   1
   8   0   4 3395.86  243.48   1
  -8   0  -4 3300.67  248.68   1
   8   0   4 3371.46  245.58   1
  -8   0  -5   75.59   19.50   1
   8   0   5   96.29   20.90   1
   8   0   5   79.39   26.90   1
   8   0   5  105.69   23.30   1
  -8   0  -5   55.89   26.10   1
   8   0   6   17.10   24.00   1
  -8   0  -6  -19.90   23.10   1
   8   0   6    5.60   18.40   1
   8   0   7  184.78   29.80   1
   8   0   7  209.88   31.50   1
  -8   0  -7  240.68   31.50   1
  -8   0  -7  210.38   35.20   1
  -8   0  -8    2.20   21.20   1
   8   0   8   34.20   21.10   1
   8   0   8   25.20   26.50   1
  -8   0  -8   -7.90   24.50   1
   8   0   8   14.10   17.60   1
   8   0   9   57.79   23.60   1
   8   0   9   70.19   30.60   1
  -8   0  -9   19.10   24.80   1
   8   0   9   44.00   19.30   1
  -8   0  -9   14.40   27.10   1
   8   0  10  374.96   49.90   1
  -8   0 -10  275.57   49.00   1
   8   0  10  274.07   36.70   1
   8   0  10  220.38   37.70   1
  -8   0 -10  253.37   40.40   1
  -8   0 -11  115.79   34.00   1
  -8   0 -11   13.50   24.30   1
   8   0  11   60.99   24.60   1
   8   0  11   85.99   33.70   1
  -8   0 -12  148.39   38.80   1
  -8   0 -12   99.19   28.20   1
   8   0  12   84.79   37.70   1
   8   0  12   59.99   23.20   1
   8   0  13  347.37   43.30   1
  -8   0 -13  357.66   58.79   1
   8   0  13  225.88   54.19   1
  -8   0 -13  308.77   46.20   1
   8   0  14   20.20   23.20   1
  -8   0 -14   27.80   29.50   1
  -8   0 -14  -33.40   39.30   1
   8   0  14   20.00   45.60   1
  -8   1  17  311.27   44.90   1
   8   1 -17  337.77   52.69   1
   8   1 -17  207.58   52.89   1
   8   1 -17  369.06   63.69   1
  -8  -1  17  338.17   47.40   1
   8  -1 -17  355.16   67.69   1
  -8  -1  17  246.88   65.29   1
   8  -1 -17  289.07   48.50   1
   8   1 -16   75.89   41.50   1
   8   1 -16  108.59   44.90   1
   8   1 -16   86.49   34.30   1
  -8  -1  16   46.30   38.80   1
  -8  -1  16  112.19   29.30   1
   8  -1 -16  125.69   30.40   1
   8  -1 -16   76.89   42.30   1
   8   1 -15   59.19   32.30   1
  -8   1  15  117.49   38.70   1
   8   1 -15  125.39   42.60   1
   8   1 -15   57.79   39.00   1
  -8   1  15   85.39   27.40   1
   8  -1 -15   49.10   24.50   1
   8  -1 -15   39.70   36.10   1
  -8  -1  15   18.80   23.60   1
  -8  -1  15   77.49   37.40   1
   8  -1 -15   31.70   36.90   1
   8   1 -14  127.89   32.80   1
  -8   1  14   74.29   25.60   1
  -8   1  14  109.59   35.80   1
   8   1 -14  100.19   39.50   1
   8   1 -14   57.69   33.90   1
   8  -1 -14   84.39   34.70   1
   8  -1 -14   71.79   35.10   1
  -8  -1  14   91.09   37.20   1
  -8  -1  14  119.69   30.70   1
   8  -1 -14   49.80   23.70   1
   8   1 -13  158.88   36.00   1
   8   1 -13  153.28   35.70   1
   8   1 -13  219.48   43.50   1
  -8   1  13  224.58   40.40   1
  -8   1  13  162.98   29.90   1
  -8  -1  13  144.69   30.60   1
   8  -1 -13  182.38   37.10   1
   8  -1 -13  206.08   36.00   1
   8  -1 -13  231.88   34.40   1
  -8  -1  13  114.89   37.10   1
  -8   1  12  214.48   32.00   1
   8   1 -12  231.28   40.40   1
   8   1 -12  171.88   34.00   1
   8   1 -12  161.68   34.40   1
  -8   1  12  199.18   38.80   1
   8  -1 -12  215.58   38.90   1
   8  -1 -12  184.08   31.40   1
  -8  -1  12  184.38   38.90   1
  -8  -1  12  169.28   30.60   1
  -8   1  11  143.09   25.50   1
  -8   1  11  163.58   34.00   1
   8   1 -11  120.09   31.90   1
   8   1 -11  131.39   31.80   1
  -8  -1  11  136.69   27.10   1
  -8  -1  11   64.19   30.70   1
   8  -1 -11  173.28   30.10   1
   8  -1 -11  150.88   33.70   1
   8  -1 -11  117.19   42.40   1
   8   1 -10  417.46   49.60   1
  -8   1  10  322.37   42.40   1
  -8   1  10  464.05   54.59   1
   8   1 -10  437.06   45.70   1
   8   1 -10  381.86   48.60   1
   8  -1 -10  385.36   49.70   1
   8  -1 -10  369.46   40.20   1
  -8  -1  10  410.06   42.60   1
   8  -1 -10  368.26   45.20   1
  -8   1   9  471.65   54.49   1
  -8   1   9  432.06   44.50   1
   8   1  -9  423.06   49.99   1
   8   1  -9  388.96   50.19   1
   8  -1  -9  393.56   45.20   1
  -8  -1   9  447.86   52.19   1
  -8  -1   9  467.25   43.20   1
  -8   1   8  260.97   33.00   1
   8   1  -8  237.18   32.10   1
   8   1  -8  203.48   38.80   1
  -8   1   8  257.77   44.60   1
   8  -1  -8  268.07   31.10   1
  -8  -1   8  244.78   42.50   1
   8  -1  -8  232.88   39.30   1
   8  -1  -8  225.88   29.90   1
  -8  -1   8  219.68   31.00   1
   8   1  -7  234.38   35.60   1
  -8   1   7  257.37   39.60   1
  -8   1   7  230.58   30.30   1
   8   1  -7  273.77   34.80   1
   8   1  -7  227.98   30.70   1
  -8  -1   7  209.58   34.10   1
  -8  -1   7  199.38   28.60   1
   8  -1  -7  192.18   32.10   1
   8  -1  -7  227.88   33.80   1
  -8   1   6 2469.65  188.88   1
   8   1  -6 2493.25  192.38   1
   8   1  -6 2691.93  189.98   1
  -8   1   6 2602.44  191.08   1
   8   1  -6 2952.40  193.18   1
  -8   1   6 2568.64  195.08   1
  -8  -1   6 2527.15  193.38   1
   8  -1  -6 2489.75  190.18   1
  -8  -1   6 2679.63  190.78   1
   8  -1  -6 2448.75  192.78   1
  -8   1   5  233.08   39.40   1
   8   1  -5  245.98   35.80   1
  -8   1   5  239.78   30.20   1
   8   1  -5  214.28   36.00   1
  -8   1   5  200.78   24.90   1
   8   1  -5  222.18   26.60   1
   8  -1  -5  218.38   34.60   1
  -8  -1   5  270.77   38.00   1
  -8  -1   5  187.98   28.40   1
  -8   1   4   38.10   23.00   1
   8   1  -4   36.60   15.70   1
   8   1  -4   60.39   22.50   1
   8   1  -4    8.50   19.10   1
  -8   1   4   36.40   16.40   1
  -8   1   4   27.60   15.10   1
  -8  -1   4   36.60   16.60   1
  -8  -1   4   64.79   20.70   1
   8  -1  -4   18.90   24.00   1
   8  -1  -4   20.50   19.40   1
  -8   1   3 9307.07  673.03   1
  -8   1   3 8624.24  670.03   1
   8   1  -3 9743.72  670.53   1
   8   1  -3 9999.00  672.53   1
  -8   1   3 9225.18  671.13   1
   8   1  -3 9484.65  672.73   1
   8  -1  -3 8769.32  672.13   1
   8  -1  -3 9418.46  671.73   1
  -8  -1   3 9494.15  672.73   1
  -8   1   2 8771.72  603.14   1
   8   1  -2 8327.97  604.64   1
  -8   1   2 8137.09  604.64   1
   8   1  -2 8560.14  602.24   1
   8   1  -2 8556.34  603.64   1
   8   1  -2 8069.09  603.44   1
  -8   1   2 7896.81  602.44   1
   8  -1  -2 8267.67  604.44   1
  -8  -1   2 8517.85  604.84   1
   8  -1  -2 8782.82  603.84   1
  -8   1   1 1495.85  110.79   1
   8   1  -1 1397.26  114.09   1
   8   1  -1 1451.15  112.09   1
   8   1  -1 1442.56  109.79   1
   8   1  -1 1573.54  111.89   1
  -8   1   1 1432.96  113.39   1
  -8   1   1 1428.26  110.79   1
   8  -1  -1 1435.36  113.09   1
  -8  -1   1 1515.45  115.09   1
   8  -1  -1 1671.73  113.79   1
  -8   1   0  573.24   51.89   1
  -8   1   0  506.95   47.50   1
   8   1   0  567.44   48.70   1
   8   1   0  553.14   48.90   1
   8   1   0  559.04   46.60   1
   8  -1   0  619.04   53.29   1
   8  -1   0  540.35   48.30   1
  -8  -1   0  549.05   54.29   1
   8  -1   0  547.75   51.89   1
   8   1   1 1095.69   89.49   1
   8   1   1 1170.68   85.29   1
   8   1   1 1160.58   85.69   1
  -8   1  -1  993.10   85.69   1
  -8   1  -1 1229.48   87.99   1
   8  -1   1 1079.19   87.79   1
   8  -1   1 1140.79   88.19   1
  -8  -1  -1 1068.89   90.59   1
  -8  -1  -1 1022.30   90.49   1
   8  -1   1 1155.48   85.79   1
  -8   1  -2 1338.47  106.89   1
   8   1   2 1517.85  105.69   1
   8   1   2 1391.26  107.09   1
  -8   1  -2 1420.76  108.69   1
   8  -1   2 1448.66  106.59   1
  -8  -1  -2 1355.46  111.99   1
   8  -1   2 1348.47  108.69   1
   8   1   3  541.05   47.80   1
  -8   1  -3  509.95   51.49   1
  -8   1  -3  454.45   55.29   1
   8   1   3  568.54   45.50   1
  -8   1  -3  520.25   51.69   1
  -8  -1  -3  470.45   54.89   1
  -8  -1  -3  535.25   54.89   1
   8  -1   3  616.74   47.70   1
   8  -1   3  486.15   50.49   1
  -8   1  -4  718.83   63.39   1
   8   1   4  638.64   56.09   1
   8   1   4  728.83   60.39   1
   8   1   4  667.13   66.99   1
  -8   1  -4  689.93   62.39   1
  -8   1  -4  723.73   61.09   1
   8  -1   4  780.52   59.19   1
  -8  -1  -4  676.83   67.49   1
  -8  -1  -4  731.33   59.99   1
   8   1   5 2374.56  182.28   1
  -8   1  -5 2466.35  182.68   1
  -8   1  -5 2482.95  184.98   1
   8   1   5 2558.54  187.08   1
   8   1   5 2284.77  178.48   1
  -8  -1  -5 2493.05  187.58   1
  -8  -1  -5 2412.46  181.68   1
   8  -1   5 2619.54  181.78   1
   8  -1   5 2443.66  186.88   1
   8   1   6  823.92   74.19   1
   8   1   6 1067.79   86.59   1
   8   1   6 1025.40   79.79   1
  -8   1  -6 1010.80   83.89   1
  -8   1  -6  986.30   80.09   1
   8  -1   6 1010.40   78.49   1
   8  -1   6 1017.80   82.39   1
  -8  -1  -6  973.60   79.69   1
  -8  -1  -6 1022.90   87.79   1
  -8   1  -7  711.43   66.69   1
   8   1   7  712.53   69.79   1
  -8   1  -7  654.03   63.09   1
   8   1   7  662.73   61.39   1
   8  -1   7  667.43   64.59   1
  -8  -1  -7  714.53   68.99   1
   8  -1   7  816.52   68.29   1
  -8  -1  -7  720.13   62.09   1
   8  -1   7  680.93   59.99   1
   8   1   8   31.20   28.20   1
   8   1   8   23.20   18.00   1
  -8   1  -8   66.19   26.40   1
  -8   1  -8   28.60   24.30   1
   8  -1   8   22.30   18.40   1
   8  -1   8   16.30   26.00   1
  -8  -1  -8   36.80   27.00   1
   8  -1   8   -1.20   24.20   1
  -8  -1  -8   -0.40   27.70   1
   8   1   9   21.40   27.70   1
  -8   1  -9    1.70   26.20   1
   8   1   9   -5.40   17.00   1
  -8  -1  -9   62.99   27.30   1
   8  -1   9   24.70   27.50   1
  -8  -1  -9   17.10   28.00   1
   8  -1   9    6.40   28.70   1
   8  -1   9  -12.00   17.00   1
   8   1  10  100.39   26.60   1
   8   1  10  175.18   38.70   1
  -8   1 -10  124.19   33.30   1
  -8   1 -10  191.78   35.80   1
   8  -1  10  132.79   35.90   1
  -8  -1 -10  154.08   37.20   1
   8  -1  10  137.09   35.70   1
  -8  -1 -10  163.18   34.20   1
   8  -1  10  111.89   28.00   1
  -8   1 -11   -6.30   26.50   1
   8   1  11   19.10   20.70   1
  -8   1 -11    7.80   31.30   1
   8   1  11   20.00   35.10   1
   8  -1  11   21.70   21.40   1
  -8  -1 -11   12.40   32.10   1
   8  -1  11   35.10   31.90   1
  -8  -1 -11   19.20   28.00   1
   8  -1  11   33.80   31.40   1
  -8   1 -12   74.59   36.70   1
  -8   1 -12   69.49   28.60   1
   8   1  12   85.59   37.20   1
   8   1  12   52.89   26.10   1
  -8  -1 -12   41.90   23.10   1
   8  -1  12   72.89   36.50   1
   8  -1  12   68.69   25.30   1
  -8  -1 -12  100.89   37.80   1
   8  -1  12  106.69   37.70   1
  -8   1 -13   51.19   39.50   1
   8   1  13  -41.10   21.90   1
  -8   1 -13   24.60   32.30   1
   8   1  13   13.50   42.00   1
   8  -1  13   -2.40   39.20   1
   8  -1  13   -8.50   21.20   1
  -8  -1 -13   11.40   36.90   1
  -8  -1 -13    8.40   25.70   1
   8   1  14   95.29   28.40   1
  -8   1 -14   44.00   30.30   1
  -8   1 -14   43.80   45.10   1
   8  -1  14   87.09   49.99   1
   8  -1  14   73.99   29.30   1
  -8  -1 -14   70.69   29.10   1
  -8   2  16  385.06   48.80   1
   8   2 -16  357.96   57.59   1
   8   2 -16  328.37   68.29   1
   8   2 -16  350.66   63.09   1
   8  -2 -16  318.67   51.79   1
  -8  -2  16  372.96   50.69   1
   8   2 -15  761.02   86.19   1
   8   2 -15  789.12   78.59   1
   8   2 -15  593.14   85.39   1
  -8  -2  15  701.83   69.19   1
   8  -2 -15  749.73   70.69   1
   8  -2 -15  757.72   76.69   1
   8   2 -14  389.16   64.59   1
   8   2 -14  354.66   54.99   1
  -8   2  14  285.07   43.20   1
   8   2 -14  229.18   48.90   1
  -8   2  14  421.96   59.79   1
  -8  -2  14  212.78   48.60   1
  -8  -2  14  310.17   44.50   1
   8  -2 -14  369.26   56.49   1
   8  -2 -14  338.07   53.49   1
   8  -2 -14  320.07   46.70   1
  -8   2  13 1545.65  128.49   1
   8   2 -13 1682.53  132.89   1
  -8   2  13 1537.05  135.39   1
   8   2 -13 1551.94  134.99   1
   8  -2 -13 1726.53  128.09   1
  -8  -2  13 1648.94  128.89   1
   8  -2 -13 1576.14  128.69   1
   8  -2 -13 1754.82  135.39   1
   8   2 -12  113.79   36.20   1
   8   2 -12   82.49   34.20   1
   8   2 -12   35.00   31.50   1
  -8   2  12   81.19   28.20   1
  -8   2  12   83.89   34.50   1
   8  -2 -12  103.19   29.80   1
   8  -2 -12  121.39   32.20   1
  -8  -2  12   69.99   26.60   1
  -8  -2  12   19.50   35.20   1
   8  -2 -12  101.69   28.80   1
  -8   2  11   29.30   30.30   1
   8   2 -11   58.39   28.50   1
   8   2 -11  -27.60   28.30   1
  -8   2  11   11.60   20.10   1
   8   2 -11    9.40   31.50   1
   8  -2 -11    8.40   25.90   1
   8  -2 -11   -1.20   23.90   1
  -8  -2  11   16.60   23.00   1
  -8  -2  11  -43.80   29.20   1
   8  -2 -11   11.70   27.90   1
  -8   2  10  369.56   54.29   1
  -8   2  10  337.87   42.50   1
   8   2 -10  342.17   47.40   1
   8   2 -10  347.57   47.80   1
   8   2 -10  368.06   54.99   1
   8  -2 -10  431.66   49.10   1
  -8  -2  10  351.66   40.80   1
   8  -2 -10  346.77   55.99   1
  -8  -2  10  277.77   50.59   1
   8   2  -9  822.32   81.49   1
  -8   2   9  786.62   75.89   1
   8   2  -9  888.01   80.09   1
  -8   2   9  901.11   83.29   1
  -8   2   9  978.80   76.79   1
   8   2  -9  955.30   84.29   1
  -8  -2   9  954.40   74.19   1
  -8  -2   9  947.91   82.59   1
   8  -2  -9  949.01   81.59   1
   8   2  -8  323.37   42.70   1
  -8   2   8  186.78   31.50   1
   8   2  -8  200.98   33.00   1
  -8   2   8  284.37   40.20   1
   8   2  -8  190.88   34.70   1
  -8   2   8  212.48   31.20   1
  -8  -2   8  301.57   44.30   1
  -8  -2   8  281.17   31.60   1
   8  -2  -8  188.88   32.50   1
   8   2  -7   35.40   22.50   1
   8   2  -7  -12.10   19.30   1
  -8   2   7   31.80   21.90   1
  -8   2   7   24.20   21.60   1
   8   2  -7    8.00   28.80   1
  -8   2   7    6.30   27.10   1
  -8  -2   7   54.59   16.80   1
   8  -2  -7   38.90   23.80   1
   8  -2  -7   63.59   23.50   1
  -8  -2   7   14.70   23.50   1
  -8   2   6  114.59   23.50   1
   8   2  -6  154.78   28.00   1
  -8   2   6   98.89   29.60   1
  -8   2   6  140.09   26.80   1
   8   2  -6  140.19   25.50   1
   8   2  -6  180.48   34.90   1
  -8  -2   6  150.28   27.90   1
   8  -2  -6  141.79   28.20   1
   8  -2  -6  111.99   26.50   1
  -8  -2   6  123.69   22.20   1
  -8   2   5   97.19   26.90   1
   8   2  -5  163.48   33.70   1
  -8   2   5  183.08   25.00   1
   8   2  -5  184.08   26.70   1
   8  -2  -5  142.29   27.90   1
   8  -2  -5  114.29   25.60   1
  -8  -2   5  102.59   25.10   1
  -8  -2   5  101.69   20.70   1
   8   2  -4   75.19   22.30   1
  -8   2   4  103.09   21.20   1
   8   2  -4   79.59   24.50   1
   8   2  -4   98.59   33.80   1
  -8   2   4  105.19   26.70   1
  -8   2   4  127.79   26.70   1
  -8  -2   4   77.79   21.50   1
   8  -2  -4   60.59   22.70   1
   8  -2  -4   67.29   25.60   1
  -8   2   3  648.34   51.89   1
   8   2  -3  647.84   52.99   1
   8   2  -3  615.94   56.99   1
   8   2  -3  572.14   60.89   1
  -8   2   3  595.24   55.99   1
   8   2  -3  618.24   56.29   1
  -8   2   3  608.64   58.89   1
   8  -2  -3  715.03   57.99   1
   8  -2  -3  578.84   55.99   1
  -8  -2   3  531.35   54.89   1
  -8   2   2  807.52   64.39   1
  -8   2   2  822.52   67.89   1
   8   2  -2  825.22   68.69   1
   8   2  -2  860.21   72.39   1
   8   2  -2  777.52   64.89   1
  -8   2   2  785.12   69.49   1
   8  -2  -2  813.62   68.39   1
   8  -2  -2  837.72   70.69   1
  -8  -2   2  750.02   66.99   1
   8   2  -1  828.52   75.19   1
  -8   2   1  864.01   67.59   1
  -8   2   1  798.02   71.09   1
  -8  -2   1  894.61   72.49   1
  -8  -2   1  858.91   74.29   1
   8  -2  -1  892.51   70.99   1
   8  -2  -1  898.21   74.69   1
  -8   2   0 3421.96  252.37   1
   8   2   0 3258.87  250.47   1
  -8   2   0 3717.23  248.78   1
  -8   2   0 3590.84  250.57   1
   8   2   0 3289.17  251.17   1
   8   2   0 3440.56  252.37   1
   8  -2   0 3212.08  255.47   1
  -8  -2   0 3457.95  254.27   1
  -8  -2   0 3386.46  252.67   1
   8  -2   0 3450.15  250.27   1
   8   2   1 3237.88  245.28   1
  -8   2  -1 3397.16  247.28   1
   8   2   1 3496.65  246.38   1
  -8   2  -1 3576.14  242.98   1
   8   2   1 3279.27  246.38   1
  -8  -2  -1 2912.51  246.98   1
   8  -2   1 3630.94  244.78   1
  -8  -2  -1 3233.98  248.78   1
  -8   2  -2 4167.08  309.77   1
   8   2   2 3921.41  307.87   1
  -8   2  -2 4371.56  307.37   1
   8   2   2 4123.29  308.37   1
   8   2   2 4172.48  307.97   1
   8  -2   2 4623.34  312.57   1
   8   2   3 1867.61  146.39   1
  -8   2  -3 1893.91  146.29   1
   8   2   3 2001.00  146.69   1
   8  -2   3 2026.80  144.49   1
   8  -2   3 1924.31  149.59   1
  -8  -2  -3 1959.90  151.88   1
   8   2   4  848.52   70.19   1
   8   2   4  865.81   71.79   1
   8   2   4  769.02   69.59   1
  -8   2  -4  854.11   73.19   1
  -8  -2  -4  864.21   77.99   1
   8  -2   4  876.11   67.59   1
   8  -2   4  830.72   74.79   1
   8   2   5  540.25   55.19   1
   8   2   5  643.94   61.99   1
  -8   2  -5  614.84   58.09   1
   8   2   5  505.35   54.59   1
  -8   2  -5  634.44   56.19   1
  -8   2  -5  574.64   54.29   1
   8   2   5  560.14   52.69   1
   8  -2   5  602.04   59.89   1
  -8  -2  -5  569.14   62.59   1
   8  -2   5  582.34   51.29   1
   8   2   6  186.38   28.30   1
  -8   2  -6  258.47   39.10   1
  -8   2  -6  232.88   37.50   1
   8   2   6  196.88   35.10   1
  -8   2  -6  255.07   37.00   1
  -8  -2  -6  182.88   36.10   1
   8  -2   6  203.48   31.20   1
   8  -2   6  200.58   35.90   1
  -8   2  -7   94.39   31.10   1
   8   2   7   58.09   20.20   1
   8   2   7   50.09   29.60   1
  -8   2  -7   82.49   25.00   1
   8  -2   7   80.19   29.80   1
   8  -2   7   83.59   23.20   1
  -8  -2  -7   42.20   29.80   1
  -8  -2  -7   81.19   31.50   1
  -8   2  -8  144.49   34.60   1
   8   2   8  235.68   41.60   1
  -8   2  -8  273.77   40.30   1
   8   2   8  223.28   33.90   1
  -8  -2  -8  275.17   49.10   1
   8  -2   8  194.38   31.40   1
  -8  -2  -8  238.08   39.40   1
   8  -2   8  199.28   37.80   1
  -8   2  -9  157.98   32.50   1
  -8   2  -9  138.19   34.70   1
   8   2   9   88.69   26.60   1
   8   2   9  158.28   37.60   1
   8  -2   9   89.69   32.40   1
  -8  -2  -9  127.89   37.50   1
  -8  -2  -9   61.19   29.60   1
   8  -2   9   93.99   27.60   1
   8   2  10   90.79   39.80   1
   8   2  10   60.19   23.90   1
  -8   2 -10  128.79   35.40   1
  -8   2 -10  107.29   32.00   1
   8  -2  10   91.09   28.50   1
   8  -2  10  166.18   36.40   1
  -8  -2 -10  186.08   36.40   1
  -8  -2 -10  195.28   42.00   1
   8   2  11  389.86   61.49   1
  -8   2 -11  412.56   60.69   1
  -8   2 -11  298.57   50.09   1
   8   2  11  369.06   45.30   1
   8  -2  11  421.66   47.00   1
   8  -2  11  305.07   55.39   1
  -8  -2 -11  417.76   59.59   1
  -8  -2 -11  396.46   52.29   1
   8  -2  11  338.77   57.19   1
  -8   2 -12  211.68   49.40   1
   8   2  12  167.68   33.70   1
  -8   2 -12  181.88   36.90   1
   8  -2  12  253.17   58.69   1
  -8  -2 -12  313.97   45.90   1
   8  -2  12  173.08   36.50   1
  -8  -2 -12  368.16   58.59   1
   8  -2  12  202.68   43.70   1
  -8   2 -13  109.09   35.30   1
   8   2  13   58.69   26.40   1
  -8   2 -13    4.40   47.90   1
   8  -2  13    6.90   39.80   1
  -8  -2 -13   27.30   37.90   1
   8  -2  13   85.89   48.20   1
   8  -2  13   90.19   30.50   1
   8   3 -14   77.09   40.00   1
   8   3 -14  -58.79   60.59   1
  -8   3  14   38.50   25.80   1
   8   3 -14   37.40   48.00   1
   8  -3 -14   68.99   38.00   1
  -8  -3  14   61.89   51.09   1
  -8  -3  14  105.09   32.30   1
   8  -3 -14   37.30   31.10   1
   8   3 -13  171.48   49.00   1
  -8   3  13  173.98   48.40   1
   8   3 -13   73.29   43.90   1
   8   3 -13  155.48   40.40   1
  -8   3  13  184.68   35.20   1
  -8  -3  13  158.68   35.70   1
   8  -3 -13  117.19   32.90   1
   8  -3 -13  130.99   46.70   1
  -8  -3  13   68.89   44.80   1
   8  -3 -13  237.38   39.80   1
   8   3 -12  -16.50   35.30   1
   8   3 -12    6.30   41.50   1
  -8   3  12   23.60   34.50   1
   8   3 -12   33.30   34.10   1
  -8   3  12   48.60   26.60   1
  -8  -3  12   -8.50   29.20   1
   8  -3 -12   16.40   34.10   1
   8  -3 -12   46.30   30.40   1
  -8  -3  12   17.90   40.40   1
   8   3 -11  216.68   41.80   1
  -8   3  11  253.47   39.30   1
   8   3 -11  208.28   42.40   1
   8   3 -11  255.47   49.40   1
  -8   3  11  106.59   36.50   1
  -8   3  11  290.67   47.50   1
   8  -3 -11  281.27   49.90   1
  -8  -3  11  173.08   36.20   1
   8  -3 -11  189.48   36.80   1
  -8   3  10  514.95   65.99   1
  -8   3  10  471.45   55.99   1
   8   3 -10  488.65   57.99   1
  -8   3  10  510.25   51.89   1
   8   3 -10  426.06   57.39   1
   8   3 -10  453.65   67.99   1
   8  -3 -10  511.85   54.69   1
   8  -3 -10  595.34   60.79   1
  -8  -3  10  315.37   64.09   1
  -8  -3  10  530.35   52.39   1
   8   3  -9   56.59   32.70   1
   8   3  -9   -2.80   32.80   1
  -8   3   9   47.70   30.00   1
  -8   3   9   71.59   26.90   1
   8   3  -9   43.20   28.50   1
  -8   3   9  123.19   36.80   1
   8  -3  -9   70.39   30.30   1
  -8  -3   9   24.10   29.10   1
   8  -3  -9  109.49   34.00   1
  -8  -3   9   36.30   22.50   1
  -8   3   8  104.19   26.90   1
   8   3  -8  111.49   32.90   1
   8   3  -8  149.29   39.60   1
   8   3  -8   92.29   27.70   1
  -8   3   8  151.18   35.60   1
  -8   3   8   61.19   26.30   1
   8  -3  -8  113.19   32.40   1
  -8  -3   8   79.49   31.00   1
   8  -3  -8  139.39   33.40   1
  -8  -3   8  107.79   22.60   1
   8   3  -7   53.59   28.90   1
  -8   3   7   60.79   26.40   1
   8   3  -7   32.60   23.40   1
  -8   3   7   37.50   23.20   1
  -8   3   7   43.30   30.30   1
   8   3  -7    7.30   31.10   1
  -8  -3   7   64.89   19.90   1
   8  -3  -7   28.80   27.60   1
  -8  -3   7  -14.40   25.30   1
   8  -3  -7   68.49   29.60   1
  -8   3   6   -8.90   29.60   1
   8   3  -6   14.90   26.00   1
   8   3  -6   -4.70   30.20   1
  -8   3   6   16.80   22.70   1
   8   3  -6    7.90   22.10   1
  -8   3   6   42.50   25.50   1
  -8  -3   6   34.40   22.50   1
   8  -3  -6   24.30   25.20   1
  -8  -3   6  -54.69   24.40   1
   8  -3  -6   51.59   26.90   1
  -8   3   5   62.09   21.80   1
   8   3  -5   45.70   32.70   1
  -8   3   5   26.80   27.20   1
   8   3  -5   76.79   28.50   1
  -8   3   5   79.49   30.10   1
  -8  -3   5  -19.30   23.60   1
   8  -3  -5   72.79   27.70   1
   8  -3  -5   24.60   22.90   1
   8   3  -4   14.60   25.00   1
  -8   3   4   15.40   19.60   1
  -8   3   4   40.20   26.90   1
   8   3  -4   29.80   30.50   1
  -8   3   4   27.60   27.50   1
  -8  -3   4   19.80   21.80   1
   8  -3  -4   10.50   21.00   1
   8  -3  -4   18.60   25.80   1
   8   3  -3  135.99   32.40   1
   8   3  -3  127.39   32.00   1
  -8   3   3  149.99   33.20   1
  -8   3   3   87.99   25.50   1
  -8   3   3   57.39   29.00   1
   8   3  -3  121.69   26.30   1
   8  -3  -3  110.29   24.80   1
  -8  -3   3   87.59   26.80   1
  -8  -3   3   90.69   25.80   1
   8  -3  -3  138.39   30.40   1
   8   3  -2  183.48   36.60   1
   8   3  -2  189.28   38.40   1
  -8   3   2  184.98   28.20   1
   8   3  -2  285.27   31.50   1
  -8   3   2  236.28   38.00   1
  -8  -3   2  250.07   41.50   1
   8  -3  -2  237.68   38.50   1
  -8  -3   2  241.38   37.30   1
   8  -3  -2  174.58   30.30   1
  -8   3   1  418.86   42.60   1
  -8   3   1  441.86   50.19   1
   8   3  -1  408.46   55.89   1
   8   3  -1  537.25   44.90   1
   8   3  -1  431.76   49.60   1
  -8  -3   1  419.36   50.59   1
  -8  -3   1  496.15   51.39   1
   8  -3  -1  470.85   55.79   1
   8   3   0  529.05   51.39   1
  -8   3   0  675.03   59.19   1
  -8   3   0  542.65   47.90   1
   8   3   0  516.75   55.49   1
   8   3   0  462.65   61.29   1
   8  -3   0  740.13   63.99   1
  -8  -3   0  514.35   56.79   1
   8   3   1   19.00   26.20   1
   8   3   1  -14.70   22.80   1
   8   3   1  -14.90   28.00   1
  -8   3  -1   37.60   27.60   1
  -8  -3  -1  -34.00   26.10   1
   8  -3   1   48.40   27.70   1
  -8  -3  -1   27.10   24.50   1
  -8   3  -2  320.37   44.10   1
   8   3   2  268.77   35.10   1
   8   3   2  258.07   41.20   1
   8   3   2  315.47   44.30   1
  -8  -3  -2  204.08   40.70   1
   8  -3   2  299.97   48.30   1
  -8   3  -3   63.09   29.90   1
   8   3   3   71.79   33.00   1
   8   3   3   92.19   28.20   1
   8   3   3   73.99   21.00   1
   8  -3   3   73.99   30.50   1
  -8   3  -4  127.69   32.40   1
   8   3   4   83.89   23.50   1
   8   3   4  127.39   32.90   1
   8   3   4   78.99   26.60   1
  -8  -3  -4   87.89   30.70   1
   8  -3   4  108.29   33.60   1
   8   3   5  169.08   35.20   1
   8   3   5  174.18   29.00   1
  -8   3  -5  221.38   40.40   1
   8   3   5  226.48   39.00   1
  -8  -3  -5  201.78   39.60   1
   8  -3   5  240.48   41.20   1
   8   3   6   73.49   30.70   1
   8   3   6  125.79   34.30   1
   8   3   6   64.29   26.20   1
  -8   3  -6   44.10   29.70   1
   8  -3   6   93.39   34.00   1
  -8  -3  -6   88.29   33.10   1
  -8  -3  -6  155.08   33.70   1
   8   3   7  286.07   38.10   1
  -8   3  -7  253.57   46.50   1
   8   3   7  218.28   40.20   1
   8   3   7  375.56   53.09   1
  -8  -3  -7  322.37   49.20   1
   8  -3   7  296.77   45.40   1
  -8  -3  -7  287.97   48.10   1
   8   3   8  105.19   28.30   1
  -8   3  -8  130.59   40.70   1
   8   3   8  174.88   39.80   1
   8  -3   8  148.09   37.50   1
  -8  -3  -8   91.19   35.90   1
   8   3   9   34.70   37.60   1
   8   3   9   39.80   23.20   1
  -8   3  -9  117.79   36.70   1
  -8  -3  -9   99.49   38.70   1
   8  -3   9   62.89   35.00   1
   8  -3   9   12.10   42.20   1
  -8  -3  -9   65.09   34.50   1
  -8   3 -10  196.38   45.40   1
   8   3  10  207.38   52.69   1
   8   3  10  254.07   40.70   1
   8  -3  10  242.78   45.00   1
  -8  -3 -10  191.58   44.20   1
   8  -3  10  330.67   70.99   1
  -8  -3 -10  202.18   44.00   1
   8   3  11   69.89   26.40   1
  -8   3 -11 -112.29   40.20   1
  -8   3 -11   28.30   35.80   1
  -8  -3 -11   71.79   36.70   1
   8  -3  11   19.80   39.50   1
  -8   4  11    8.60   32.20   1
   8   4 -11    9.30   43.60   1
   8   4 -11  -27.20   36.40   1
  -8   4  11  127.59   47.70   1
  -8   4  11   -3.40   24.10   1
   8  -4 -11   19.60   36.30   1
   8  -4 -11   89.79   46.80   1
  -8   4  10  197.88   37.40   1
   8   4 -10  133.59   47.50   1
  -8   4  10  206.08   42.60   1
   8   4 -10  194.78   43.30   1
  -8   4  10  356.46   62.99   1
   8  -4 -10  177.58   49.70   1
   8  -4 -10  282.47   46.80   1
   8   4  -9   44.40   42.70   1
  -8   4   9    7.80   25.50   1
  -8   4   9   84.09   39.00   1
  -8   4   9    1.80   28.20   1
   8   4  -9   13.40   34.80   1
   8  -4  -9   14.50   33.90   1
   8  -4  -9   22.60   36.80   1
  -8   4   8  156.88   41.80   1
  -8   4   8  209.88   36.70   1
   8   4  -8  123.99   38.00   1
   8   4  -8  116.79   44.30   1
  -8   4   8  155.58   37.30   1
   8  -4  -8  110.69   39.10   1
   8  -4  -8  195.68   42.50   1
  -8   4   7   98.09   39.10   1
   8   4  -7    1.90   37.00   1
   8   4  -7    5.00   31.20   1
  -8   4   7   68.79   26.90   1
  -8   4   7  -19.70   26.90   1
  -8  -4   7   37.50   28.90   1
   8  -4  -7   10.70   30.80   1
   8  -4  -7   43.70   35.40   1
   8   4  -6    7.50   28.90   1
  -8   4   6   -0.50   27.80   1
   8   4  -6   67.29   37.90   1
  -8   4   6   59.39   36.30   1
  -8   4   6   77.49   26.60   1
   8  -4  -6    8.70   30.00   1
  -8  -4   6   16.70   23.60   1
   8  -4  -6  -24.20   32.80   1
   8   4  -5  167.38   37.30   1
  -8   4   5   52.29   34.40   1
   8   4  -5  123.79   42.80   1
  -8   4   5  153.88   29.40   1
  -8   4   5  177.58   39.60   1
   8  -4  -5   88.89   33.70   1
  -8  -4   5  183.48   39.30   1
   8   4  -4  219.88   45.40   1
  -8   4   4  227.78   32.80   1
  -8   4   4   69.69   31.50   1
  -8   4   4  227.48   42.50   1
   8   4  -4  135.99   37.10   1
  -8  -4   4  169.18   34.00   1
   8  -4  -4  162.68   38.20   1
   8   4  -3  318.37   53.29   1
   8   4  -3  436.66   60.39   1
  -8   4   3  309.27   47.10   1
  -8   4   3  316.77   39.10   1
  -8   4   3  337.07   49.99   1
   8  -4  -3  411.96   52.49   1
  -8  -4   3  310.37   50.69   1
   8   4  -2  739.63   57.79   1
  -8   4   2  590.04   67.39   1
   8   4  -2  700.43   67.89   1
   8   4  -2  668.53   71.79   1
  -8   4   2  525.55   53.49   1
  -8  -4   2  606.34   64.79   1
  -8  -4   2  641.94   67.49   1
   8  -4  -2  435.56   65.39   1
   8   4  -1  604.14   74.39   1
   8   4  -1  735.93   64.09   1
  -8   4   1  736.53   70.39   1
   8   4  -1  648.74   71.09   1
   8  -4  -1  896.21   77.09   1
  -8  -4   1  708.53   72.99   1
  -8  -4   1  637.04   70.99   1
   8   4   0  234.68   36.70   1
  -8   4   0  372.36   48.70   1
   8   4   0  192.38   41.60   1
   8  -4   0  427.46   54.89   1
  -8  -4   0  242.78   42.50   1
  -8  -4   0  186.18   40.70   1
   8   4   1  125.39   30.10   1
  -8   4  -1  138.29   36.80   1
   8   4   1  155.88   36.20   1
  -8  -4  -1   57.19   34.30   1
  -8  -4  -1  152.28   38.20   1
   8  -4   1  201.28   38.90   1
  -8   4  -2  210.78   43.70   1
   8   4   2  277.17   42.00   1
   8   4   2  157.28   32.10   1
   8  -4   2  163.28   39.20   1
  -8  -4  -2  222.18   42.40   1
  -8  -4  -2  158.58   39.20   1
  -8   4  -3   17.00   28.70   1
   8   4   3   33.70   29.70   1
   8   4   3    1.00   23.20   1
   8  -4   3  -27.50   29.80   1
  -8  -4  -3   17.00   38.00   1
  -8  -4  -3   14.50   32.00   1
   8   4   4   16.20   21.20   1
  -8   4  -4   19.20   32.70   1
   8   4   4   61.69   29.80   1
   8  -4   4   28.20   32.80   1
  -8  -4  -4   78.79   37.00   1
  -8  -4  -4  -36.10   39.50   1
  -8   4  -5   92.39   36.50   1
   8   4   5  101.69   31.20   1
   8   4   5  116.69   29.10   1
  -8  -4  -5   95.89   41.70   1
   8  -4   5  133.99   39.60   1
  -8  -4  -5  130.69   40.40   1
   8   4   6  172.68   43.70   1
   8   4   6  211.68   42.80   1
   8   4   6  183.68   32.00   1
  -8   4  -6  211.18   42.70   1
  -8  -4  -6  213.98   47.10   1
   8  -4   6  172.28   40.30   1
  -8  -4  -6   66.49   44.10   1
   8   4   7  103.69   27.40   1
   8   4   7  101.99   63.59   1
  -8   4  -7   99.59   64.89   1
   8   4   7   43.40   41.60   1
  -8  -4  -7  116.49   39.40   1
   8  -4   7  141.89   40.50   1
   8   4   8  145.29   46.50   1
   8   4   8  187.68   34.70   1
  -8   4  -8  143.09   40.50   1
   8   4   8  148.69   41.10   1
  -8  -4  -8  129.69   43.80   1
   8   5  -4  310.07   69.19   1
  -8   5   4  644.24   66.29   1
   8  -5  -4  511.25   70.39   1
  -8   5   3  648.04   84.59   1
  -8  -5   2  115.79   50.89   1
   8  -5  -2  130.09   52.99   1
   8   5  -1  303.27   69.49   1
  -8   5   1  277.87   57.29   1
  -8  -5   1  425.76   65.39   1
   8  -5  -1  406.56   60.09   1
  -8  -5   1  320.27   65.09   1
  -8  -5   1  369.66   65.79   1
   8   5   0  140.49   39.10   1
  -8   5   0  267.47   50.49   1
  -8  -5   0  189.78   52.89   1
   8  -5   0  238.38   47.80   1
  -8  -5   0  128.39   50.49   1
   8   5   1    8.30   34.30   1
  -8   5  -1   99.09   39.40   1
   8   5   1   35.50   34.50   1
   8  -5   1  136.59   42.10   1
  -8  -5  -1   -0.70   42.70   1
  -8  -5  -1   36.00   47.20   1
  -8  -5  -1   85.19   42.50   1
   8   5   2   30.10   33.50   1
  -8  -5  -2  -75.79   41.40   1
   8  -5   2    8.80   36.60   1
  -8  -5  -2   78.69   45.50   1
  -8  -5  -2   30.80   46.30   1
  -9   0  17   -3.10   26.80   1
   9   0 -17   -3.70   45.00   1
   9   0 -17   30.90   30.30   1
  -9   0  16   15.40   23.00   1
   9   0 -16  -16.70   27.70   1
   9   0 -16   22.30   34.60   1
  -9   0  16    9.30   36.50   1
   9   0 -16  -69.89   38.10   1
  -9   0  15   40.00   35.80   1
   9   0 -15   36.10   34.70   1
   9   0 -15   23.80   34.70   1
   9   0 -15   35.90   24.80   1
  -9   0  15   -7.20   22.10   1
   9   0 -14   33.50   22.50   1
  -9   0  14   24.30   23.60   1
   9   0 -14   35.50   31.60   1
   9   0 -14    1.00   31.20   1
  -9   0  14  -10.70   32.40   1
  -9   0  13   29.70   32.20   1
   9   0 -13   54.49   22.10   1
  -9   0  13    4.20   22.00   1
   9   0 -13   22.40   30.40   1
   9   0 -13   32.60   29.70   1
  -9   0  12   -0.90   30.40   1
  -9   0  12   22.60   22.70   1
   9   0 -12   17.60   22.60   1
   9   0 -12   45.50   27.00   1
   9   0 -12   12.90   25.80   1
   9   0 -11   26.30   19.30   1
  -9   0  11   45.30   23.70   1
   9   0 -11   42.40   27.10   1
  -9   0  11   28.40   28.80   1
   9   0 -11   -0.80   26.50   1
   9   0 -10   -9.10   17.00   1
  -9   0  10   26.80   20.00   1
   9   0 -10   -5.40   21.60   1
   9   0 -10    0.80   22.60   1
  -9   0  10   -1.10   25.80   1
   9   0  -9  -14.20   21.50   1
   9   0  -9   20.70   24.80   1
  -9   0   9   13.30   24.60   1
   9   0  -9  -12.30   15.10   1
  -9   0   9   33.90   19.30   1
  -9   0   8   53.59   25.40   1
   9   0  -8   15.20   21.90   1
   9   0  -8    6.40   14.50   1
  -9   0   8   20.20   18.90   1
   9   0  -8   29.10   22.40   1
  -9   0   7   22.70   16.10   1
   9   0  -7    3.80   20.10   1
  -9   0   7    1.90   23.50   1
   9   0  -7    0.90   12.20   1
   9   0  -7  -27.90   20.40   1
   9   0  -6  147.19   16.80   1
  -9   0   6   89.69   20.50   1
   9   0  -6  127.29   24.60   1
   9   0  -6   79.49   23.50   1
  -9   0   6   94.29   26.80   1
   9   0  -5   11.50    8.30   1
   9   0  -5   14.50   19.80   1
  -9   0   5   17.50   23.40   1
  -9   0   5  -12.10   15.40   1
   9   0  -5   35.60   19.30   1
  -9   0   4  114.59   26.30   1
   9   0  -4  103.59   24.60   1
  -9   0   3   80.69   19.90   1
  -9   0   3  127.09   25.10   1
   9   0  -3   97.59   24.50   1
   9   0  -3  128.49   21.80   1
   9   0  -2   16.70   20.00   1
   9   0  -2   32.20   18.60   1
  -9   0   2    2.10    6.60   1
   9   0  -2   -8.00   17.80   1
  -9   0   2   14.30   20.10   1
  -9   0   1  670.83   59.79   1
   9   0  -1  600.94   59.19   1
  -9   0   1  688.73   49.70   1
   9   0  -1  629.24   55.59   1
   9   0  -1  655.33   55.89   1
   9   0   0  147.29   26.80   1
   9   0   0  144.19   21.90   1
  -9   0   0  114.89   25.70   1
   9   0   0  142.79   24.50   1
  -9   0   0  198.18   20.60   1
   9   0   1   15.00   17.90   1
  -9   0  -1   -4.70   20.00   1
  -9   0  -1   10.90   13.50   1
   9   0   1   20.60   18.80   1
  -9   0  -2    7.60   22.30   1
  -9   0  -2  -13.60   13.30   1
  -9   0  -2  -19.20   21.90   1
   9   0   2  -43.70   18.30   1
   9   0   2   12.40   17.40   1
   9   0   3   22.90   17.60   1
  -9   0  -3  -21.60   21.80   1
  -9   0  -3   12.90   22.50   1
  -9   0  -3   41.60   16.30   1
   9   0   3   15.70   18.80   1
   9   0   4    6.10   15.80   1
  -9   0  -4   12.70   22.90   1
  -9   0  -4    3.90   16.70   1
   9   0   4   38.90   18.20   1
  -9   0  -5   65.79   26.10   1
  -9   0  -5   41.30   17.70   1
   9   0   5   64.89   19.90   1
   9   0   5   56.59   19.20   1
   9   0   6   67.69   18.90   1
   9   0   6   82.29   20.40   1
  -9   0  -6   58.99   20.50   1
   9   0   6   62.39   26.00   1
  -9   0  -6   19.70   26.50   1
  -9   0  -7   16.10   21.10   1
   9   0   7   -2.30   19.60   1
   9   0   7    8.10   19.60   1
   9   0   7    6.40   25.30   1
  -9   0  -7   -6.80   28.70   1
  -9   0  -8   23.40   27.00   1
   9   0   8  -15.60   23.30   1
   9   0   8  -14.10   16.90   1
  -9   0  -8    7.80   22.40   1
   9   0   8    5.90   20.80   1
  -9   0  -9   11.20   27.10   1
  -9   0  -9   -6.10   23.20   1
   9   0   9  -17.30   21.70   1
   9   0   9  -15.70   26.30   1
   9   0   9   -8.10   18.10   1
  -9   0 -10   59.49   28.20   1
   9   0  10   15.00   19.60   1
   9   0  10   26.80   29.80   1
   9   0  10   21.10   31.70   1
  -9   0 -10   52.09   33.20   1
  -9   0 -11   54.49   28.60   1
  -9   0 -11   99.79   34.60   1
   9   0  11   59.59   35.20   1
   9   0  11   80.49   27.90   1
  -9   0 -12  -30.70   23.50   1
  -9   0 -12   41.60   33.80   1
   9   0  12  -20.00   20.10   1
   9   0  12  -23.90   36.10   1
   9   0  13   23.20   43.40   1
  -9   0 -13   10.40   25.60   1
   9   0  13   -1.00   22.50   1
  -9   0 -13   56.99   38.00   1
   9   0  14   11.90   24.30   1
  -9   0 -14   28.10   30.00   1
  -9   0 -14    6.40   41.60   1
   9   1 -17  -23.90   44.10   1
  -9   1  17  -12.20   23.30   1
   9   1 -17  -16.60   33.40   1
   9  -1 -17   -4.20   43.20   1
   9  -1 -17  -55.39   29.40   1
  -9   1  16  -31.40   30.30   1
   9   1 -16    1.20   31.60   1
   9   1 -16   43.00   42.40   1
   9   1 -16  -20.80   42.90   1
   9  -1 -16  -10.30   38.40   1
  -9  -1  16   59.19   40.00   1
   9  -1 -16   -3.80   25.60   1
  -9  -1  16  -33.90   24.60   1
  -9   1  15   77.69   36.30   1
  -9   1  15    4.90   22.20   1
   9   1 -15   -0.10   30.00   1
   9   1 -15    4.90   36.60   1
   9   1 -15   19.50   38.50   1
  -9  -1  15  -26.10   22.50   1
   9  -1 -15   30.70   23.80   1
  -9  -1  15   -1.80   37.10   1
   9  -1 -15   33.70   34.10   1
   9  -1 -15   27.00   40.20   1
   9   1 -14  -22.60   31.70   1
   9   1 -14   11.60   37.10   1
  -9   1  14   15.30   23.20   1
  -9   1  14  -12.40   33.20   1
   9   1 -14   49.60   30.00   1
   9  -1 -14   19.10   36.60   1
  -9  -1  14   13.80   35.30   1
   9  -1 -14    3.90   22.00   1
  -9  -1  14   36.50   27.90   1
   9  -1 -14    3.10   32.30   1
  -9   1  13   24.30   23.30   1
  -9   1  13   22.30   34.30   1
   9   1 -13   18.10   35.10   1
   9   1 -13   33.50   28.60   1
   9   1 -13   16.20   30.60   1
  -9  -1  13    9.60   34.30   1
   9  -1 -13    1.00   28.90   1
   9  -1 -13   40.20   25.90   1
   9  -1 -13   34.20   30.30   1
  -9  -1  13    2.80   22.60   1
  -9   1  12   40.30   22.80   1
   9   1 -12   45.20   30.30   1
  -9   1  12   22.90   32.10   1
   9   1 -12   28.90   24.00   1
   9   1 -12   12.10   29.00   1
   9  -1 -12   64.59   26.30   1
  -9  -1  12  -25.20   30.70   1
   9  -1 -12   13.50   23.30   1
   9  -1 -12   29.50   28.50   1
  -9  -1  12    8.90   21.90   1
  -9   1  11   16.40   28.70   1
   9   1 -11    3.80   24.60   1
   9   1 -11  -15.70   25.60   1
   9   1 -11   52.29   25.60   1
  -9   1  11    9.70   20.10   1
  -9  -1  11   -0.40   29.30   1
   9  -1 -11   29.70   24.50   1
   9  -1 -11  -43.70   21.90   1
   9  -1 -11  -29.20   20.60   1
  -9  -1  11   22.60   23.40   1
  -9   1  10   52.29   23.10   1
   9   1 -10   35.00   26.00   1
   9   1 -10   15.90   26.80   1
   9   1 -10   35.90   23.60   1
  -9   1  10   33.70   28.40   1
  -9  -1  10   10.80   26.90   1
   9  -1 -10   25.00   24.60   1
  -9  -1  10   59.29   21.00   1
   9  -1 -10   81.39   21.00   1
   9   1  -9   72.29   26.80   1
  -9   1   9   13.20   27.50   1
   9   1  -9   35.80   24.00   1
  -9   1   9   24.60   20.80   1
   9   1  -9   47.70   23.70   1
  -9  -1   9   63.39   28.60   1
   9  -1  -9   82.89   20.10   1
  -9  -1   9   50.39   20.00   1
   9  -1  -9   24.30   22.60   1
   9  -1  -9   90.59   23.30   1
  -9   1   8   31.20   32.80   1
   9   1  -8   17.70   21.70   1
  -9   1   8   17.50   18.30   1
   9   1  -8   16.30   22.60   1
   9   1  -8   19.80   19.60   1
   9  -1  -8    6.00   19.70   1
   9  -1  -8   25.50   21.00   1
  -9  -1   8    5.30   24.20   1
  -9  -1   8   11.90   17.30   1
   9  -1  -8   40.50   17.10   1
  -9   1   7   15.30   16.40   1
   9   1  -7   17.90   20.50   1
   9   1  -7   -7.30   17.10   1
  -9   1   7    8.80   24.40   1
   9  -1  -7    3.90   19.90   1
   9  -1  -7   12.10   20.20   1
  -9  -1   7   -9.60   24.20   1
  -9  -1   7   13.30   15.80   1
  -9   1   6   10.90   15.20   1
   9   1  -6    1.70   21.30   1
  -9   1   6   45.10   24.10   1
   9   1  -6   19.80   20.70   1
   9   1  -6   12.90   15.70   1
  -9   1   6   21.00   15.70   1
  -9  -1   6    7.20   23.50   1
  -9  -1   6   14.60   16.20   1
   9  -1  -6   22.20   20.00   1
  -9   1   5   35.00   14.60   1
   9   1  -5   43.20   23.90   1
  -9   1   5   41.10   20.30   1
  -9   1   5   40.50   25.00   1
   9   1  -5   25.80   15.30   1
   9   1  -5   55.89   21.40   1
  -9  -1   5    2.20   17.50   1
  -9  -1   5   44.10   22.40   1
   9  -1  -5   19.30   20.70   1
   9  -1  -5   28.60   21.00   1
   9   1  -4    9.70   14.10   1
  -9   1   4   25.50   15.80   1
   9   1  -4   10.70   19.50   1
   9   1  -4    8.10   21.40   1
  -9   1   4   34.30   21.90   1
  -9   1   4   -0.50   13.00   1
  -9  -1   4    6.00   17.00   1
   9  -1  -4   25.20   22.30   1
  -9  -1   4    1.70   19.70   1
   9  -1  -4   -5.70   19.30   1
   9   1  -3  100.29   23.20   1
   9   1  -3  101.89   22.80   1
   9   1  -3  110.19   17.80   1
  -9   1   3   76.39   18.00   1
  -9   1   3   82.99   18.90   1
  -9   1   3   78.99   24.30   1
   9   1  -3  104.29   23.20   1
  -9  -1   3   81.89   23.60   1
   9  -1  -3  159.78   25.90   1
   9  -1  -3   86.09   23.70   1
   9   1  -2   53.89   15.90   1
  -9   1   2   91.69   18.50   1
   9   1  -2   82.79   21.90   1
  -9   1   2   83.29   22.70   1
  -9   1   2   76.59   17.40   1
   9   1  -2   78.49   24.20   1
   9   1  -2   58.59   18.70   1
   9  -1  -2   90.79   22.40   1
  -9  -1   2   81.49   23.30   1
   9  -1  -2   98.19   25.60   1
  -9   1   1   64.29   18.20   1
   9   1  -1   52.99   19.80   1
   9   1  -1   69.19   22.90   1
  -9   1   1   38.00   20.20   1
   9   1  -1   55.99   15.60   1
   9  -1  -1  102.99   24.70   1
   9  -1  -1   59.29   21.20   1
  -9  -1   1   58.29   22.90   1
   9   1   0  159.28   23.80   1
  -9   1   0  164.68   26.50   1
  -9   1   0  179.98   27.50   1
   9   1   0  150.98   24.50   1
   9   1   0  169.28   25.20   1
   9  -1   0  158.38   25.20   1
  -9  -1   0  167.98   29.60   1
   9  -1   0  173.78   26.10   1
   9  -1   0  165.58   28.70   1
   9   1   1   64.09   19.30   1
   9   1   1   51.19   20.30   1
  -9   1  -1   35.70   18.00   1
  -9   1  -1   21.70   19.20   1
  -9  -1  -1   16.60   23.60   1
   9  -1   1   16.90   18.40   1
   9  -1   1   63.09   23.90   1
  -9  -1  -1   35.90   24.90   1
   9   1   2   95.49   22.70   1
  -9   1  -2   92.89   23.20   1
   9   1   2   88.49   19.70   1
  -9   1  -2   59.89   19.90   1
  -9  -1  -2   91.79   26.50   1
  -9  -1  -2   88.89   20.50   1
   9  -1   2  110.79   22.10   1
   9  -1   2   96.79   25.10   1
  -9  -1  -2  100.79   28.20   1
  -9   1  -3   -9.30   20.80   1
  -9   1  -3    4.80   19.60   1
   9   1   3   -2.10   16.50   1
   9   1   3   33.50   17.80   1
  -9   1  -3   59.49   22.30   1
   9  -1   3   37.10   22.00   1
   9  -1   3   12.10   19.50   1
  -9  -1  -3   40.70   25.40   1
  -9  -1  -3   53.69   20.10   1
   9   1   4   63.69   18.20   1
  -9   1  -4   68.59   22.90   1
  -9   1  -4  132.99   25.70   1
  -9   1  -4   61.39   23.40   1
   9   1   4   30.70   18.80   1
  -9  -1  -4   27.80   20.00   1
  -9  -1  -4   49.30   25.70   1
   9  -1   4   62.09   24.40   1
   9  -1   4  109.89   21.90   1
   9   1   5  118.49   26.60   1
   9   1   5  132.09   31.70   1
   9   1   5  109.69   19.70   1
  -9   1  -5  126.79   27.50   1
   9  -1   5  145.49   26.90   1
   9  -1   5  197.88   27.20   1
  -9  -1  -5  105.19   31.60   1
  -9   1  -6   24.40   21.70   1
  -9   1  -6   33.00   29.80   1
   9   1   6  -20.20   15.90   1
   9   1   6   -3.10   15.80   1
   9   1   6   24.20   24.90   1
  -9  -1  -6   -7.60   26.40   1
   9  -1   6  -29.50   23.40   1
  -9  -1  -6   -5.80   21.90   1
   9  -1   6   -2.70   17.50   1
   9   1   7   19.30   24.00   1
  -9   1  -7  -37.90   22.50   1
  -9   1  -7    7.50   22.90   1
   9   1   7   22.60   17.30   1
  -9  -1  -7    7.40   24.50   1
   9  -1   7   27.20   18.70   1
   9  -1   7  -24.90   24.90   1
  -9  -1  -7   30.40   26.20   1
  -9   1  -8   -4.70   24.50   1
   9   1   8  -24.30   27.20   1
   9   1   8   17.40   19.20   1
  -9   1  -8  -14.60   22.80   1
   9  -1   8    7.10   20.60   1
   9  -1   8  -41.20   24.40   1
  -9  -1  -8   20.80   26.70   1
  -9  -1  -8    1.70   25.30   1
   9  -1   8   21.20   27.00   1
   9   1   9    4.40   18.70   1
  -9   1  -9    2.30   23.50   1
   9   1   9   -2.40   28.90   1
  -9   1  -9   82.39   30.30   1
   9  -1   9   -3.20   29.30   1
  -9  -1  -9  -35.40   24.30   1
   9  -1   9   17.40   22.80   1
  -9  -1  -9   -0.80   27.00   1
   9  -1   9  -11.10   28.50   1
   9   1  10   -6.40   31.60   1
   9   1  10   -4.40   20.90   1
  -9   1 -10  -31.60   22.30   1
  -9   1 -10   55.19   30.10   1
  -9  -1 -10  -24.00   28.00   1
  -9  -1 -10  -12.00   26.60   1
   9  -1  10   11.10   20.70   1
   9  -1  10   -5.80   30.80   1
   9  -1  10   23.20   31.70   1
   9   1  11   24.40   22.80   1
  -9   1 -11   33.20   31.80   1
  -9   1 -11   31.50   26.00   1
   9   1  11  -14.40   33.10   1
   9  -1  11  -27.20   31.00   1
   9  -1  11  -15.30   20.20   1
   9  -1  11   58.49   34.90   1
  -9  -1 -11   18.70   31.40   1
  -9  -1 -11   -8.50   21.70   1
   9   1  12   15.30   37.00   1
  -9   1 -12  -31.90   28.20   1
  -9   1 -12   66.79   35.90   1
   9   1  12   23.90   25.20   1
   9  -1  12    0.30   23.30   1
  -9  -1 -12   24.50   32.60   1
   9  -1  12   61.69   40.20   1
   9  -1  12  -97.19   41.60   1
  -9  -1 -12   -7.90   23.00   1
   9   1  13    5.90   29.10   1
  -9   1 -13  138.79   45.10   1
   9  -1  13   99.49   42.30   1
  -9  -1 -13  131.09   61.99   1
   9  -1  13   21.10   24.00   1
   9   1  14   18.10   27.20   1
  -9   1 -14  -39.30   43.10   1
  -9   1 -14   32.60   32.90   1
   9  -1  14    7.20   25.00   1
   9  -1  14   62.19   54.99   1
  -9  -1 -14  -17.90   26.30   1
   9   2 -16   17.80   38.00   1
  -9   2  16    6.50   27.70   1
   9   2 -16   81.19   47.60   1
   9  -2 -16   42.40   33.30   1
   9  -2 -16   46.30   49.70   1
  -9  -2  16   49.99   46.60   1
   9   2 -15   78.99   37.00   1
   9   2 -15   79.39   43.50   1
   9   2 -15   39.20   44.80   1
  -9   2  15   64.99   28.20   1
   9  -2 -15  199.48   36.60   1
  -9  -2  15   82.79   29.70   1
   9  -2 -15   74.59   39.70   1
  -9  -2  15   17.90   43.40   1
   9   2 -14   74.29   39.80   1
  -9   2  14   52.19   35.50   1
   9   2 -14   67.79   38.40   1
  -9   2  14   56.99   26.30   1
   9   2 -14  106.79   37.30   1
   9  -2 -14   62.09   33.90   1
  -9  -2  14   17.00   28.80   1
   9  -2 -14  170.98   34.10   1
  -9  -2  14   -4.90   39.20   1
   9  -2 -14   37.60   36.70   1
  -9   2  13  267.17   48.20   1
   9   2 -13  231.48   44.10   1
   9   2 -13   85.69   37.90   1
   9   2 -13  137.09   43.50   1
  -9   2  13  211.08   38.00   1
   9  -2 -13  270.67   37.80   1
  -9  -2  13  148.99   34.40   1
   9  -2 -13  335.77   47.00   1
  -9  -2  13  132.69   44.60   1
   9   2 -12  -67.69   28.10   1
   9   2 -12    4.10   30.40   1
   9   2 -12  -29.30   34.10   1
  -9   2  12    0.80   30.20   1
  -9   2  12  -14.20   21.00   1
   9  -2 -12   -4.90   26.30   1
   9  -2 -12  -25.50   23.30   1
  -9  -2  12   -2.40   23.80   1
   9  -2 -12  -21.00   31.50   1
  -9  -2  12   -5.70   34.50   1
   9   2 -11  -29.80   30.60   1
  -9   2  11   29.50   23.60   1
   9   2 -11   12.50   26.60   1
   9   2 -11   14.50   28.40   1
  -9   2  11   -8.50   29.80   1
   9  -2 -11   20.20   27.80   1
   9  -2 -11   10.50   24.80   1
   9  -2 -11   -7.80   24.40   1
  -9  -2  11    6.50   33.60   1
  -9  -2  11   26.70   23.50   1
  -9   2  10   17.40   22.40   1
  -9   2  10   -4.60   28.20   1
   9   2 -10  -14.60   29.60   1
   9   2 -10   18.80   27.30   1
   9   2 -10   29.80   25.00   1
   9  -2 -10    7.30   24.20   1
  -9  -2  10    5.10   39.60   1
  -9  -2  10  -26.20   18.70   1
   9  -2 -10   31.50   24.10   1
   9   2  -9   -1.90   24.50   1
   9   2  -9   10.00   32.40   1
  -9   2   9   -7.70   19.80   1
  -9   2   9    5.10   29.30   1
  -9  -2   9   21.40   18.90   1
  -9  -2   9   -2.50   26.40   1
   9  -2  -9   20.50   25.70   1
   9  -2  -9  -16.30   22.30   1
  -9   2   8   43.10   30.40   1
   9   2  -8   62.89   24.60   1
  -9   2   8   34.10   23.00   1
   9   2  -8   39.10   23.30   1
   9   2  -8   18.70   29.10   1
  -9   2   8   88.29   27.20   1
   9  -2  -8   60.59   25.40   1
  -9  -2   8   31.20   18.10   1
  -9  -2   8  103.49   28.40   1
   9  -2  -8   47.90   24.70   1
   9   2  -7   -7.70   22.80   1
   9   2  -7    1.60   28.60   1
   9   2  -7  -11.70   19.40   1
  -9   2   7   21.40   20.80   1
  -9   2   7   -7.10   34.20   1
  -9   2   7    7.20   17.90   1
   9  -2  -7    7.40   22.30   1
   9  -2  -7    6.40   21.70   1
  -9  -2   7   43.90   24.20   1
  -9  -2   7   19.70   17.40   1
   9   2  -6   15.60   26.90   1
  -9   2   6    4.50   24.00   1
  -9   2   6   21.40   20.90   1
  -9   2   6   42.50   21.00   1
   9   2  -6   65.19   22.00   1
   9   2  -6   61.39   21.90   1
   9  -2  -6   42.80   23.20   1
  -9  -2   6   41.80   18.70   1
  -9  -2   6   56.99   23.50   1
   9  -2  -6   57.29   24.70   1
  -9   2   5   74.19   19.20   1
   9   2  -5   80.59   22.90   1
  -9   2   5   64.09   25.90   1
   9   2  -5   69.29   27.10   1
   9   2  -5   44.50   27.00   1
  -9  -2   5   57.79   22.40   1
   9  -2  -5   58.39   24.90   1
  -9  -2   5   25.30   17.40   1
   9  -2  -5   37.00   24.10   1
  -9   2   4   49.20   19.20   1
   9   2  -4   65.29   22.90   1
  -9   2   4   50.19   22.60   1
   9   2  -4   57.49   22.20   1
   9   2  -4   35.70   24.10   1
  -9   2   4   39.60   24.70   1
   9  -2  -4   44.30   20.80   1
   9  -2  -4   48.60   26.00   1
  -9  -2   4   38.10   20.60   1
   9   2  -3   23.00   22.20   1
   9   2  -3   39.80   19.00   1
  -9   2   3   31.50   22.80   1
  -9   2   3   39.80   19.90   1
   9   2  -3   55.99   22.40   1
  -9   2   3   82.49   23.40   1
   9  -2  -3   32.60   20.80   1
   9  -2  -3   34.50   25.80   1
  -9  -2   3   46.10   19.50   1
   9   2  -2  129.79   25.70   1
  -9   2   2   66.99   18.30   1
  -9   2   2   83.09   24.30   1
   9   2  -2   98.19   21.70   1
  -9   2   2   86.99   26.50   1
   9   2  -2  117.09   27.90   1
   9  -2  -2  113.09   24.10   1
   9  -2  -2   92.99   26.30   1
  -9  -2   2  101.39   23.20   1
  -9   2   1   68.59   25.70   1
  -9   2   1   58.79   21.40   1
   9   2  -1   57.79   19.70   1
   9   2  -1   33.00   23.70   1
  -9   2   1   46.70   16.10   1
   9  -2  -1   54.89   22.80   1
  -9  -2   1   26.20   21.10   1
  -9  -2   1   48.80   23.40   1
   9  -2  -1   41.20   19.70   1
   9   2   0   97.99   23.30   1
  -9   2   0  118.19   19.50   1
  -9   2   0  142.19   27.90   1
   9   2   0   81.69   23.60   1
   9   2   0  169.28   28.70   1
  -9   2   0  129.99   24.10   1
   9  -2   0   77.59   27.90   1
  -9  -2   0   62.69   26.00   1
  -9  -2   0   88.19   25.30   1
   9  -2   0  135.49   23.60   1
   9   2   1   34.50   27.10   1
  -9   2  -1   38.20   22.80   1
   9   2   1   27.00   19.90   1
  -9   2  -1    3.60   18.90   1
  -9   2  -1   43.60   14.60   1
   9   2   1   21.40   18.70   1
   9  -2   1   34.00   18.40   1
   9  -2   1    3.60   23.10   1
  -9  -2  -1    2.60   25.60   1
  -9  -2  -1    7.80   22.90   1
  -9   2  -2  143.99   29.10   1
  -9   2  -2  137.59   25.30   1
   9   2   2  139.79   25.00   1
   9   2   2  136.69   28.80   1
   9   2   2  137.99   26.90   1
  -9  -2  -2  162.38   33.10   1
   9  -2   2  177.18   30.70   1
   9   2   3  121.79   27.60   1
   9   2   3  106.09   22.50   1
  -9   2  -3  104.69   25.90   1
  -9   2  -3  118.09   24.90   1
   9   2   3   93.39   26.70   1
  -9   2  -3  114.99   24.20   1
  -9  -2  -3  160.58   33.80   1
   9  -2   3  138.79   24.00   1
   9  -2   3  127.89   29.80   1
   9   2   4   19.90   26.50   1
   9   2   4   38.40   23.60   1
   9   2   4    2.40   23.10   1
  -9   2  -4   34.80   20.00   1
   9   2   4    7.70   18.70   1
  -9   2  -4   31.70   23.40   1
  -9   2  -4   30.60   22.20   1
   9  -2   4   52.29   28.10   1
   9  -2   4   24.00   19.20   1
   9   2   5   48.30   22.70   1
   9   2   5   60.49   30.60   1
  -9   2  -5   38.10   25.50   1
  -9   2  -5   41.30   21.40   1
   9   2   5   30.40   20.70   1
  -9   2  -5   68.29   26.50   1
  -9  -2  -5   60.19   29.50   1
   9  -2   5   54.49   28.80   1
   9  -2   5   18.00   20.00   1
  -9   2  -6   -5.90   26.60   1
  -9   2  -6   45.30   22.90   1
   9   2   6  -12.10   23.30   1
   9   2   6   27.70   18.30   1
  -9   2  -6   32.40   24.10   1
   9   2   6    1.70   26.20   1
   9  -2   6   40.00   28.70   1
  -9  -2  -6   45.50   27.10   1
   9  -2   6   72.89   23.20   1
  -9  -2  -6   47.70   28.30   1
  -9   2  -7   57.59   24.80   1
   9   2   7   -1.40   26.70   1
   9   2   7   15.00   18.40   1
  -9   2  -7   27.10   27.50   1
  -9   2  -7   43.00   25.60   1
  -9  -2  -7   23.90   28.10   1
   9  -2   7    2.80   22.80   1
   9  -2   7   17.00   31.00   1
  -9  -2  -7   16.90   28.70   1
   9   2   8   14.80   21.00   1
   9   2   8   22.60   27.90   1
  -9   2  -8   -2.20   25.30   1
  -9   2  -8   54.19   29.00   1
  -9  -2  -8   64.39   31.50   1
  -9  -2  -8   36.50   28.90   1
   9  -2   8   53.29   24.00   1
   9  -2   8   23.00   30.20   1
   9   2   9   -6.40   31.30   1
   9   2   9    1.00   21.40   1
  -9   2  -9   26.00   28.50   1
  -9   2  -9   59.29   31.20   1
  -9  -2  -9   -1.10   29.70   1
   9  -2   9   54.19   32.80   1
  -9  -2  -9   46.10   31.40   1
   9  -2   9   34.00   24.60   1
   9   2  10   50.79   36.00   1
  -9   2 -10   49.50   28.50   1
   9   2  10   58.09   24.90   1
  -9   2 -10   61.49   35.70   1
   9  -2  10   28.40   24.30   1
  -9  -2 -10   66.79   32.80   1
   9  -2  10   97.59   36.10   1
  -9  -2 -10   78.59   35.10   1
   9   2  11   43.60   24.40   1
   9   2  11   56.19   38.30   1
  -9   2 -11    5.60   28.80   1
  -9   2 -11  110.79   39.40   1
  -9  -2 -11   81.19   37.20   1
   9  -2  11  -25.30   22.90   1
  -9  -2 -11   31.90   32.00   1
   9  -2  11  -24.70   34.60   1
   9   2  12   36.90   24.80   1
  -9   2 -12   64.49   43.10   1
   9  -2  12   16.30   28.10   1
   9  -2  12   32.90   41.40   1
  -9   2 -13   39.90   47.30   1
  -9   2 -13   46.00   30.20   1
   9   2  13   74.89   27.90   1
   9  -2  13   52.89   44.30   1
   9  -2  13   17.50   29.50   1
  -9  -2 -13   30.90   37.00   1
   9   3 -14   28.20   53.79   1
  -9   3  14   58.89   30.60   1
   9   3 -14   75.09   42.30   1
   9   3 -14    2.10   46.20   1
  -9  -3  14   87.29   50.69   1
  -9  -3  14   32.50   32.00   1
   9  -3 -14  130.79   35.00   1
   9  -3 -14   72.99   37.10   1
   9   3 -13   43.30   37.30   1
   9   3 -13  -30.40   41.10   1
  -9   3  13   72.79   45.40   1
   9   3 -13   41.10   41.30   1
  -9   3  13    7.70   26.00   1
  -9  -3  13    7.60   31.80   1
   9  -3 -13   15.50   27.20   1
   9  -3 -13   -3.70   46.60   1
  -9  -3  13   27.60   45.10   1
   9  -3 -13   66.59   34.30   1
  -9   3  12   18.70   23.50   1
   9   3 -12  -16.50   33.00   1
  -9   3  12   95.19   39.50   1
   9   3 -12  -23.90   37.50   1
   9   3 -12   49.99   39.20   1
  -9  -3  12  -43.40   27.50   1
  -9  -3  12  -70.39   44.00   1
   9  -3 -12   16.80   28.90   1
   9  -3 -12  -30.90   35.10   1
   9   3 -11    5.90   31.70   1
   9   3 -11  -45.20   33.90   1
  -9   3  11   -6.30   21.70   1
  -9   3  11   34.70   30.80   1
  -9   3  11   32.00   34.30   1
   9   3 -11   13.50   29.80   1
  -9  -3  11  -14.30   25.10   1
   9  -3 -11   13.60   29.20   1
  -9  -3  11  -39.80   37.20   1
   9  -3 -11   20.10   36.20   1
   9   3 -10   53.19   35.90   1
   9   3 -10   48.00   30.80   1
  -9   3  10   59.79   34.30   1
  -9   3  10   -0.90   27.00   1
   9   3 -10   18.40   32.70   1
  -9   3  10   16.80   22.20   1
  -9  -3  10   49.60   24.50   1
   9  -3 -10   52.69   30.30   1
   9  -3 -10  103.79   29.90   1
  -9  -3  10   17.80   31.00   1
  -9   3   9   27.80   27.50   1
   9   3  -9   22.90   28.00   1
   9   3  -9   52.39   30.50   1
  -9   3   9   73.59   33.40   1
   9   3  -9   39.60   32.80   1
  -9   3   9   13.30   23.90   1
  -9  -3   9   31.80   34.70   1
   9  -3  -9   94.09   30.10   1
  -9  -3   9   21.50   21.10   1
   9  -3  -9   60.09   32.10   1
   9   3  -8   45.70   35.40   1
   9   3  -8   79.39   44.00   1
   9   3  -8   88.39   30.70   1
  -9   3   8   59.19   27.90   1
  -9   3   8   67.09   27.10   1
  -9   3   8  121.29   37.10   1
  -9  -3   8   61.39   21.60   1
   9  -3  -8   64.89   30.80   1
   9  -3  -8   22.60   28.50   1
  -9  -3   8   27.10   29.80   1
  -9   3   7   38.20   27.40   1
  -9   3   7   -9.50   22.00   1
   9   3  -7   46.50   34.50   1
  -9   3   7   29.90   30.90   1
   9   3  -7   42.00   29.20   1
   9   3  -7    9.90   24.00   1
  -9  -3   7   10.20   26.90   1
   9  -3  -7   72.89   27.90   1
   9  -3  -7    2.10   27.60   1
  -9  -3   7   44.40   20.70   1
   9   3  -6    7.20   31.10   1
  -9   3   6  -27.40   18.80   1
  -9   3   6  -22.00   22.50   1
  -9   3   6    0.30   29.70   1
   9   3  -6   38.30   22.10   1
   9   3  -6    9.70   24.30   1
  -9  -3   6  -36.10   25.10   1
  -9  -3   6  -20.50   19.30   1
   9  -3  -6   -0.60   26.60   1
   9  -3  -6   31.70   25.30   1
   9   3  -5   35.80   25.60   1
  -9   3   5   20.80   31.00   1
  -9   3   5   13.40   20.70   1
   9   3  -5   17.50   26.20   1
  -9   3   5   50.89   27.30   1
   9  -3  -5   12.30   24.20   1
  -9  -3   5   -1.20   24.60   1
   9  -3  -5  -14.80   24.20   1
  -9  -3   5   76.39   19.10   1
  -9   3   4  -19.10   20.40   1
  -9   3   4  -17.60   28.10   1
   9   3  -4   24.60   27.40   1
   9   3  -4   13.80   26.40   1
  -9   3   4   47.00   26.30   1
   9  -3  -4    5.90   21.10   1
  -9  -3   4   -5.90   23.30   1
   9  -3  -4  -29.20   23.40   1
   9   3  -3   67.19   22.40   1
  -9   3   3   -3.60   19.50   1
   9   3  -3   19.30   26.60   1
  -9   3   3   40.30   28.50   1
   9   3  -3   48.10   31.40   1
  -9   3   3    0.60   26.40   1
  -9  -3   3   16.10   25.00   1
   9  -3  -3   12.90   24.30   1
   9  -3  -3   79.59   23.70   1
  -9  -3   3   19.20   23.70   1
   9   3  -2  -17.90   25.40   1
   9   3  -2  -21.10   28.30   1
  -9   3   2  -20.30   23.40   1
   9   3  -2   11.70   19.40   1
  -9   3   2   45.60   26.90   1
  -9   3   2  -28.00   18.90   1
   9  -3  -2    3.30   22.90   1
  -9  -3   2   47.20   26.40   1
   9  -3  -2   22.10   27.20   1
  -9  -3   2   -6.00   21.00   1
   9   3  -1  113.49   24.80   1
   9   3  -1  100.59   30.40   1
  -9   3   1   94.09   21.80   1
   9   3  -1  105.79   31.20   1
  -9   3   1  118.39   31.10   1
   9  -3  -1  119.09   32.00   1
  -9  -3   1  134.89   29.50   1
  -9  -3   1   77.29   28.30   1
  -9   3   0   22.30   27.00   1
   9   3   0   52.69   20.90   1
  -9   3   0   29.70   17.70   1
   9   3   0   23.80   28.50   1
   9   3   0   98.39   26.80   1
   9  -3   0   71.39   29.60   1
  -9  -3   0   39.70   25.30   1
  -9  -3   0   37.20   27.50   1
  -9   3  -1   43.00   26.40   1
   9   3   1    1.60   19.80   1
   9   3   1   63.29   26.10   1
  -9   3  -1   14.90   16.90   1
   9   3   1   21.40   28.30   1
   9  -3   1   41.50   32.00   1
  -9  -3  -1   21.10   30.00   1
   9   3   2  114.69   29.50   1
  -9   3  -2  115.09   31.00   1
   9   3   2   93.99   25.10   1
  -9  -3  -2  141.19   33.30   1
  -9  -3  -2  120.59   40.20   1
   9  -3   2  124.59   33.00   1
   9   3   3  161.38   36.00   1
  -9   3  -3   84.69   29.10   1
   9   3   3   74.09   26.80   1
   9   3   3  128.19   25.10   1
  -9  -3  -3  140.19   35.90   1
   9  -3   3  150.98   34.20   1
   9   3   4   46.60   27.90   1
   9   3   4    7.10   19.70   1
   9   3   4   85.09   35.70   1
  -9   3  -4   46.90   30.70   1
   9  -3   4   85.19   32.40   1
  -9  -3  -4   72.29   31.70   1
   9   3   5  102.49   33.40   1
  -9   3  -5   20.10   29.20   1
   9   3   5   82.39   31.10   1
   9   3   5   40.20   24.10   1
  -9  -3  -5  100.69   34.70   1
   9  -3   5   83.59   31.40   1
  -9   3  -6    0.60   30.60   1
   9   3   6   35.50   29.30   1
   9   3   6   24.90   21.90   1
   9   3   6   33.90   32.20   1
   9  -3   6    8.00   31.10   1
  -9  -3  -6   26.80   34.50   1
  -9  -3  -6   24.10   33.70   1
   9   3   7  -20.10   31.60   1
   9   3   7   57.09   32.00   1
  -9   3  -7  -33.40   29.20   1
   9   3   7   25.30   23.80   1
  -9  -3  -7   56.29   35.60   1
  -9  -3  -7   10.90   38.20   1
   9  -3   7   46.60   31.50   1
   9   3   8    8.40   20.20   1
   9   3   8   84.29   35.50   1
  -9   3  -8   49.90   34.80   1
  -9  -3  -8   80.59   36.70   1
   9  -3   8   39.50   35.70   1
   9  -3   8   10.20   32.70   1
   9   3   9   28.30   22.70   1
  -9   3  -9   46.80   36.40   1
   9   3   9   13.20   34.20   1
   9  -3   9   25.00   34.20   1
   9  -3   9   49.90   38.10   1
  -9  -3  -9   59.19   34.10   1
  -9  -3  -9   21.90   35.00   1
   9   3  10   67.59   25.60   1
   9  -3  10  209.58   57.99   1
  -9  -3 -10  145.99   42.00   1
   9  -3  10   13.90   37.90   1
   9   3  11   -5.00   23.60   1
  -9   3 -11  -16.60   34.60   1
   9  -3  11  -38.90   34.10   1
  -9  -3 -11   30.80   33.50   1
  -9   4  11   82.59   31.40   1
   9   4 -11   11.70   43.80   1
  -9   4  11  166.58   47.20   1
   9   4 -11   92.29   39.50   1
  -9   4  11   67.19   36.70   1
   9  -4 -11   30.90   44.70   1
   9  -4 -11   59.09   35.80   1
  -9   4  10   69.39   43.80   1
  -9   4  10   -1.50   24.40   1
   9   4 -10  -23.40   34.10   1
  -9   4  10    3.90   31.40   1
   9   4 -10   25.60   44.10   1
   9  -4 -10   10.90   34.50   1
   9  -4 -10   65.39   39.90   1
   9   4  -9  112.29   41.00   1
  -9   4   9  125.59   31.90   1
  -9   4   9  115.59   34.70   1
  -9   4   9  136.49   42.50   1
   9  -4  -9  123.99   49.00   1
   9  -4  -9  100.99   36.30   1
  -9   4   8  123.69   31.30   1
  -9   4   8  119.19   39.80   1
   9   4  -8  120.99   37.60   1
  -9   4   8   34.90   31.10   1
   9   4  -8   94.39   46.50   1
   9  -4  -8  133.49   36.10   1
   9  -4  -8   90.39   38.10   1
   9   4  -7   30.60   31.30   1
  -9   4   7  100.49   38.50   1
   9   4  -7   23.40   39.00   1
  -9   4   7   34.80   32.00   1
  -9   4   7   95.29   28.50   1
  -9  -4   7   75.19   27.90   1
   9  -4  -7  114.79   37.40   1
   9  -4  -7   21.80   33.30   1
   9   4  -6   96.09   31.80   1
  -9   4   6   98.79   34.30   1
   9   4  -6   96.09   40.10   1
  -9   4   6  102.79   29.50   1
  -9   4   6   92.89   39.20   1
   9  -4  -6   95.09   34.10   1
  -9  -4   6   59.49   26.40   1
   9  -4  -6   61.99   34.00   1
  -9   4   5   13.90   23.90   1
  -9   4   5    8.50   29.10   1
   9   4  -5   10.50   31.80   1
   9   4  -5   64.39   41.40   1
  -9  -4   5   -6.20   31.10   1
   9  -4  -5   11.20   29.50   1
   9  -4  -5    3.70   29.80   1
  -9  -4   5   61.89   24.40   1
  -9   4   4   21.50   31.20   1
   9   4  -4  126.19   43.30   1
  -9   4   4   76.29   33.80   1
  -9   4   4   37.70   39.00   1
   9   4  -4   59.09   33.20   1
  -9  -4   4   32.90   32.10   1
   9  -4  -4   65.49   31.00   1
   9  -4  -4   77.39   32.90   1
   9   4  -3  -12.90   37.70   1
  -9   4   3   58.09   23.30   1
  -9   4   3   66.49   34.20   1
   9   4  -3   11.90   32.30   1
  -9  -4   3   51.29   31.90   1
   9  -4  -3  -12.60   30.50   1
  -9   4   2   41.00   34.00   1
   9   4  -2   24.00   37.70   1
   9   4  -2   96.49   34.80   1
  -9   4   2   53.89   22.30   1
  -9  -4   2  113.59   33.00   1
  -9  -4   2   92.19   35.60   1
   9  -4  -2  -14.70   29.90   1
   9   4  -1  273.97   48.10   1
  -9   4   1  299.07   34.00   1
  -9   4   1  277.77   45.20   1
   9   4  -1  263.47   38.90   1
   9   4  -1  223.48   46.50   1
  -9  -4   1  317.37   47.20   1
   9  -4  -1  279.87   46.60   1
  -9  -4   1  210.88   44.30   1
   9   4   0   63.79   37.90   1
   9   4   0   64.19   31.70   1
   9   4   0   36.70   26.30   1
  -9   4   0  136.89   37.40   1
   9  -4   0  166.48   41.10   1
  -9  -4   0   60.19   36.40   1
  -9  -4   0   99.69   33.00   1
   9   4   1   18.20   30.60   1
  -9   4  -1   -5.80   30.40   1
   9   4   1   26.50   27.70   1
   9  -4   1   19.70   33.80   1
  -9  -4  -1   24.00   35.30   1
  -9  -4  -1   70.19   34.70   1
  -9   4  -2   89.09   36.50   1
   9   4   2   93.09   27.10   1
   9   4   2   75.29   32.60   1
  -9  -4  -2   83.49   34.40   1
   9  -4   2  103.39   36.00   1
  -9  -4  -2  101.49   38.10   1
   9   4   3   35.40   31.60   1
  -9   4  -3   10.50   31.10   1
   9   4   3   37.10   25.50   1
  -9  -4  -3  -34.30   33.30   1
  -9  -4  -3   44.90   35.50   1
   9  -4   3   53.09   34.10   1
  -9   4  -4  126.49   36.30   1
   9   4   4  142.39   31.20   1
   9   4   4   76.29   32.20   1
  -9  -4  -4   80.19   37.10   1
   9  -4   4   48.30   33.90   1
  -9  -4  -4   67.89   43.80   1
   9   4   5   -0.80   22.90   1
   9   4   5   37.00   31.30   1
  -9   4  -5   32.10   36.10   1
   9  -4   5   36.30   34.30   1
  -9  -4  -5   10.70   39.40   1
  -9  -4  -5   60.59   38.50   1
   9   4   6   53.49   34.50   1
   9   4   6   82.29   27.60   1
   9   4   6   46.00   42.30   1
  -9   4  -6   68.39   34.80   1
  -9  -4  -6   62.49   41.50   1
  -9  -4  -6  156.08   42.00   1
   9  -4   6   81.99   36.80   1
   9   4   7  -37.50   36.90   1
  -9   4  -7   75.59   41.20   1
   9   4   7   64.19   44.10   1
   9   4   7   -0.30   26.20   1
  -9  -4  -7   25.70   38.00   1
   9  -4   7   45.20   42.30   1
   9   4   8   29.70   34.30   1
   9   4   8   51.09   26.20   1
  -9   4  -8   74.29   40.30   1
   9  -4   8   86.09   39.30   1
  -9  -4  -8  161.78   44.20   1
  -9   5   3  295.67   55.69   1
   9  -5  -3  419.96   64.79   1
  -9   5   2  287.17   54.29   1
   9   5  -2   64.89   41.60   1
   9  -5  -2  153.28   44.00   1
   9   5  -1  259.87   50.09   1
  -9   5   1  259.67   52.49   1
  -9  -5   1  261.97   60.39   1
   9  -5  -1  245.98   49.40   1
  -9  -5   1  153.88   55.09   1
  -9   5   0  125.69   41.90   1
   9   5   0  146.39   41.20   1
  -9  -5   0  124.49   53.09   1
  -9  -5   0  179.88   52.39   1
   9  -5   0  107.39   42.60   1
  -9  -5   0  109.99   50.29   1
   9  -5   1   22.10   38.50   1
  10   0 -17  128.89   36.40   1
 -10   0  17  133.29   36.20   1
  10   0 -17  199.98   53.79   1
  10   0 -16   34.10   44.50   1
  10   0 -16  110.09   39.80   1
  10   0 -16   26.80   28.90   1
 -10   0  16   41.30   27.70   1
  10   0 -15   -1.80   32.60   1
  10   0 -15   18.20   35.60   1
 -10   0  15  -21.60   35.80   1
  10   0 -15    1.20   26.70   1
 -10   0  15  -50.19   23.00   1
 -10   0  14  -30.70   33.30   1
 -10   0  14   -1.70   24.80   1
  10   0 -14   12.90   31.10   1
  10   0 -14   21.20   24.70   1
  10   0 -14  -22.20   30.10   1
  10   0 -13   81.99   33.20   1
  10   0 -13   96.69   25.00   1
  10   0 -13  102.19   34.50   1
 -10   0  13   81.49   36.80   1
 -10   0  13   68.99   25.60   1
  10   0 -12  250.47   40.60   1
  10   0 -12  240.58   40.50   1
 -10   0  12  237.68   43.40   1
 -10   0  12  217.48   36.20   1
  10   0 -12  184.88   32.30   1
  10   0 -11  255.97   39.00   1
 -10   0  11  265.37   38.10   1
 -10   0  11  265.27   43.90   1
  10   0 -11  234.18   32.40   1
  10   0 -11  276.97   43.30   1
  10   0 -10 1728.43  131.49   1
  10   0 -10 1640.24  133.89   1
 -10   0  10 1734.13  130.49   1
  10   0 -10 1742.13  127.09   1
 -10   0  10 1632.44  134.69   1
  10   0  -9  352.56   42.30   1
 -10   0   9  263.97   36.40   1
 -10   0   9  280.97   50.29   1
  10   0  -9  333.87   32.70   1
 -10   0   8  314.07   50.99   1
  10   0  -8  244.38   30.10   1
 -10   0   8  315.77   35.30   1
  10   0  -8  302.17   40.40   1
  10   0  -7    6.00   12.60   1
  10   0  -7    7.40   21.20   1
 -10   0   7    2.30   19.20   1
 -10   0   7  -16.20   24.10   1
  10   0  -7   22.80   20.40   1
 -10   0   6  253.47   31.90   1
  10   0  -6  280.07   36.60   1
  10   0  -6  223.48   22.90   1
 -10   0   6  309.87   43.20   1
 -10   0   5    7.00   23.50   1
  10   0  -5   28.50   20.10   1
  10   0  -5   -6.50   19.60   1
 -10   0   5    3.30   16.80   1
 -10   0   4  206.68   33.70   1
 -10   0   4  222.78   29.50   1
  10   0  -4  256.97   33.80   1
  10   0  -4  261.77   37.30   1
  10   0  -3  197.38   36.20   1
 -10   0   3  252.37   38.20   1
  10   0  -3  220.98   31.10   1
 -10   0   3  225.58   28.90   1
  10   0  -2  142.19   37.60   1
  10   0  -2  151.38   25.30   1
 -10   0   2  140.39   15.60   1
 -10   0   2  154.88   27.60   1
  10   0  -2  172.28   29.20   1
  10   0  -1 3667.03  262.47   1
 -10   0   1 3457.65  264.37   1
  10   0  -1 3581.34  264.47   1
 -10   0   1 3600.54  259.17   1
  10   0  -1 3710.83  263.07   1
 -10   0   0  374.76   31.80   1
  10   0   0  376.76   36.50   1
  10   0   0  363.36   38.40   1
  10   0   0  307.97   42.80   1
 -10   0   0  316.07   43.30   1
  10   0   1  511.95   44.50   1
 -10   0  -1  422.86   49.10   1
 -10   0  -1  470.65   40.50   1
  10   0   1  433.26   44.60   1
 -10   0  -2 1912.01  158.08   1
 -10   0  -2 1862.31  158.08   1
  10   0   2 2228.58  153.98   1
 -10   0  -2 2276.97  153.48   1
  10   0   2 2097.19  156.08   1
 -10   0  -3  152.68   23.70   1
  10   0   3  185.18   29.00   1
 -10   0  -3  153.98   31.30   1
 -10   0  -3  191.98   31.70   1
  10   0   3  200.98   27.50   1
 -10   0  -4 3253.87  240.38   1
 -10   0  -4 2934.71  235.38   1
  10   0   4 3257.97  234.68   1
  10   0   4 3492.05  238.78   1
  10   0   5  324.77   38.10   1
 -10   0  -5  340.27   46.60   1
  10   0   5  382.86   38.00   1
 -10   0  -5  400.66   41.60   1
  10   0   6 1068.69   84.49   1
  10   0   6 1152.48   94.39   1
 -10   0  -6 1002.50   85.59   1
 -10   0  -6 1175.38   94.79   1
  10   0   6 1065.19   86.69   1
  10   0   7    0.30   18.40   1
  10   0   7  -20.70   21.10   1
 -10   0  -7   13.60   23.30   1
 -10   0  -7  -16.00   26.70   1
  10   0   7   16.80   24.90   1
  10   0   8  282.17   37.70   1
 -10   0  -8  395.86   48.80   1
  10   0   8  219.08   37.80   1
 -10   0  -8  339.87   40.80   1
  10   0   8  347.87   49.60   1
 -10   0  -9  229.78   36.50   1
 -10   0  -9  235.58   41.30   1
  10   0   9  282.97   45.40   1
  10   0   9  240.58   32.20   1
  10   0   9  237.08   35.10   1
  10   0  10   48.70   23.40   1
  10   0  10   46.50   32.00   1
  10   0  10   44.00   29.10   1
 -10   0 -10   75.99   27.10   1
 -10   0 -10   24.80   32.20   1
  10   0  11  216.78   42.60   1
 -10   0 -11  181.98   42.50   1
 -10   0 -11  159.48   35.10   1
  10   0  11  174.38   32.70   1
  10   0  12    6.50   22.40   1
 -10   0 -12   36.90   28.80   1
  10   0  12   27.40   39.00   1
 -10   0 -12   68.89   34.90   1
 -10   0 -13   69.19   40.40   1
  10   0  13  104.39   30.40   1
 -10   0 -13   59.99   46.20   1
  10   0  13  148.49   46.60   1
  10   1 -16  421.46   54.29   1
  10   1 -16  421.86   71.99   1
 -10   1  16  456.65   48.70   1
  10   1 -16  464.75   69.09   1
  10  -1 -16  293.57   48.40   1
 -10  -1  16  226.28   54.29   1
 -10  -1  16  417.66   51.39   1
  10  -1 -16  399.46   56.69   1
 -10   1  15  -22.00   33.90   1
  10   1 -15   82.79   42.20   1
  10   1 -15   -1.90   30.30   1
  10   1 -15  -14.80   38.50   1
 -10   1  15   -9.80   25.50   1
  10  -1 -15   -3.60   24.40   1
  10  -1 -15   -9.40   36.40   1
 -10  -1  15   -1.60   29.20   1
  10  -1 -15  -56.99   33.30   1
 -10  -1  15   24.40   40.20   1
 -10   1  14   -9.80   32.50   1
 -10   1  14   39.30   25.10   1
  10   1 -14   51.09   34.10   1
  10   1 -14   60.69   32.40   1
  10   1 -14    1.70   36.00   1
  10  -1 -14  -17.90   29.40   1
  10  -1 -14  -18.60   20.90   1
  10  -1 -14   41.50   35.80   1
 -10  -1  14    3.00   24.70   1
 -10  -1  14   34.90   37.90   1
 -10   1  13  115.89   27.40   1
 -10   1  13  105.89   36.10   1
  10   1 -13   82.39   34.40   1
  10   1 -13   84.09   34.30   1
  10   1 -13  110.69   33.00   1
 -10  -1  13  116.89   29.50   1
  10  -1 -13   52.39   22.60   1
  10  -1 -13  135.69   36.00   1
  10  -1 -13  156.78   34.50   1
 -10  -1  13   52.79   39.20   1
 -10   1  12  645.34   60.99   1
  10   1 -12  644.04   67.79   1
  10   1 -12  691.73   70.49   1
 -10   1  12  606.74   71.59   1
  10   1 -12  728.03   70.29   1
  10  -1 -12  683.63   67.49   1
  10  -1 -12  677.03   62.99   1
 -10  -1  12  679.53   62.49   1
  10  -1 -12  613.44   64.19   1
 -10  -1  12  615.14   73.09   1
 -10   1  11  204.28   42.40   1
  10   1 -11  180.98   31.80   1
  10   1 -11  182.88   36.50   1
  10   1 -11  212.08   38.00   1
 -10   1  11  197.38   34.40   1
 -10  -1  11  173.98   31.40   1
 -10  -1  11   99.59   34.30   1
  10  -1 -11  184.18   35.20   1
  10  -1 -11  208.28   33.00   1
  10  -1 -11  167.68   28.90   1
  10   1 -10   49.90   27.90   1
 -10   1  10   86.49   24.80   1
 -10   1  10   83.79   32.50   1
  10   1 -10   72.59   27.70   1
  10   1 -10   67.89   29.30   1
 -10  -1  10   53.09   29.70   1
  10  -1 -10  100.19   25.10   1
  10  -1 -10   92.99   27.60   1
  10  -1 -10   89.09   23.90   1
 -10  -1  10   68.19   22.30   1
  10   1  -9  610.94   62.19   1
  10   1  -9  724.03   57.59   1
 -10   1   9  612.04   64.99   1
 -10   1   9  640.34   58.19   1
  10   1  -9  593.14   62.79   1
  10  -1  -9  667.23   54.09   1
  10  -1  -9  678.73   58.89   1
 -10  -1   9  608.94   66.29   1
  10  -1  -9  668.83   63.29   1
 -10  -1   9  644.44   57.49   1
  10   1  -8  114.99   29.00   1
 -10   1   8  141.09   26.70   1
 -10   1   8  194.48   34.40   1
  10   1  -8  154.28   25.60   1
  10   1  -8  216.28   32.10   1
 -10  -1   8  169.28   28.80   1
  10  -1  -8  177.68   22.60   1
  10  -1  -8  184.78   31.00   1
  10  -1  -8  210.68   46.30   1
 -10  -1   8  141.59   32.80   1
 -10   1   7  631.74   65.19   1
  10   1  -7  650.13   54.79   1
 -10   1   7  631.64   56.89   1
  10   1  -7  621.94   61.79   1
  10   1  -7  652.63   60.59   1
  10  -1  -7  582.14   61.39   1
 -10  -1   7  697.23   65.29   1
 -10  -1   7  726.83   57.79   1
  10  -1  -7  704.63   58.89   1
  10   1  -6  370.66   48.20   1
 -10   1   6  302.87   33.10   1
 -10   1   6  389.36   41.50   1
 -10   1   6  373.96   48.00   1
  10   1  -6  325.47   34.30   1
  10   1  -6  381.76   48.90   1
 -10  -1   6  363.16   37.30   1
 -10  -1   6  368.96   46.80   1
  10  -1  -6  314.47   42.50   1
  10  -1  -6  401.66   40.10   1
  10   1  -5   20.90   20.40   1
 -10   1   5   57.79   18.60   1
 -10   1   5   56.09   14.30   1
  10   1  -5    4.60   14.70   1
  10   1  -5   34.40   23.20   1
 -10   1   5   56.99   25.80   1
 -10  -1   5   56.39   23.80   1
  10  -1  -5   20.10   19.70   1
  10  -1  -5   24.30   20.80   1
 -10  -1   5    5.70   15.60   1
  10   1  -4 1981.90  146.69   1
  10   1  -4 2031.30  148.09   1
  10   1  -4 2037.60  143.19   1
 -10   1   4 1984.10  145.39   1
 -10   1   4 1792.12  142.49   1
 -10   1   4 1951.40  148.59   1
 -10  -1   4 1945.61  148.19   1
  10  -1  -4 1868.01  147.69   1
  10  -1  -4 1963.80  145.49   1
 -10  -1   4 1920.11  145.39   1
 -10   1   3 1537.75  115.19   1
  10   1  -3 1554.74  118.69   1
 -10   1   3 1549.84  116.99   1
  10   1  -3 1653.13  120.69   1
  10   1  -3 1522.45  117.59   1
 -10   1   3 1531.75  120.99   1
  10   1  -3 1541.75  114.49   1
  10  -1  -3 1530.85  120.29   1
  10  -1  -3 1558.54  118.19   1
 -10  -1   3 1558.94  121.09   1
 -10   1   2  166.98   27.60   1
  10   1  -2  174.48   21.80   1
 -10   1   2  159.88   23.80   1
  10   1  -2  171.48   28.80   1
  10   1  -2  199.08   27.80   1
  10   1  -2  137.89   24.20   1
 -10  -1   2  173.98   30.00   1
  10  -1  -2  263.47   33.40   1
  10  -1  -2  176.28   27.90   1
 -10   1   1 2253.17  175.18   1
  10   1  -1 2371.86  183.58   1
  10   1  -1 2441.26  173.88   1
  10   1  -1 2263.87  176.08   1
 -10   1   1 2352.06  172.38   1
  10   1  -1 2395.56  171.28   1
  10  -1  -1 2363.86  175.78   1
  10  -1  -1 2248.48  174.38   1
 -10  -1   1 2449.85  176.88   1
  10   1   0 1023.70   76.89   1
 -10   1   0  976.50   81.89   1
  10   1   0  999.00   79.59   1
  10   1   0 1006.20   79.39   1
 -10   1   0  916.21   77.89   1
 -10  -1   0  994.10   83.89   1
  10  -1   0 1027.50   79.39   1
  10  -1   0 1004.90   82.09   1
  10  -1   0 1035.30   81.69   1
  10   1   1  251.97   33.90   1
  10   1   1  363.56   35.00   1
 -10   1  -1  259.17   37.40   1
 -10   1  -1  241.58   31.50   1
 -10  -1  -1  287.47   42.80   1
  10  -1   1  212.18   37.00   1
 -10  -1  -1  263.47   40.80   1
  10  -1   1  245.98   38.90   1
 -10   1  -2 1380.76  111.09   1
  10   1   2 1415.26  109.39   1
 -10   1  -2 1307.47  108.09   1
  10   1   2 1538.55  107.79   1
 -10  -1  -2 1574.24  108.39   1
  10  -1   2 1437.86  108.59   1
 -10  -1  -2 1286.67  112.39   1
  10  -1   2 1448.85  110.29   1
 -10  -1  -2 1360.46  114.19   1
 -10   1  -3  184.58   31.70   1
  10   1   3  202.78   31.40   1
 -10   1  -3  218.88   32.00   1
  10   1   3  259.67   31.20   1
 -10   1  -3  213.08   33.10   1
 -10  -1  -3  227.18   35.50   1
 -10  -1  -3  215.48   31.20   1
  10  -1   3  220.38   31.70   1
  10  -1   3  235.78   31.40   1
 -10   1  -4   17.00   21.90   1
 -10   1  -4   37.70   23.00   1
 -10   1  -4   11.40   21.00   1
  10   1   4   23.90   18.20   1
  10   1   4   21.10   16.60   1
  10  -1   4   20.20   19.60   1
  10  -1   4   66.49   24.40   1
 -10  -1  -4   26.70   20.50   1
 -10  -1  -4   22.30   27.00   1
 -10   1  -5  209.68   38.00   1
  10   1   5  100.49   22.00   1
  10   1   5  113.89   30.10   1
 -10   1  -5  163.88   29.00   1
  10   1   5   92.29   23.60   1
 -10   1  -5  210.58   34.70   1
  10  -1   5  146.19   26.70   1
 -10  -1  -5  126.99   35.30   1
  10  -1   5  179.68   29.20   1
 -10  -1  -5   86.09   24.30   1
  10   1   6   30.60   26.00   1
 -10   1  -6   -7.60   21.40   1
 -10   1  -6   46.00   28.10   1
  10   1   6   29.90   18.40   1
  10   1   6   30.90   17.40   1
  10  -1   6   22.00   23.40   1
  10  -1   6   -0.30   19.60   1
 -10  -1  -6   36.00   27.60   1
 -10  -1  -6  -17.30   22.70   1
 -10   1  -7  247.18   35.30   1
  10   1   7  204.58   32.60   1
 -10   1  -7  246.48   44.40   1
  10   1   7  167.88   37.40   1
  10   1   7  229.68   29.60   1
  10  -1   7  236.88   39.80   1
 -10  -1  -7  221.18   34.30   1
  10  -1   7  209.38   31.70   1
 -10  -1  -7  209.68   37.50   1
  10   1   8   87.99   32.80   1
 -10   1  -8   72.39   27.80   1
 -10   1  -8   65.79   28.70   1
  10   1   8   50.39   23.90   1
 -10  -1  -8   49.80   26.60   1
 -10  -1  -8   72.39   29.80   1
  10  -1   8   33.10   21.00   1
  10  -1   8   74.89   28.00   1
  10   1   9   37.20   29.20   1
  10   1   9   -4.50   18.90   1
 -10   1  -9   24.70   27.90   1
 -10   1  -9   -0.30   26.80   1
 -10  -1  -9   70.79   32.70   1
  10  -1   9    9.70   21.40   1
  10  -1   9   13.30   30.70   1
  10  -1   9   -3.70   28.60   1
 -10  -1  -9   21.70   28.00   1
  10   1  10   85.09   24.20   1
 -10   1 -10   53.09   34.40   1
  10   1  10   90.29   34.40   1
 -10   1 -10   48.80   30.20   1
  10  -1  10   41.70   42.80   1
  10  -1  10   74.99   25.60   1
 -10  -1 -10  152.58   37.40   1
  10  -1  10   29.30   33.30   1
 -10  -1 -10   78.79   31.70   1
  10   1  11  238.88   37.20   1
 -10   1 -11  312.97   55.39   1
  10   1  11  224.48   45.90   1
 -10   1 -11  240.88   40.80   1
 -10  -1 -11  254.27   46.80   1
  10  -1  11  222.58   45.60   1
  10  -1  11  203.88   35.50   1
 -10  -1 -11  249.28   38.90   1
  10   1  12   89.29   41.00   1
  10   1  12   45.80   24.30   1
 -10   1 -12  118.79   31.00   1
 -10   1 -12  106.29   41.20   1
  10  -1  12   28.90   26.00   1
  10  -1  12   35.00   42.10   1
 -10  -1 -12   16.30   26.40   1
 -10  -1 -12  104.79   39.50   1
 -10   1 -13  372.56   66.99   1
  10   1  13  291.37   44.20   1
 -10   1 -13  295.97   49.00   1
  10  -1  13  273.87   57.29   1
  10  -1  13  347.47   45.20   1
 -10  -1 -13  196.08   38.60   1
  10   2 -15  253.77   53.19   1
  10   2 -15  378.76   60.19   1
  10   2 -15  364.86   65.69   1
 -10   2  15  298.07   44.50   1
 -10  -2  15  301.87   48.10   1
 -10  -2  15  234.48   54.99   1
  10  -2 -15  360.66   51.39   1
  10  -2 -15  385.56   62.89   1
  10   2 -14  312.37   54.49   1
  10   2 -14  331.87   61.19   1
 -10   2  14  338.27   45.00   1
  10   2 -14  390.66   55.49   1
 -10   2  14  394.56   63.59   1
 -10  -2  14  294.07   47.80   1
  10  -2 -14  377.36   48.10   1
  10  -2 -14  349.17   54.79   1
  10  -2 -14  321.87   55.59   1
 -10  -2  14  203.98   53.89   1
  10   2 -13  671.33   76.69   1
 -10   2  13  655.43   75.59   1
 -10   2  13  658.63   62.19   1
  10   2 -13  649.74   70.49   1
  10   2 -13  633.44   73.59   1
  10  -2 -13  677.13   65.59   1
 -10  -2  13  418.16   79.49   1
  10  -2 -13  648.64   62.79   1
 -10  -2  13  541.45   64.09   1
  10  -2 -13  746.33   70.49   1
  10   2 -12  485.85   56.89   1
 -10   2  12  462.65   51.99   1
 -10   2  12  517.45   65.69   1
  10   2 -12  517.45   61.39   1
  10   2 -12  467.95   64.39   1
  10  -2 -12  392.06   50.89   1
  10  -2 -12  484.25   53.59   1
 -10  -2  12  468.85   52.99   1
 -10  -2  12  375.66   66.49   1
  10  -2 -12  487.15   59.09   1
 -10   2  11  246.18   39.20   1
  10   2 -11  333.67   50.29   1
  10   2 -11  281.97   45.40   1
 -10   2  11  231.48   44.60   1
  10   2 -11  271.07   49.99   1
 -10  -2  11  248.18   38.00   1
  10  -2 -11  261.37   39.30   1
  10  -2 -11  257.67   45.80   1
  10  -2 -11  310.07   41.30   1
 -10   2  10  537.25   55.69   1
  10   2 -10  732.43   60.29   1
 -10   2  10  524.55   66.69   1
  10   2 -10  828.92   86.39   1
  10   2 -10  577.64   68.19   1
 -10  -2  10  543.45   66.99   1
  10  -2 -10  568.34   62.19   1
 -10  -2  10  538.85   55.09   1
  10  -2 -10  590.34   60.79   1
 -10   2   9  465.35   61.89   1
 -10   2   9  505.35   50.69   1
 -10   2   9  426.66   49.90   1
  10   2  -9  394.06   60.89   1
  10   2  -9  495.95   55.79   1
  10   2  -9  556.14   52.29   1
  10  -2  -9  531.45   55.79   1
  10  -2  -9  430.56   50.19   1
 -10  -2   9  557.64   49.20   1
 -10   2   8  574.34   52.99   1
 -10   2   8  555.84   52.49   1
  10   2  -8  509.85   54.29   1
  10   2  -8  520.55   57.29   1
 -10   2   8  461.45   61.69   1
  10   2  -8  497.75   61.89   1
 -10  -2   8  636.94   62.59   1
 -10  -2   8  613.24   51.49   1
  10  -2  -8  652.73   58.69   1
  10  -2  -8  529.25   54.29   1
  10   2  -7  176.08   31.50   1
 -10   2   7  192.38   29.90   1
 -10   2   7  197.48   30.40   1
  10   2  -7  183.88   38.00   1
  10   2  -7  200.68   31.00   1
 -10   2   7  158.58   33.20   1
  10  -2  -7  193.28   32.30   1
 -10  -2   7  251.27   41.10   1
 -10  -2   7  166.28   27.40   1
  10  -2  -7  206.98   35.10   1
 -10   2   6   12.60   21.50   1
 -10   2   6   12.10   24.60   1
 -10   2   6   11.20   17.30   1
  10   2  -6   -1.60   26.70   1
  10  -2  -6   18.00   23.20   1
  10  -2  -6  -15.00   22.00   1
 -10  -2   6   26.10   16.90   1
 -10  -2   6   31.40   22.80   1
 -10   2   5  182.68   32.70   1
  10   2  -5  165.38   29.00   1
  10   2  -5  194.18   32.60   1
 -10   2   5  196.78   28.40   1
  10   2  -5  148.49   28.60   1
 -10   2   5  135.99   32.20   1
  10  -2  -5  191.38   31.30   1
  10  -2  -5  156.58   28.90   1
 -10  -2   5  177.08   27.00   1
 -10  -2   5  190.18   34.70   1
 -10   2   4 1087.59   83.19   1
  10   2  -4 1114.19   85.69   1
  10   2  -4 1123.99   87.09   1
 -10   2   4 1031.30   84.49   1
  10   2  -4  930.61   86.89   1
 -10   2   4 1006.80   88.49   1
  10  -2  -4  966.00   85.49   1
 -10  -2   4 1034.00   85.39   1
  10  -2  -4 1118.29   86.49   1
  10   2  -3  255.47   34.20   1
 -10   2   3  216.88   33.50   1
 -10   2   3  228.68   39.40   1
  10   2  -3  248.28   38.90   1
  10   2  -3  263.67   34.10   1
 -10   2   3  240.78   30.50   1
  10   2  -3  247.98   39.50   1
  10  -2  -3  256.57   38.30   1
 -10  -2   3  231.08   36.10   1
  10  -2  -3  279.17   40.50   1
  10   2  -2  319.97   35.80   1
  10   2  -2  295.37   38.10   1
 -10   2   2  298.27   34.60   1
 -10   2   2  355.36   42.20   1
  10  -2  -2  307.47   41.60   1
  10  -2  -2  327.77   40.70   1
 -10  -2   2  324.67   39.60   1
  10   2  -1  583.24   54.79   1
  10   2  -1  588.04   54.39   1
  10   2  -1  522.05   58.29   1
 -10   2   1  653.03   57.99   1
 -10   2   1  713.93   52.49   1
 -10   2   1  603.54   55.99   1
  10  -2  -1  622.64   57.79   1
 -10  -2   1  639.34   59.19   1
  10  -2  -1  594.44   59.29   1
 -10   2   0  542.45   54.69   1
  10   2   0  565.14   51.89   1
 -10   2   0  626.34   48.80   1
 -10   2   0  639.94   54.89   1
  10   2   0  574.44   51.99   1
  10   2   0  474.25   55.39   1
  10  -2   0  653.63   54.69   1
 -10  -2   0  566.74   57.49   1
 -10  -2   0  525.05   58.29   1
  10  -2   0  567.54   57.89   1
 -10   2  -1 1390.76  111.59   1
 -10   2  -1 1425.96  110.69   1
  10   2   1 1415.16  111.39   1
  10   2   1 1585.04  110.59   1
  10   2   1 1368.56  110.09   1
  10  -2   1 1457.45  110.89   1
  10  -2   1 1404.36  113.29   1
 -10  -2  -1 1398.06  115.49   1
 -10  -2  -1 1395.66  115.49   1
 -10   2  -2 1098.39  105.39   1
  10   2   2 1239.48  100.09   1
 -10   2  -2 1208.48   95.49   1
  10   2   2 1239.98   96.09   1
  10   2   2 1119.29   94.59   1
  10  -2   2 1208.58   98.99   1
 -10  -2  -2 1240.18  101.19   1
 -10   2  -3   83.89   26.70   1
  10   2   3   77.79   25.00   1
  10   2   3  111.49   26.70   1
  10   2   3  101.29   27.00   1
 -10   2  -3   45.20   22.20   1
 -10   2  -3   72.29   22.40   1
  10  -2   3   53.29   21.80   1
  10  -2   3   90.69   28.50   1
 -10  -2  -3   95.79   51.49   1
  10   2   4  238.68   37.60   1
 -10   2  -4  255.77   37.90   1
  10   2   4  363.16   41.90   1
 -10   2  -4  306.27   39.20   1
 -10   2  -4  239.78   38.60   1
  10   2   4  288.67   33.90   1
 -10  -2  -4  172.28   39.00   1
  10  -2   4  286.97   46.00   1
  10   2   5  406.86   47.30   1
 -10   2  -5  440.26   48.30   1
  10   2   5  414.86   54.59   1
 -10   2  -5  363.26   47.80   1
 -10   2  -5  464.05   50.09   1
  10   2   5  412.36   43.40   1
  10  -2   5  369.46   42.80   1
 -10  -2  -5  418.96   55.69   1
  10  -2   5  398.66   55.29   1
 -10   2  -6  459.75   52.79   1
  10   2   6  520.35   61.69   1
  10   2   6  502.05   47.80   1
  10   2   6  485.65   48.50   1
 -10   2  -6  554.94   53.79   1
 -10   2  -6  371.06   50.39   1
 -10  -2  -6  502.35   60.09   1
 -10  -2  -6  399.46   52.39   1
  10  -2   6  401.36   47.00   1
  10  -2   6  397.86   55.49   1
 -10   2  -7  233.08   37.30   1
  10   2   7  253.87   36.00   1
 -10   2  -7  255.37   40.70   1
  10   2   7  284.37   49.70   1
 -10   2  -7  309.27   45.00   1
  10  -2   7  236.68   35.60   1
  10  -2   7  305.67   47.00   1
 -10  -2  -7  297.17   44.60   1
 -10  -2  -7  178.08   38.20   1
 -10   2  -8  397.66   51.29   1
 -10   2  -8  407.16   51.79   1
 -10   2  -8  465.15   54.29   1
  10   2   8  338.67   55.09   1
  10   2   8  355.16   43.60   1
 -10  -2  -8  361.86   50.79   1
  10  -2   8  368.56   45.00   1
 -10  -2  -8  450.35   59.49   1
  10  -2   8  338.07   51.69   1
 -10   2  -9  482.45   58.29   1
  10   2   9  369.76   61.19   1
  10   2   9  393.76   45.00   1
 -10   2  -9  345.97   51.49   1
 -10  -2  -9  498.75   52.39   1
  10  -2   9  370.86   48.90   1
 -10  -2  -9  425.46   61.19   1
  10  -2   9  403.36   55.89   1
 -10   2 -10   77.19   35.00   1
 -10   2 -10   65.49   30.30   1
  10   2  10   24.70   24.00   1
  10   2  10   50.69   37.20   1
 -10  -2 -10   73.49   35.30   1
  10  -2  10   52.29   26.80   1
  10  -2  10   16.70   33.10   1
 -10  -2 -10   84.19   36.00   1
 -10   2 -11  119.09   38.30   1
  10   2  11   84.99   27.30   1
 -10   2 -11  210.68   43.00   1
 -10  -2 -11  112.49   38.30   1
  10  -2  11   75.99   32.10   1
  10  -2  11   95.59   42.90   1
 -10  -2 -11  153.88   40.30   1
 -10   2 -12   20.60   31.00   1
 -10   2 -12   86.09   42.70   1
  10   2  12    2.20   24.80   1
 -10  -2 -12   81.99   39.30   1
  10  -2  12   26.50   42.00   1
  10  -2  12    7.60   27.10   1
  10   3 -14  544.85   69.79   1
  10   3 -14  580.64   81.89   1
 -10   3  14  538.25   57.59   1
  10  -3 -14  444.06   62.19   1
  10  -3 -14  469.05   63.49   1
  10   3 -13  445.36   59.79   1
  10   3 -13  266.77   57.49   1
  10   3 -13  428.36   63.99   1
 -10   3  13  451.85   50.69   1
  10  -3 -13  297.87   53.09   1
  10  -3 -13  326.77   51.39   1
 -10  -3  13  386.96   52.89   1
  10  -3 -13  531.35   71.89   1
 -10   3  12  194.08   46.20   1
  10   3 -12   49.10   39.60   1
 -10   3  12  149.19   34.70   1
  10   3 -12  165.58   40.80   1
  10   3 -12  107.89   46.70   1
  10  -3 -12  191.88   36.30   1
  10  -3 -12  200.08   43.50   1
 -10  -3  12  140.09   36.20   1
  10   3 -11   47.40   37.10   1
 -10   3  11  142.69   32.30   1
  10   3 -11   79.59   35.90   1
  10   3 -11  117.89   39.00   1
 -10   3  11  175.48   42.00   1
 -10   3  11  113.29   34.70   1
 -10  -3  11  -36.40   39.60   1
 -10  -3  11  126.89   31.90   1
  10  -3 -11   91.29   37.40   1
  10  -3 -11   95.69   33.00   1
 -10   3  10  116.19   28.00   1
  10   3 -10   73.19   33.10   1
 -10   3  10   98.99   39.20   1
  10   3 -10   63.49   37.50   1
 -10   3  10   72.69   30.10   1
  10   3 -10   58.29   32.40   1
 -10  -3  10   92.69   25.90   1
  10  -3 -10  119.09   30.60   1
  10  -3 -10   41.20   32.80   1
 -10  -3  10   64.89   36.20   1
 -10   3   9  491.45   65.19   1
  10   3  -9  391.06   58.19   1
 -10   3   9  425.46   51.19   1
  10   3  -9  516.65   53.99   1
  10   3  -9  421.16   60.59   1
 -10   3   9  401.76   52.29   1
  10  -3  -9  435.86   53.49   1
  10  -3  -9  514.95   59.29   1
 -10  -3   9  435.76   47.10   1
 -10  -3   9  510.55   62.19   1
 -10   3   8   -8.00   25.40   1
  10   3  -8    0.80   26.00   1
  10   3  -8   23.50   29.20   1
 -10   3   8    5.00   24.50   1
  10   3  -8  -46.50   29.40   1
 -10   3   8   22.40   33.40   1
 -10  -3   8   16.80   28.90   1
 -10  -3   8   24.50   21.80   1
  10  -3  -8   33.90   28.70   1
  10  -3  -8  -26.20   28.30   1
 -10   3   7  200.08   40.10   1
  10   3  -7  183.38   41.10   1
  10   3  -7  212.18   37.60   1
 -10   3   7  134.59   33.80   1
  10   3  -7  211.68   36.10   1
 -10   3   7  205.08   32.70   1
  10  -3  -7  231.08   38.20   1
 -10  -3   7  215.08   30.30   1
 -10  -3   7  138.99   35.00   1
  10  -3  -7  276.47   39.50   1
 -10   3   6  -14.50   42.50   1
  10   3  -6    1.50   26.90   1
 -10   3   6  -11.90   32.50   1
  10   3  -6    3.30   28.90   1
  10   3  -6   38.30   26.10   1
 -10   3   6    8.50   23.70   1
 -10  -3   6   18.30   20.00   1
  10  -3  -6   -4.00   25.10   1
  10  -3  -6   37.70   27.30   1
 -10  -3   6  -37.80   25.70   1
  10   3  -5   69.99   27.10   1
 -10   3   5   69.59   25.10   1
 -10   3   5   35.90   32.30   1
 -10   3   5   48.10   27.70   1
  10   3  -5   65.09   31.70   1
 -10  -3   5   -3.10   23.50   1
  10  -3  -5   48.80   29.30   1
  10  -3  -5   45.20   25.00   1
 -10  -3   5   67.09   20.20   1
 -10   3   4   58.79   24.60   1
 -10   3   4   22.40   27.10   1
  10   3  -4   24.10   29.50   1
  10   3  -4   75.49   28.90   1
 -10   3   4   15.10   29.00   1
  10  -3  -4   25.70   24.10   1
 -10  -3   4   28.40   24.70   1
  10  -3  -4   41.00   26.80   1
  10   3  -3   25.80   28.80   1
 -10   3   3  -17.40   25.70   1
 -10   3   3   -4.10   19.20   1
 -10   3   3   -6.90   26.00   1
  10   3  -3   10.20   20.80   1
  10   3  -3   18.40   26.90   1
  10  -3  -3   59.69   28.00   1
  10  -3  -3   22.90   21.90   1
 -10  -3   3   -0.60   24.30   1
 -10  -3   3  -30.70   24.20   1
 -10   3   2  108.19   31.90   1
 -10   3   2  228.88   29.50   1
  10   3  -2  181.28   34.40   1
 -10   3   2  206.28   36.40   1
  10   3  -2  195.08   37.10   1
 -10  -3   2  161.78   34.60   1
  10  -3  -2  189.88   35.40   1
 -10  -3   2  186.98   32.30   1
  10  -3  -2  186.98   31.20   1
 -10   3   1  168.38   25.20   1
  10   3  -1  148.69   28.20   1
  10   3  -1  148.69   34.40   1
 -10   3   1  200.08   36.70   1
  10   3  -1  125.79   29.70   1
 -10  -3   1  145.49   33.20   1
  10  -3  -1  166.98   29.90   1
 -10  -3   1  177.68   34.80   1
  10  -3  -1  193.78   37.30   1
 -10   3   0  330.07   38.10   1
 -10   3   0  421.76   50.29   1
  10   3   0  342.87   44.60   1
  10   3   0  428.46   53.59   1
  10   3   0  374.66   40.70   1
  10  -3   0  319.47   51.79   1
 -10  -3   0  393.36   55.29   1
  10  -3   0  391.36   43.20   1
 -10  -3   0  295.17   50.89   1
  10   3   1  176.08   31.90   1
  10   3   1  137.49   29.50   1
 -10   3  -1   63.39   29.00   1
  10   3   1  140.29   35.20   1
 -10   3  -1  130.49   23.00   1
 -10  -3  -1  144.79   33.10   1
  10  -3   1  174.98   37.00   1
 -10  -3  -1  149.59   60.49   1
 -10   3  -2  611.54   53.49   1
  10   3   2  681.83   61.39   1
  10   3   2  621.04   57.89   1
  10   3   2  554.74   64.99   1
 -10   3  -2  685.73   64.19   1
  10  -3   2  637.04   68.29   1
 -10  -3  -2  657.73   64.49   1
 -10  -3  -2  626.44   71.09   1
  10   3   3  405.16   57.79   1
 -10   3  -3  466.75   40.20   1
  10   3   3  399.56   46.10   1
 -10   3  -3  439.36   51.69   1
  10   3   3  395.06   48.30   1
  10  -3   3  468.45   57.79   1
 -10  -3  -3  405.36   58.19   1
 -10   3  -4  182.48   37.60   1
  10   3   4  214.18   42.90   1
  10   3   4  180.28   30.60   1
  10   3   4  253.07   40.70   1
 -10   3  -4  312.27   29.00   1
 -10  -3  -4  164.98   41.10   1
  10  -3   4  227.28   41.90   1
  10   3   5  243.78   40.40   1
 -10   3  -5  144.79   35.20   1
  10   3   5  173.48   29.30   1
  10  -3   5  216.28   40.00   1
 -10  -3  -5  154.38   37.90   1
  10   3   6  137.59   34.40   1
  10   3   6  150.48   29.50   1
  10   3   6  195.18   40.60   1
 -10   3  -6  153.18   39.50   1
 -10  -3  -6  164.48   39.40   1
  10  -3   6  200.68   40.80   1
  10   3   7  133.69   28.50   1
 -10   3  -7  154.88   36.90   1
  10   3   7  144.09   38.70   1
  10  -3   7  126.39   42.70   1
  10  -3   7  164.78   39.10   1
 -10  -3  -7   91.49   37.20   1
 -10   3  -8   74.09   36.60   1
  10   3   8  100.49   42.30   1
  10   3   8  124.89   30.70   1
 -10  -3  -8   91.79   38.70   1
 -10  -3  -8   95.99   36.30   1
  10  -3   8  137.19   38.60   1
  10  -3   8  136.49   36.20   1
  10   3   9    6.10   24.50   1
  10   3   9   14.60   40.00   1
 -10   3  -9    0.10   34.40   1
  10  -3   9    3.50   33.60   1
  10  -3   9  -16.40   35.30   1
 -10  -3  -9  -43.60   34.00   1
 -10  -3  -9    5.40   35.70   1
 -10   3 -10   16.70   39.80   1
 -10   3 -10   60.19   39.20   1
  10   3  10   61.59   27.70   1
 -10  -3 -10   54.99   38.30   1
  10  -3  10   56.79   39.90   1
  10   4 -10  129.99   41.00   1
  10   4 -10  170.58   50.99   1
 -10   4  10  142.19   37.40   1
 -10   4  10  127.29   35.80   1
 -10   4  10  176.68   45.90   1
 -10  -4  10   27.40   51.09   1
  10  -4 -10  178.78   45.70   1
  10  -4 -10  217.38   43.10   1
 -10   4   9  297.57   42.70   1
 -10   4   9  235.98   41.70   1
  10   4  -9  292.77   61.69   1
  10   4  -9  209.08   44.20   1
  10  -4  -9  279.47   47.00   1
  10  -4  -9  221.48   46.80   1
 -10   4   8  341.87   46.80   1
  10   4  -8  217.48   44.10   1
  10   4  -8  320.57   55.99   1
 -10   4   8  126.59   45.00   1
 -10   4   8  274.07   42.40   1
 -10  -4   8  307.17   43.50   1
  10  -4  -8  339.17   47.80   1
  10  -4  -8  253.57   49.99   1
 -10  -4   8  168.58   47.60   1
 -10   4   7   49.99   27.80   1
 -10   4   7   24.90   39.30   1
 -10   4   7   27.10   30.60   1
  10   4  -7  -48.70   38.30   1
  10   4  -7  -24.10   29.80   1
  10  -4  -7  -16.00   34.90   1
 -10  -4   7  -50.79   38.80   1
  10  -4  -7    1.60   33.20   1
 -10  -4   7  -23.20   25.00   1
 -10   4   6  108.79   29.50   1
  10   4  -6   65.49   40.40   1
 -10   4   6   89.29   32.00   1
  10   4  -6  113.59   37.80   1
 -10   4   6  106.39   40.70   1
  10  -4  -6   79.69   32.90   1
 -10  -4   6  174.88   30.40   1
  10  -4  -6  157.88   37.40   1
 -10  -4   6   47.50   36.50   1
 -10   4   5  -10.00   28.70   1
 -10   4   5   18.90   24.30   1
 -10   4   5  -19.70   33.50   1
  10   4  -5  -24.90   34.60   1
  10   4  -5   84.59   34.80   1
  10  -4  -5   21.40   30.90   1
  10  -4  -5   12.40   30.20   1
 -10  -4   5   27.40   26.00   1
 -10  -4   5  -13.40   35.40   1
 -10   4   4  159.68   40.10   1
  10   4  -4  134.09   38.60   1
 -10   4   4   55.99   34.30   1
 -10   4   4  158.48   31.10   1
  10   4  -4  136.99   44.10   1
  10  -4  -4  152.18   35.20   1
 -10  -4   4  207.28   40.70   1
  10  -4  -4  131.79   38.40   1
 -10  -4   4  204.98   41.10   1
 -10   4   3  436.16   54.89   1
  10   4  -3  428.56   56.59   1
 -10   4   3  394.46   45.30   1
  10   4  -3  337.87   56.79   1
  10   4  -3  375.06   48.70   1
  10  -4  -3  445.76   54.49   1
 -10  -4   3  315.87   56.79   1
 -10  -4   3  488.25   63.49   1
  10  -4  -3  434.06   57.39   1
 -10   4   2  396.66   50.39   1
 -10   4   2  252.17   37.80   1
  10   4  -2  194.28   47.90   1
  10   4  -2  196.18   39.40   1
  10   4  -2  256.97   40.90   1
 -10  -4   2  229.78   52.49   1
  10  -4  -2  338.87   52.79   1
 -10  -4   2  341.17   58.89   1
  10   4  -1  119.99   29.70   1
  10   4  -1  109.09   42.30   1
  10   4  -1   70.09   31.90   1
 -10   4   1  132.09   30.00   1
 -10   4   1  155.48   38.40   1
  10  -4  -1  156.88   37.60   1
 -10  -4   1   73.89   34.30   1
  10   4   0   47.50   27.90   1
 -10   4   0   46.20   32.00   1
  10   4   0   -4.80   36.90   1
  10   4   0   30.00   28.40   1
 -10  -4   0   81.49   37.30   1
 -10  -4   0  125.49   36.70   1
  10  -4   0   70.99   32.90   1
  10   4   1   43.70   27.50   1
  10   4   1   27.70   27.40   1
  10   4   1   92.19   40.70   1
 -10   4  -1   63.89   32.70   1
 -10  -4  -1   37.20   35.50   1
 -10  -4  -1   10.50   35.90   1
  10  -4   1   76.69   35.80   1
 -10   4  -2   44.40   35.30   1
  10   4   2    6.90   28.20   1
  10   4   2   57.19   27.60   1
 -10  -4  -2   44.90   35.50   1
  10  -4   2   63.79   36.00   1
 -10  -4  -2   66.59   38.90   1
 -10   4  -3   90.99   34.70   1
  10   4   3   73.09   31.70   1
  10   4   3   50.19   26.80   1
  10  -4   3   56.29   36.20   1
 -10  -4  -3  114.69   37.50   1
 -10  -4  -3  127.49   39.90   1
  10   4   4  413.86   56.69   1
  10   4   4  391.86   50.49   1
 -10   4  -4  491.25   59.79   1
 -10  -4  -4  497.35   65.49   1
  10  -4   4  479.15   65.39   1
 -10  -4  -4  481.55   71.59   1
 -10  -4  -4  462.45   68.69   1
  10   4   5   85.89   26.00   1
  10   4   5  134.59   37.50   1
 -10   4  -5   84.29   36.60   1
 -10  -4  -5  153.58   43.50   1
 -10  -4  -5  143.89   47.60   1
  10  -4   5  117.69   39.10   1
 -10   4  -6   65.49   46.60   1
  10   4   6   86.09   29.50   1
  10   4   6   79.39   38.20   1
 -10  -4  -6   63.09   42.90   1
  10  -4   6   86.39   45.60   1
 -10  -4  -6   49.40   40.70   1
  10   4   7  118.79   33.10   1
  10   4   7  120.09   50.79   1
 -10   4  -7   96.69   40.20   1
  10   4   7  172.58   40.80   1
  10  -4   7  214.68   47.90   1
  11   0 -17    9.40   40.30   1
 -11   0  17   41.30   29.90   1
  11   0 -17  -19.40   32.80   1
  11   0 -16   22.60   36.80   1
  11   0 -16  -12.20   35.10   1
  11   0 -16   23.30   31.40   1
 -11   0  16   -3.60   26.90   1
  11   0 -15   11.60   35.20   1
  11   0 -15  -11.00   29.00   1
 -11   0  15  -16.30   36.80   1
 -11   0  15  -41.00   24.80   1
  11   0 -15  -22.00   37.20   1
  11   0 -14    5.80   32.80   1
 -11   0  14  -21.50   35.30   1
 -11   0  14    5.40   24.10   1
  11   0 -14  -40.50   24.30   1
  11   0 -14   20.00   32.60   1
 -11   0  13  -29.20   34.30   1
  11   0 -13   34.90   41.20   1
  11   0 -13   65.49   30.90   1
  11   0 -13   15.70   31.50   1
 -11   0  13   53.69   29.40   1
  11   0 -12   25.80   22.60   1
  11   0 -12  -16.70   26.20   1
  11   0 -12   -4.50   27.20   1
 -11   0  12    9.20   24.30   1
 -11   0  12  -22.20   29.20   1
 -11   0  11    8.60   27.20   1
  11   0 -11   17.70   25.40   1
 -11   0  11   -3.70   21.00   1
  11   0 -11    1.90   25.60   1
  11   0 -10   10.80   24.00   1
 -11   0  10   11.50   19.50   1
 -11   0  10   -4.00   26.80   1
  11   0 -10  -24.80   23.10   1
  11   0 -10   17.40   19.00   1
  11   0  -9   16.70   17.40   1
 -11   0   9   26.70   20.40   1
  11   0  -9   24.20   23.30   1
  11   0  -9    8.40   24.50   1
 -11   0   9   -4.30   25.10   1
  11   0  -8   46.30   22.50   1
 -11   0   8    2.60   18.20   1
  11   0  -8   10.50   15.30   1
  11   0  -8    7.20   20.90   1
 -11   0   8   44.90   27.30   1
  11   0  -7    1.30   21.70   1
  11   0  -7  -14.70   12.10   1
  11   0  -7   15.10   21.60   1
 -11   0   7   30.10   17.90   1
 -11   0   7   44.90   27.50   1
 -11   0   6   35.90   25.30   1
 -11   0   6   55.79   25.40   1
  11   0  -6   17.50   24.90   1
  11   0  -6   39.60   22.10   1
 -11   0   5  -12.40   23.20   1
  11   0  -5   11.50   21.30   1
  11   0  -5   -1.50   20.10   1
 -11   0   5   -8.70   16.00   1
 -11   0   4    1.80   18.20   1
  11   0  -4   49.20   20.20   1
  11   0  -4   12.10   22.30   1
 -11   0   4   40.30   23.20   1
  11   0  -3   65.69   20.60   1
 -11   0   3   59.69   22.90   1
  11   0  -3   37.20   22.30   1
 -11   0   2   96.39   14.10   1
  11   0  -2  118.69   24.30   1
  11   0  -2   95.69   24.10   1
 -11   0   2  103.39   27.10   1
  11   0  -2   95.39   24.10   1
  11   0  -1    1.20   20.20   1
 -11   0   1   36.10   23.30   1
  11   0  -1   21.50   20.10   1
  11   0  -1   32.90   21.20   1
 -11   0   1   28.30   10.90   1
 -11   0   0    3.90   12.90   1
  11   0   0  -11.10   18.10   1
  11   0   0   -4.40   19.30   1
 -11   0   0  -14.10   20.80   1
  11   0   0    3.60   22.50   1
 -11   0  -1   40.90   23.70   1
 -11   0  -1   38.90   15.80   1
  11   0   1  -12.80   26.90   1
  11   0   1   38.60   19.90   1
  11   0   2   14.00   17.80   1
 -11   0  -2  -11.70   16.40   1
 -11   0  -2  -24.60   21.40   1
 -11   0  -2   -5.10   22.40   1
  11   0   2    7.30   24.10   1
 -11   0  -3   54.69   19.40   1
 -11   0  -3   35.50   25.10   1
  11   0   3  -11.20   24.60   1
 -11   0  -3   -7.50   22.40   1
  11   0   3   39.00   20.50   1
 -11   0  -4   65.99   25.60   1
  11   0   4   46.40   20.00   1
 -11   0  -4   66.29   21.00   1
 -11   0  -4   43.80   25.10   1
  11   0   4   57.09   20.30   1
  11   0   5    9.80   19.60   1
 -11   0  -5   31.40   20.30   1
 -11   0  -5  -10.70   22.40   1
  11   0   5  -21.30   20.00   1
  11   0   6    3.80   20.40   1
 -11   0  -6   -8.30   26.50   1
 -11   0  -6  -19.50   18.80   1
  11   0   6  -12.70   18.80   1
  11   0   7   46.70   23.10   1
 -11   0  -7  105.09   31.30   1
 -11   0  -7   87.99   26.10   1
  11   0   7   67.09   21.20   1
 -11   0  -8   -8.60   28.20   1
  11   0   8    3.10   22.20   1
 -11   0  -8   24.10   24.90   1
  11   0   8    5.10   17.80   1
  11   0   8  -35.90   27.70   1
  11   0   9   22.60   24.90   1
  11   0   9   49.10   32.60   1
 -11   0  -9   53.69   31.30   1
 -11   0  -9   18.00   25.80   1
  11   0   9    9.00   22.50   1
 -11   0 -10   69.99   33.30   1
  11   0  10   -6.70   21.10   1
  11   0  10   39.10   33.20   1
 -11   0 -10  -46.00   23.60   1
  11   0  11  -34.00   23.50   1
  11   0  11  -19.90   36.40   1
 -11   0 -11   -7.90   32.40   1
 -11   0 -11   -3.30   27.00   1
  11   0  12   20.30   43.00   1
  11   0  12   19.90   24.40   1
 -11   0 -12   78.49   32.60   1
 -11   0 -12   88.19   37.50   1
  11   0  13   -9.30   25.40   1
 -11   0 -13  -11.30   27.60   1
 -11   0 -13   15.90   37.50   1
  11   1 -16   32.90   43.20   1
  11   1 -16  -22.80   33.70   1
 -11   1  16   12.90   23.90   1
  11   1 -16  -47.20   38.70   1
  11  -1 -16  -10.80   29.00   1
 -11  -1  16  -10.20   42.50   1
  11  -1 -16   81.99   39.60   1
 -11  -1  16    1.00   28.10   1
  11   1 -15    4.10   38.40   1
 -11   1  15   13.90   26.70   1
  11   1 -15   62.49   35.00   1
  11   1 -15   51.89   41.60   1
 -11   1  15   35.30   52.99   1
  11  -1 -15   25.10   35.20   1
 -11  -1  15   -1.10   26.90   1
  11  -1 -15    8.20   32.60   1
  11  -1 -15   34.60   26.50   1
 -11  -1  15  -37.70   39.30   1
  11   1 -14   50.29   35.00   1
  11   1 -14  -33.00   34.20   1
 -11   1  14   23.80   26.40   1
 -11   1  14   20.50   38.00   1
  11   1 -14   53.29   35.80   1
  11  -1 -14   -8.30   24.50   1
  11  -1 -14   59.59   33.60   1
  11  -1 -14   68.79   32.50   1
 -11  -1  14   41.40   28.00   1
 -11  -1  14  -21.40   38.10   1
  11   1 -13    9.30   29.50   1
  11   1 -13   -3.00   32.10   1
 -11   1  13  -18.20   21.20   1
  11   1 -13   -6.80   28.40   1
 -11   1  13  -14.40   35.30   1
 -11  -1  13    3.50   34.30   1
  11  -1 -13   32.60   31.10   1
  11  -1 -13   -7.50   30.40   1
  11  -1 -13   16.10   20.70   1
 -11  -1  13  -10.10   25.60   1
  11   1 -12   32.90   28.40   1
 -11   1  12   50.79   25.80   1
  11   1 -12   12.80   28.90   1
 -11   1  12   47.70   36.10   1
  11   1 -12   79.39   31.30   1
  11  -1 -12   89.39   26.20   1
  11  -1 -12   41.30   29.30   1
  11  -1 -12   18.80   27.30   1
 -11  -1  12   75.59   35.00   1
 -11  -1  12   42.90   23.40   1
 -11   1  11   -1.00   28.50   1
  11   1 -11   12.20   25.90   1
  11   1 -11   11.50   26.40   1
  11   1 -11   -2.50   25.90   1
 -11   1  11   20.80   22.00   1
  11  -1 -11   19.10   22.50   1
 -11  -1  11   21.60   22.40   1
  11  -1 -11   27.20   26.20   1
 -11  -1  11  -16.00   28.10   1
  11  -1 -11   26.70   27.10   1
 -11   1  10  -24.20   18.70   1
  11   1 -10   11.00   24.90   1
  11   1 -10  -11.00   24.80   1
  11   1 -10   18.60   25.80   1
 -11   1  10   -5.90   27.30   1
  11  -1 -10  -29.90   22.50   1
 -11  -1  10   22.70   29.70   1
  11  -1 -10   35.90   25.30   1
 -11  -1  10   -1.50   18.50   1
  11  -1 -10   11.20   24.00   1
  11   1  -9   53.19   27.60   1
  11   1  -9   84.19   22.30   1
 -11   1   9   86.79   21.30   1
 -11   1   9  118.79   30.10   1
  11  -1  -9   87.39   20.00   1
 -11  -1   9   90.09   30.40   1
  11  -1  -9  115.29   26.40   1
 -11  -1   9   56.79   23.10   1
  11  -1  -9  112.19   28.50   1
 -11   1   8   29.60   27.80   1
 -11   1   8   72.09   20.60   1
  11   1  -8  -11.50   21.50   1
  11   1  -8   40.90   18.70   1
  11   1  -8   47.40   24.50   1
  11  -1  -8   74.59   22.50   1
 -11  -1   8    2.60   30.60   1
  11  -1  -8   61.59   25.70   1
  11  -1  -8   48.80   16.50   1
 -11  -1   8   40.30   18.70   1
 -11   1   7  141.69   32.30   1
  11   1  -7  132.29   21.20   1
  11   1  -7  118.29   27.70   1
  11   1  -7   82.29   26.50   1
 -11   1   7  132.19   24.40   1
  11  -1  -7  153.78   26.90   1
 -11  -1   7   94.89   22.00   1
 -11  -1   7  112.89   29.70   1
  11  -1  -7  118.99   27.90   1
  11  -1  -7   86.89   18.30   1
  11   1  -6   50.89   16.50   1
  11   1  -6   41.10   21.90   1
 -11   1   6    8.00   15.00   1
 -11   1   6   66.59   18.60   1
  11   1  -6   50.19   24.50   1
 -11   1   6   71.99   26.00   1
  11  -1  -6   35.40   21.10   1
 -11  -1   6   37.90   24.70   1
  11  -1  -6   50.19   22.10   1
  11   1  -5   55.79   22.70   1
 -11   1   5   53.79   20.70   1
 -11   1   5   41.50   25.40   1
 -11   1   5   54.89   14.30   1
  11   1  -5   58.19   16.50   1
  11   1  -5   47.80   22.00   1
  11  -1  -5   34.60   21.50   1
 -11  -1   5   29.70   20.10   1
 -11  -1   5   81.19   25.30   1
 -11   1   4  116.39   18.70   1
  11   1  -4  132.19   19.90   1
 -11   1   4  175.28   29.10   1
  11   1  -4  103.49   24.10   1
 -11   1   4  117.89   22.80   1
  11  -1  -4  128.59   26.10   1
  11  -1  -4  132.29   28.30   1
 -11  -1   4  103.29   26.20   1
  11   1  -3    4.30   12.50   1
  11   1  -3   11.20   17.90   1
 -11   1   3    1.60   22.40   1
 -11   1   3   -9.60   15.50   1
 -11   1   3    8.00   13.50   1
  11   1  -3   -1.40   19.30   1
  11   1  -3    9.30   20.30   1
 -11  -1   3   13.40   22.40   1
  11  -1  -3   34.00   20.40   1
  11  -1  -3   -3.70   19.30   1
  11   1  -2  103.79   22.50   1
  11   1  -2  122.39   20.30   1
  11   1  -2  101.59   24.00   1
 -11   1   2  135.49   20.30   1
 -11   1   2  125.59   25.90   1
  11   1  -2  130.49   30.30   1
 -11   1   2  112.59   21.40   1
  11  -1  -2  127.59   26.10   1
 -11  -1   2  140.19   29.00   1
  11  -1  -2  112.79   25.70   1
  11   1  -1  177.98   24.30   1
  11   1  -1  160.48   26.10   1
 -11   1   1  147.59   24.20   1
  11   1  -1  219.68   29.20   1
 -11   1   1  215.38   35.80   1
  11  -1  -1  165.78   28.40   1
 -11  -1   1  207.78   37.00   1
  11  -1  -1  141.89   28.50   1
 -11   1   0   16.60   17.60   1
  11   1   0   18.50   19.80   1
 -11   1   0   32.80   21.40   1
  11   1   0   58.79   20.20   1
  11  -1   0   19.20   22.60   1
 -11  -1   0   21.00   25.20   1
  11  -1   0   64.59   22.30   1
  11  -1   0   38.80   19.70   1
 -11   1  -1  219.88   37.80   1
  11   1   1  268.77   42.30   1
 -11   1  -1  258.17   31.80   1
  11  -1   1  279.17   34.70   1
 -11  -1  -1  246.58   42.40   1
  11  -1   1  285.67   39.70   1
 -11  -1  -1  245.08   41.40   1
  11   1   2   -6.00   17.80   1
 -11   1  -2   -4.60   18.70   1
  11   1   2    6.80   18.80   1
 -11   1  -2  -14.70   21.00   1
  11  -1   2   30.10   22.50   1
 -11  -1  -2   31.00   23.90   1
  11  -1   2    2.50   18.60   1
 -11  -1  -2   -8.20   23.60   1
  11   1   3   84.09   24.80   1
 -11   1  -3   94.49   24.60   1
 -11   1  -3   77.49   24.20   1
 -11   1  -3   81.29   25.00   1
  11   1   3   99.09   20.60   1
 -11  -1  -3   98.59   30.70   1
  11  -1   3  119.49   26.60   1
 -11  -1  -3  102.29   22.30   1
  11  -1   3  134.19   26.80   1
 -11  -1  -3   71.49   27.40   1
 -11   1  -4   25.60   22.50   1
  11   1   4   13.00   18.80   1
  11   1   4   14.90   18.40   1
 -11   1  -4   25.60   23.20   1
 -11   1  -4   17.60   23.90   1
  11  -1   4   41.40   22.40   1
 -11  -1  -4   12.40   27.20   1
 -11  -1  -4   -0.70   23.10   1
  11  -1   4   -1.60   23.60   1
 -11   1  -5   34.50   24.20   1
  11   1   5  -10.00   19.40   1
  11   1   5   18.20   19.00   1
 -11   1  -5   26.20   23.90   1
 -11   1  -5    3.90   21.40   1
  11  -1   5   33.60   23.80   1
 -11  -1  -5  -36.10   24.60   1
 -11  -1  -5   10.70   21.50   1
  11  -1   5  -13.90   18.70   1
  11   1   6   62.09   20.50   1
 -11   1  -6   55.29   24.80   1
  11   1   6   46.30   20.80   1
 -11   1  -6   76.99   30.10   1
  11   1   6   57.89   29.00   1
 -11  -1  -6   90.29   28.60   1
 -11  -1  -6   48.20   29.20   1
  11  -1   6   71.99   26.40   1
  11  -1   6  103.29   23.50   1
  11   1   7   22.50   19.60   1
  11   1   7  -20.70   26.10   1
  11   1   7   14.90   18.20   1
 -11   1  -7   -3.80   22.30   1
 -11   1  -7   23.60   31.20   1
  11  -1   7  -26.10   29.50   1
 -11  -1  -7   14.60   29.50   1
 -11  -1  -7   63.09   26.70   1
  11  -1   7    6.90   21.00   1
  11   1   8   11.20   21.60   1
 -11   1  -8   -1.30   23.70   1
  11   1   8   13.80   29.90   1
 -11   1  -8   22.60   28.20   1
 -11  -1  -8   -8.20   29.20   1
 -11  -1  -8   -9.60   27.10   1
  11  -1   8    6.20   19.90   1
 -11   1  -9    5.00   23.50   1
 -11   1  -9   17.30   30.90   1
  11   1   9    8.90   33.20   1
  11   1   9   11.20   20.10   1
 -11  -1  -9   28.50   30.90   1
 -11  -1  -9    2.70   29.20   1
  11  -1   9    8.60   20.80   1
  11  -1   9   12.80   32.60   1
  11   1  10   57.79   25.40   1
 -11   1 -10   37.20   26.10   1
  11   1  10   43.60   37.50   1
 -11   1 -10   10.40   33.70   1
  11  -1  10   28.70   23.30   1
 -11  -1 -10   26.80   32.00   1
 -11  -1 -10   37.70   23.40   1
  11  -1  10   72.89   32.30   1
 -11   1 -11  -21.10   25.20   1
  11   1  11    0.20   22.60   1
  11   1  11   23.00   36.20   1
 -11   1 -11  109.09   35.90   1
  11  -1  11   35.70   37.40   1
 -11  -1 -11   49.80   34.10   1
 -11  -1 -11  -25.60   25.00   1
  11  -1  11   14.40   39.60   1
  11  -1  11    9.90   23.30   1
  11   1  12   -5.70   24.50   1
 -11   1 -12    1.70   29.90   1
 -11   1 -12   65.19   37.30   1
  11  -1  12   49.30   26.90   1
  11  -1  12   -6.50   44.40   1
 -11  -1 -12   30.10   27.30   1
 -11  -1 -12   82.79   61.59   1
  11   1  13   39.30   26.20   1
 -11   1 -13   15.30   28.20   1
 -11   1 -13   68.29   44.00   1
 -11  -1 -13   39.30   28.20   1
  11  -1  13   51.09   28.00   1
  11  -1  13  -42.40   47.60   1
 -11   2  15   22.20   25.10   1
  11   2 -15   26.80   42.00   1
  11   2 -15   93.19   40.50   1
  11   2 -15  -41.60   41.10   1
  11  -2 -15  106.99   37.80   1
  11  -2 -15  156.18   36.50   1
 -11  -2  15   39.70   31.00   1
 -11  -2  15  -43.40   43.70   1
  11   2 -14    8.00   39.30   1
  11   2 -14  103.89   41.50   1
 -11   2  14   47.90   28.00   1
 -11   2  14   60.19   52.39   1
  11   2 -14   66.99   37.10   1
  11  -2 -14   64.39   44.40   1
 -11  -2  14   73.59   34.10   1
 -11  -2  14  -71.99   43.20   1
  11  -2 -14   80.19   34.50   1
  11  -2 -14   90.19   32.20   1
 -11   2  13   65.89   37.00   1
  11   2 -13   73.79   36.00   1
  11   2 -13   76.19   35.50   1
 -11   2  13   37.60   28.10   1
  11   2 -13  111.09   40.20   1
 -11  -2  13   77.29   29.50   1
 -11  -2  13   50.69   41.50   1
  11  -2 -13   87.49   30.90   1
  11  -2 -13   93.79   34.70   1
  11  -2 -13  122.89   31.20   1
 -11   2  12  115.39   39.30   1
  11   2 -12  131.09   42.50   1
  11   2 -12  154.28   36.70   1
  11   2 -12  108.59   36.90   1
 -11   2  12  171.48   32.30   1
 -11  -2  12  120.59   32.50   1
  11  -2 -12  235.98   34.90   1
 -11  -2  12   35.70   37.70   1
  11  -2 -12  189.68   39.10   1
  11  -2 -12  196.28   32.50   1
  11   2 -11    9.40   33.50   1
  11   2 -11    5.80   30.50   1
  11   2 -11  -13.20   27.80   1
 -11   2  11   51.39   24.10   1
 -11   2  11   10.20   33.20   1
  11  -2 -11   39.60   26.00   1
  11  -2 -11  -37.00   26.10   1
  11  -2 -11  -39.30   27.20   1
 -11  -2  11    9.50   33.40   1
 -11  -2  11    5.60   21.20   1
  11   2 -10   40.30   35.40   1
 -11   2  10   71.89   36.40   1
 -11   2  10   77.09   26.30   1
  11   2 -10   77.39   31.80   1
 -11  -2  10   88.19   36.50   1
 -11  -2  10   76.69   25.70   1
  11  -2 -10   97.29   29.90   1
  11  -2 -10   62.09   27.00   1
 -11   2   9    8.30   20.40   1
  11   2  -9   -9.60   27.10   1
 -11   2   9   29.30   29.50   1
  11   2  -9   36.80   29.10   1
  11   2  -9   27.10   23.90   1
 -11   2   9   -9.60   24.00   1
  11  -2  -9  -13.40   25.30   1
  11  -2  -9   18.60   25.20   1
 -11  -2   9   42.20   29.40   1
 -11  -2   9   46.00   21.20   1
 -11   2   8   46.90   29.00   1
  11   2  -8   -6.30   22.50   1
 -11   2   8   36.30   22.60   1
  11   2  -8   49.30   29.50   1
  11   2  -8    5.00   23.80   1
 -11   2   8    9.20   22.40   1
  11  -2  -8    7.70   25.00   1
 -11  -2   8   15.20   49.20   1
 -11  -2   8   40.20   21.80   1
  11  -2  -8   60.99   25.50   1
 -11   2   7   -6.10   24.40   1
  11   2  -7   24.20   22.40   1
 -11   2   7   17.40   18.30   1
  11   2  -7   32.00   26.10   1
 -11   2   7   27.30   20.20   1
  11   2  -7   36.00   23.70   1
 -11  -2   7   14.60   18.10   1
  11  -2  -7    0.50   24.20   1
  11  -2  -7   43.90   25.90   1
 -11  -2   7   36.20   24.90   1
 -11   2   6    2.20   35.30   1
  11   2  -6   36.70   26.20   1
  11   2  -6   39.20   24.10   1
 -11   2   6   -0.70   17.30   1
  11  -2  -6    3.50   24.20   1
 -11  -2   6    0.20   16.40   1
  11  -2  -6   39.40   22.40   1
 -11  -2   6   54.09   24.40   1
 -11   2   5   -5.90   17.50   1
  11   2  -5   32.70   22.80   1
  11   2  -5   12.90   22.40   1
 -11   2   5   22.60   21.50   1
 -11   2   5    0.00   25.00   1
  11   2  -5  -16.60   23.20   1
 -11  -2   5   16.00   19.30   1
  11  -2  -5   34.60   24.50   1
 -11  -2   5   24.90   21.20   1
  11  -2  -5   20.20   21.90   1
 -11   2   4   17.80   25.70   1
  11   2  -4   38.70   24.20   1
 -11   2   4   36.50   18.40   1
 -11   2   4   55.79   23.00   1
  11   2  -4   51.59   23.70   1
  11   2  -4   41.40   23.50   1
  11  -2  -4   42.80   25.20   1
 -11  -2   4   59.89   22.00   1
  11  -2  -4   32.30   23.30   1
  11   2  -3  -10.50   22.50   1
  11   2  -3   29.20   23.30   1
 -11   2   3   -5.70   22.30   1
  11   2  -3   58.39   21.80   1
  11   2  -3   29.70   21.40   1
 -11   2   3    2.40   17.20   1
 -11   2   3   -6.80   22.40   1
 -11  -2   3    3.40   19.40   1
  11  -2  -3   15.80   21.80   1
  11  -2  -3   12.30   23.60   1
 -11   2   2   74.39   25.60   1
  11   2  -2   36.40   24.00   1
 -11   2   2   74.59   18.50   1
  11  -2  -2   58.79   27.70   1
 -11  -2   2  126.49   25.00   1
  11  -2  -2   41.30   22.50   1
 -11   2   1  100.29   19.10   1
  11   2  -1   36.40   20.80   1
 -11   2   1   38.50   23.00   1
  11   2  -1   57.89   22.40   1
 -11   2   1   41.10   23.10   1
 -11  -2   1   65.99   26.00   1
  11  -2  -1   64.09   23.80   1
 -11  -2   1   49.00   24.40   1
  11  -2  -1   74.29   25.30   1
  11   2   0   35.40   21.70   1
 -11   2   0    2.00   19.70   1
 -11   2   0    6.60   14.70   1
  11   2   0   26.90   20.70   1
 -11   2   0   20.50   22.10   1
  11   2   0   11.20   22.20   1
 -11  -2   0    5.80   24.10   1
  11  -2   0   22.60   25.00   1
  11  -2   0   52.99   21.10   1
 -11  -2   0   44.70   24.40   1
 -11   2  -1   -6.00   22.20   1
  11   2   1    9.70   21.50   1
  11   2   1   13.90   21.70   1
  11   2   1   12.50   20.90   1
 -11   2  -1   16.70   20.00   1
 -11  -2  -1   38.60   26.00   1
 -11  -2  -1   -2.30   23.50   1
  11  -2   1   28.70   24.80   1
  11   2   2  108.09   24.40   1
  11   2   2  116.99   26.70   1
 -11   2  -2   91.99   31.10   1
  11   2   2  114.79   31.30   1
 -11   2  -2  102.99   26.30   1
 -11  -2  -2  141.29   31.70   1
  11  -2   2  131.99   30.50   1
 -11   2  -3    6.60   23.40   1
 -11   2  -3  -17.60   21.70   1
 -11   2  -3   -6.30   20.30   1
  11   2   3    3.80   23.10   1
  11   2   3   -9.00   18.90   1
  11  -2   3  -36.00   24.60   1
 -11  -2  -3    4.50   25.90   1
 -11  -2  -3   26.80   27.20   1
  11  -2   3   19.70   20.50   1
 -11   2  -4    2.00   21.30   1
 -11   2  -4    4.70   24.20   1
  11   2   4  -16.10   24.30   1
  11   2   4    5.70   19.10   1
 -11   2  -4   -7.10   21.90   1
 -11  -2  -4   26.40   29.10   1
  11  -2   4   -4.70   22.20   1
  11  -2   4   -7.60   26.70   1
  11   2   5  -16.70   16.20   1
 -11   2  -5   -8.70   24.40   1
  11   2   5  -38.70   25.20   1
 -11   2  -5   15.00   23.80   1
 -11   2  -5   -6.00   24.10   1
 -11  -2  -5   -3.70   26.80   1
  11  -2   5    5.10   22.00   1
 -11  -2  -5   -2.80   28.80   1
  11  -2   5   20.90   29.00   1
  11   2   6    0.00   28.60   1
 -11   2  -6   30.60   25.40   1
 -11   2  -6   19.10   27.80   1
  11   2   6   11.10   26.80   1
 -11   2  -6   11.60   26.50   1
  11   2   6   22.90   23.00   1
  11  -2   6   -7.80   22.30   1
 -11  -2  -6    5.20   25.80   1
 -11  -2  -6  -40.70   28.20   1
  11  -2   6  -22.10   27.50   1
  11   2   7    8.20   21.90   1
  11   2   7   -6.00   26.70   1
 -11   2  -7   -6.40   26.70   1
 -11   2  -7    0.10   27.80   1
 -11   2  -7   33.30   28.30   1
 -11  -2  -7    2.60   25.50   1
 -11  -2  -7   60.69   32.20   1
  11  -2   7    4.60   29.40   1
  11  -2   7    7.90   24.50   1
 -11   2  -8   49.00   32.40   1
  11   2   8   57.29   33.40   1
  11   2   8   42.30   22.80   1
 -11   2  -8   13.80   31.60   1
 -11   2  -8   25.90   28.30   1
  11  -2   8   29.60   31.20   1
 -11  -2  -8   79.29   33.60   1
  11  -2   8   77.69   28.70   1
 -11  -2  -8   14.40   28.80   1
  11   2   9  -10.60   36.20   1
  11   2   9    5.70   20.70   1
 -11   2  -9    3.10   29.70   1
 -11   2  -9   54.79   34.10   1
 -11   2  -9    8.20   30.40   1
 -11  -2  -9  -41.50   32.30   1
  11  -2   9  -38.10   25.60   1
  11  -2   9  -59.29   31.70   1
 -11  -2  -9   -7.40   32.20   1
 -11   2 -10   59.89   36.40   1
  11   2  10   66.99   44.40   1
 -11   2 -10   29.20   37.40   1
  11   2  10   46.70   24.40   1
 -11   2 -10  122.49   35.90   1
 -11  -2 -10   48.30   32.60   1
  11  -2  10  101.09   39.40   1
  11  -2  10   85.29   30.40   1
 -11  -2 -10   46.20   35.80   1
 -11   2 -11   34.50   38.40   1
  11   2  11   -8.50   24.50   1
  11  -2  11   11.20   38.60   1
  11  -2  11  -30.10   28.60   1
 -11  -2 -11  -54.59   47.40   1
  11   2  12   48.20   25.00   1
 -11   2 -12    4.30   44.10   1
 -11   2 -12   34.40   34.10   1
  11  -2  12  -12.90   43.40   1
 -11  -2 -12   -6.60   35.70   1
  11  -2  12   30.30   31.10   1
  11   3 -13   59.59   36.50   1
  11   3 -13  139.59   65.99   1
  11   3 -13   74.09   45.50   1
 -11   3  13   62.99   27.40   1
  11  -3 -13   60.69   30.80   1
  11  -3 -13  100.09   45.50   1
 -11  -3  13   -4.00   35.50   1
  11  -3 -13  130.59   34.40   1
 -11   3  12   46.40   39.80   1
  11   3 -12   47.10   37.60   1
  11   3 -12   67.89   39.40   1
 -11   3  12   32.30   24.10   1
  11   3 -12   51.99   40.50   1
 -11  -3  12  -12.40   30.00   1
  11  -3 -12   12.20   35.80   1
  11  -3 -12   85.19   31.10   1
 -11  -3  12  -11.20   49.00   1
  11   3 -11   10.10   31.50   1
 -11   3  11   -0.40   23.10   1
  11   3 -11   24.00   33.50   1
 -11   3  11   43.00   37.70   1
 -11   3  11   16.50   31.90   1
  11   3 -11   78.69   35.00   1
 -11  -3  11   45.10   25.70   1
  11  -3 -11   58.59   31.00   1
  11  -3 -11    6.00   37.00   1
 -11  -3  11   26.10   38.60   1
 -11   3  10   44.30   30.00   1
  11   3 -10  140.29   39.30   1
 -11   3  10   91.99   39.20   1
  11   3 -10   43.80   31.70   1
 -11   3  10   69.09   28.80   1
  11   3 -10   23.10   34.00   1
  11  -3 -10   91.49   35.20   1
  11  -3 -10  103.49   32.00   1
 -11  -3  10   70.39   40.60   1
 -11  -3  10   87.09   27.50   1
 -11   3   9  117.69   31.60   1
  11   3  -9   78.79   35.40   1
  11   3  -9   85.39   34.70   1
 -11   3   9  100.89   39.70   1
 -11   3   9  102.69   31.20   1
  11   3  -9  118.49   35.20   1
 -11  -3   9  150.08   27.70   1
  11  -3  -9  193.28   35.50   1
 -11  -3   9  110.59   37.40   1
  11  -3  -9  177.48   36.20   1
  11   3  -8   67.09   31.20   1
 -11   3   8   56.49   26.40   1
  11   3  -8   14.40   27.60   1
 -11   3   8   22.10   24.60   1
 -11   3   8    1.30   33.20   1
  11   3  -8   -7.20   30.70   1
  11  -3  -8   50.29   30.40   1
 -11  -3   8   -8.70   21.00   1
  11  -3  -8    6.30   29.70   1
 -11   3   7  -28.70   34.70   1
  11   3  -7   35.50   29.90   1
 -11   3   7   52.69   27.80   1
  11   3  -7   74.19   35.10   1
  11   3  -7   34.30   27.60   1
 -11   3   7   19.50   24.60   1
  11  -3  -7   40.30   30.60   1
  11  -3  -7   29.40   27.90   1
 -11  -3   7   42.90   30.40   1
 -11  -3   7   11.30   18.80   1
  11   3  -6   44.10   32.70   1
 -11   3   6   62.29   26.20   1
 -11   3   6   39.50   33.30   1
  11   3  -6   52.09   27.50   1
  11   3  -6   76.99   29.20   1
 -11   3   6   36.60   26.60   1
 -11  -3   6   52.09   20.40   1
  11  -3  -6   79.09   30.70   1
  11  -3  -6   54.39   27.80   1
 -11  -3   6   22.50   28.30   1
 -11   3   5  -10.10   20.80   1
  11   3  -5   38.50   27.50   1
  11   3  -5  -33.20   28.70   1
 -11   3   5   -6.80   23.90   1
 -11  -3   5  -12.60   16.80   1
  11  -3  -5   10.20   29.00   1
 -11  -3   5  -39.10   24.30   1
  11  -3  -5   -8.60   23.00   1
 -11   3   4   27.60   20.80   1
  11   3  -4   -2.60   30.60   1
 -11   3   4   11.80   27.50   1
 -11   3   4   39.90   28.60   1
  11   3  -4  -19.50   26.70   1
  11  -3  -4   30.20   26.60   1
  11  -3  -4   28.40   25.60   1
 -11  -3   4    9.60   25.80   1
  11   3  -3   -4.80   24.70   1
  11   3  -3  -21.20   22.20   1
 -11   3   3    4.70   19.30   1
  11   3  -3    1.70   29.00   1
 -11   3   3  -18.80   26.80   1
 -11   3   3   -2.70   27.40   1
 -11  -3   3  -47.70   25.10   1
  11  -3  -3    2.10   26.70   1
 -11  -3   3  -29.00   23.50   1
  11   3  -2   -5.10   24.70   1
  11   3  -2    5.50   28.90   1
 -11   3   2    0.80   19.80   1
 -11   3   2  -15.70   25.50   1
  11   3  -2  -19.40   19.80   1
 -11   3   2    9.70   25.70   1
  11  -3  -2   21.30   26.30   1
 -11  -3   2   30.60   26.80   1
  11  -3  -2   12.20   22.40   1
 -11   3   1   40.00   20.70   1
  11   3  -1   36.00   23.80   1
  11   3  -1   87.39   29.20   1
 -11   3   1   61.09   28.30   1
  11   3  -1   33.20   26.00   1
 -11   3   1  -10.00   26.50   1
 -11  -3   1   43.70   27.80   1
  11  -3  -1   13.70   26.40   1
 -11  -3   1   60.99   30.20   1
  11  -3  -1   62.99   25.30   1
  11   3   0   82.59   23.80   1
 -11   3   0  105.39   31.60   1
  11   3   0   79.59   31.60   1
 -11   3   0   71.49   21.30   1
  11   3   0   83.89   27.10   1
 -11  -3   0   77.29   29.50   1
  11  -3   0  116.29   26.70   1
  11  -3   0   71.29   32.20   1
 -11  -3   0   23.40   30.80   1
 -11   3  -1  104.39   31.40   1
  11   3   1   31.80   25.60   1
  11   3   1   95.49   30.60   1
  11   3   1   79.49   25.00   1
 -11   3  -1   84.59   21.80   1
  11  -3   1   28.80   31.20   1
 -11  -3  -1   28.30   27.90   1
 -11  -3  -1   24.00   30.60   1
  11   3   2   55.59   30.60   1
  11   3   2   90.29   28.10   1
 -11   3  -2   72.99   29.40   1
 -11   3  -2  154.18   28.10   1
 -11   3  -2  199.58   26.80   1
  11   3   2  112.69   27.00   1
 -11  -3  -2  136.59   34.40   1
  11  -3   2  124.19   33.60   1
 -11  -3  -2  109.39   36.10   1
 -11   3  -3  201.48   26.80   1
  11   3   3  158.98   30.80   1
  11   3   3  148.99   32.60   1
 -11   3  -3  126.59   33.00   1
  11  -3   3  176.88   37.70   1
 -11  -3  -3  105.49   37.50   1
 -11  -3  -3  160.78   37.80   1
  11   3   4   93.89   31.10   1
 -11   3  -4  117.29   35.80   1
  11   3   4  123.49   27.10   1
  11   3   4  116.89   37.80   1
 -11   3  -4  186.08   25.90   1
 -11  -3  -4  139.59   39.40   1
  11  -3   4   92.39   33.80   1
  11   3   5   89.29   33.30   1
 -11   3  -5  112.79   35.60   1
  11   3   5  106.09   40.40   1
  11   3   5  129.79   29.70   1
 -11  -3  -5  169.98   39.20   1
  11  -3   5  140.79   37.60   1
 -11   3  -6   46.90   32.00   1
  11   3   6   25.50   22.30   1
  11  -3   6    8.10   32.60   1
 -11  -3  -6   83.19   35.60   1
  11   3   7  -18.00   37.60   1
  11   3   7   34.10   27.90   1
 -11   3  -7   46.00   30.70   1
  11  -3   7   49.70   37.40   1
 -11  -3  -7   28.40   38.40   1
  11  -3   7   17.50   32.40   1
 -11   3  -8  115.69   38.60   1
  11   3   8   34.70   39.40   1
  11   3   8   66.09   25.70   1
  11  -3   8   70.89   39.80   1
 -11  -3  -8   75.89   39.40   1
  11  -3   8   97.29   35.90   1
 -11  -3  -8  146.39   40.90   1
  11   3   9   59.59   29.50   1
 -11   3  -9   64.89   38.30   1
 -11   3  -9   52.09   66.69   1
  11  -3   9   25.10   38.80   1
 -11  -3  -9   94.39   47.80   1
  11   3  10  -11.60   23.70   1
 -11   3 -10  -11.00   34.70   1
  11  -3  10    6.60   40.30   1
 -11  -3 -10   27.50   34.50   1
 -11   4  10   67.89   30.80   1
  11   4 -10   -5.80   42.30   1
 -11   4  10  -34.20   41.20   1
  11   4 -10   82.89   38.50   1
 -11   4  10   59.89   33.40   1
  11  -4 -10   69.19   54.09   1
 -11  -4  10  -44.10   49.20   1
  11  -4 -10   95.19   37.20   1
  11   4  -9  273.87   48.20   1
 -11   4   9  203.78   40.10   1
 -11   4   9  148.59   52.99   1
  11   4  -9  228.58   51.39   1
 -11   4   9  338.57   45.50   1
  11  -4  -9  403.56   52.49   1
  11  -4  -9  418.66   65.39   1
 -11   4   8   77.89   41.70   1
 -11   4   8   38.30   33.70   1
 -11   4   8   41.00   28.10   1
  11   4  -8   23.70   33.10   1
  11  -4  -8   30.80   38.70   1
  11  -4  -8   31.70   34.00   1
 -11  -4   8   53.59   51.49   1
  11   4  -7   85.29   44.10   1
  11   4  -7  164.28   39.20   1
 -11   4   7  157.28   45.30   1
 -11   4   7  207.18   36.30   1
 -11   4   7  205.78   38.40   1
  11  -4  -7  249.97   42.00   1
  11  -4  -7  143.39   38.00   1
 -11  -4   7  100.59   31.10   1
 -11  -4   7   18.70   43.10   1
 -11   4   6   68.49   27.90   1
  11   4  -6   -9.80   37.20   1
 -11   4   6   76.29   32.30   1
  11   4  -6   36.20   33.90   1
 -11   4   6   11.50   36.00   1
  11  -4  -6  107.09   35.70   1
 -11  -4   6   73.59   25.00   1
 -11  -4   6   82.09   39.90   1
  11  -4  -6   82.39   35.80   1
 -11  -4   6  -12.20   37.20   1
 -11   4   5  143.79   39.50   1
  11   4  -5  126.39   37.60   1
 -11   4   5  155.58   44.00   1
  11   4  -5  124.99   43.60   1
 -11   4   5  187.88   35.80   1
 -11  -4   5  244.18   49.90   1
 -11  -4   5  289.57   34.50   1
  11  -4  -5  125.69   36.80   1
  11   4  -4  -31.30   35.60   1
  11   4  -4  -20.60   30.90   1
 -11   4   4  -16.20   22.70   1
 -11   4   4  -61.09   33.40   1
 -11   4   4    2.20   31.90   1
  11  -4  -4   35.00   31.90   1
 -11  -4   4   -9.10   37.10   1
 -11  -4   4   21.90   35.30   1
  11  -4  -4    4.00   33.50   1
  11   4  -3   54.29   39.60   1
 -11   4   3   71.49   37.90   1
 -11   4   3   35.00   34.30   1
  11   4  -3   65.09   32.70   1
 -11   4   3   70.49   29.80   1
  11   4  -3   40.60   30.40   1
 -11  -4   3  109.89   42.10   1
  11  -4  -3   70.49   43.40   1
 -11  -4   3  -16.00   34.80   1
  11  -4  -3   35.60   32.10   1
  11   4  -2   83.99   29.80   1
 -11   4   2  -16.40   24.30   1
  11   4  -2   72.79   32.50   1
 -11   4   2    7.80   32.40   1
  11   4  -2   63.19   40.20   1
 -11  -4   2    3.90   34.50   1
  11  -4  -2   12.70   32.70   1
 -11  -4   2   51.49   36.80   1
  11   4  -1  251.07   49.20   1
 -11   4   1  247.68   44.70   1
 -11   4   1  248.08   42.90   1
  11   4  -1  224.68   35.90   1
  11   4  -1  269.87   42.80   1
 -11  -4   1  255.37   44.50   1
 -11  -4   1  145.29   42.80   1
  11  -4  -1  181.78   42.80   1
 -11   4   0   92.19   35.40   1
  11   4   0   75.59   29.50   1
  11   4   0   38.30   31.90   1
  11   4   0  115.09   42.20   1
 -11  -4   0   86.99   37.80   1
 -11  -4   0    4.30   38.90   1
  11  -4   0  110.49   37.30   1
  11   4   1    9.80   30.60   1
  11   4   1   66.29   29.10   1
  11   4   1   59.79   40.40   1
 -11   4  -1   46.20   34.00   1
  11  -4   1    8.00   33.40   1
 -11  -4  -1   10.80   38.10   1
 -11  -4  -1   57.19   39.80   1
  11   4   2    4.90   40.00   1
  11   4   2  106.89   31.40   1
 -11   4  -2   51.99   33.10   1
  11   4   2   85.19   31.60   1
  11  -4   2   42.40   35.10   1
 -11  -4  -2   87.09   37.90   1
 -11  -4  -2  -11.90   38.20   1
 -11   4  -3  164.48   40.70   1
  11   4   3  124.19   35.00   1
  11   4   3  123.59   31.90   1
 -11  -4  -3  169.98   45.10   1
  11  -4   3  153.58   42.50   1
 -11  -4  -3  138.49   41.10   1
 -11   4  -4  -16.30   32.70   1
  11   4   4   60.19   28.20   1
  11   4   4    4.70   31.70   1
 -11  -4  -4   18.80   37.20   1
  11  -4   4   22.20   37.80   1
 -11  -4  -4   82.89   37.90   1
  11   4   5   10.50   23.40   1
 -11   4  -5   28.00   35.30   1
  11   4   5   44.50   33.40   1
 -11  -4  -5   50.19   48.00   1
 -11  -4  -5  135.69   43.50   1
  11  -4   5   15.70   43.70   1
 -11  -4  -5   21.70   43.40   1
  11   4   6   -5.80   22.80   1
 -11   4  -6  -17.10   60.39   1
  11   4   6  -15.30   46.10   1
 -11  -4  -6  100.19   45.80   1
  11  -4   6   18.60   41.00   1
  11  -4   7   12.70   38.90   1
  12   0 -16  -16.70   29.90   1
  12   0 -16  -58.49   36.20   1
 -12   0  16   25.50   31.40   1
 -12   0  15  -60.69   36.90   1
  12   0 -15  -65.89   32.10   1
 -12   0  15   32.60   27.10   1
  12   0 -15   12.70   29.60   1
  12   0 -15   26.40   35.20   1
  12   0 -14  474.65   62.29   1
  12   0 -14  425.56   61.29   1
 -12   0  14  421.56   62.69   1
 -12   0  14  490.75   54.69   1
  12   0 -14  473.45   52.99   1
  12   0 -13  455.45   62.49   1
  12   0 -13  572.54   53.59   1
  12   0 -13  502.05   59.89   1
 -12   0  13  479.65   53.09   1
 -12   0  13  409.36   66.59   1
  12   0 -12  319.87   45.30   1
 -12   0  12  303.07   43.70   1
 -12   0  12  322.47   50.59   1
  12   0 -12  300.37   51.09   1
  12   0 -12  387.46   42.80   1
  12   0 -11  654.43   53.89   1
  12   0 -11  544.65   59.49   1
  12   0 -11  599.84   62.49   1
 -12   0  11  542.45   65.59   1
 -12   0  11  527.55   55.09   1
 -12   0  10 1481.95  115.59   1
  12   0 -10 1500.35  111.69   1
  12   0 -10 1380.26  118.49   1
  12   0 -10 1481.35  117.39   1
 -12   0  10 1531.85  123.69   1
  12   0  -9 2940.91  213.78   1
 -12   0   9 2911.11  218.18   1
  12   0  -9 2921.71  209.38   1
 -12   0   9 2874.61  213.98   1
  12   0  -9 2710.43  215.38   1
  12   0  -8  329.17   41.40   1
 -12   0   8  343.47   44.50   1
  12   0  -8  272.77   41.30   1
 -12   0   8  216.58   35.50   1
  12   0  -8  254.87   27.70   1
 -12   0   7  129.29   24.00   1
 -12   0   7  167.78   32.00   1
  12   0  -7  118.29   27.80   1
  12   0  -7  148.19   28.30   1
  12   0  -6  688.63   60.89   1
 -12   0   6  660.23   58.79   1
 -12   0   6  671.23   66.69   1
  12   0  -6  718.03   64.89   1
 -12   0   5  170.68   32.40   1
  12   0  -5  251.17   35.20   1
 -12   0   5  167.88   27.90   1
  12   0  -5  206.98   36.90   1
 -12   0   4  -16.30   16.80   1
  12   0  -4  -13.60   20.40   1
 -12   0   4   10.60   22.00   1
  12   0  -4    6.00   24.70   1
  12   0  -3  277.27   35.20   1
  12   0  -3  245.48   41.20   1
 -12   0   3  297.87   41.20   1
 -12   0   2 4378.16  321.27   1
  12   0  -2 4843.92  330.07   1
  12   0  -2 4600.34  325.97   1
  12   0  -2 4179.88  324.47   1
 -12   0   2 4414.36  327.97   1
  12   0  -1  668.93   53.69   1
 -12   0   1  609.64   47.80   1
 -12   0   1  560.94   59.69   1
  12   0  -1  565.04   54.69   1
  12   0  -1  581.24   59.69   1
 -12   0   0  406.86   33.50   1
  12   0   0  335.17   40.00   1
 -12   0   0  377.46   45.90   1
  12   0   0  357.46   40.30   1
  12   0   0  310.17   45.30   1
 -12   0  -1   22.00   22.90   1
 -12   0  -1   41.50   15.90   1
  12   0   1   43.40   19.00   1
 -12   0  -2  659.03   63.99   1
  12   0   2  654.73   59.39   1
  12   0   2  685.53   58.09   1
 -12   0  -2  714.23   56.29   1
 -12   0  -2  629.84   64.39   1
  12   0   3  914.21   77.59   1
 -12   0  -3 1025.90   75.39   1
  12   0   3 1017.80   75.69   1
 -12   0  -3  824.62   83.19   1
 -12   0  -3  850.71   81.89   1
  12   0   4 1760.32  132.89   1
 -12   0  -4 1722.53  135.99   1
  12   0   4 1771.22  130.79   1
 -12   0  -4 1693.53  131.09   1
 -12   0  -4 1726.03  136.89   1
  12   0   5 1021.30   81.29   1
 -12   0  -5  988.30   85.89   1
 -12   0  -5  913.01   79.29   1
  12   0   5  937.61   80.89   1
 -12   0  -5 1017.50   85.59   1
  12   0   6 2155.98  161.28   1
 -12   0  -6 2183.78  165.98   1
 -12   0  -6 2041.50  159.58   1
  12   0   7  156.68   27.00   1
 -12   0  -7  166.28   35.70   1
  12   0   7   68.69   35.70   1
 -12   0  -7  122.39   27.30   1
 -12   0  -8  156.88   35.80   1
 -12   0  -8  207.38   33.70   1
  12   0   8  128.89   26.30   1
  12   0   8  173.78   30.50   1
 -12   0  -9  188.78   34.40   1
 -12   0  -9  165.28   37.70   1
  12   0   9  133.49   30.50   1
  12   0   9  134.29   31.90   1
  12   0   9  227.38   42.50   1
  12   0  10   21.50   22.20   1
  12   0  10   18.80   37.10   1
 -12   0 -10   38.60   27.60   1
 -12   0 -10   98.49   35.20   1
 -12   0 -11  586.74   68.39   1
  12   0  11  449.36   51.89   1
  12   0  11  526.35   75.19   1
 -12   0 -11  419.26   53.49   1
 -12   0 -12  164.08   43.70   1
  12   0  12  150.28   46.40   1
  12   0  12  171.08   38.10   1
 -12   0 -12  210.38   47.60   1
  12   1 -16  400.86   59.49   1
  12   1 -16  221.38   53.39   1
 -12   1  16  194.28   36.70   1
  12   1 -16  273.27   47.40   1
  12  -1 -16  285.47   42.70   1
 -12  -1  16  119.59   57.09   1
  12  -1 -16  430.06   57.19   1
 -12  -1  16  332.97   48.00   1
  12   1 -15  298.17   46.20   1
  12   1 -15  200.78   49.20   1
  12   1 -15  187.18   49.30   1
 -12   1  15  264.77   41.10   1
 -12  -1  15  260.17   41.90   1
 -12  -1  15  151.18   51.39   1
  12  -1 -15  260.97   43.00   1
  12  -1 -15  315.17   49.50   1
 -12   1  14  826.12   86.99   1
  12   1 -14  833.52   84.49   1
  12   1 -14  766.82   76.79   1
  12   1 -14  801.72   80.59   1
 -12   1  14  818.22   73.09   1
  12  -1 -14  731.73   69.29   1
  12  -1 -14  768.42   77.39   1
  12  -1 -14  878.51   81.19   1
 -12  -1  14  647.84   87.09   1
 -12  -1  14  799.22   73.99   1
 -12   1  13  429.86   57.99   1
  12   1 -13  372.16   53.79   1
  12   1 -13  438.56   51.69   1
 -12   1  13  365.96   47.50   1
  12   1 -13  336.27   55.79   1
  12  -1 -13  250.27   39.10   1
 -12  -1  13  453.25   49.10   1
  12  -1 -13  384.86   54.19   1
 -12  -1  13  246.78   50.89   1
  12  -1 -13  355.16   52.49   1
  12   1 -12  310.57   52.09   1
  12   1 -12  289.97   45.90   1
 -12   1  12  335.47   57.59   1
  12   1 -12  415.36   49.10   1
 -12   1  12  367.96   44.50   1
 -12  -1  12  392.96   43.80   1
  12  -1 -12  397.36   38.60   1
  12  -1 -12  323.47   51.19   1
  12  -1 -12  421.86   52.09   1
 -12  -1  12  222.78   45.80   1
  12   1 -11 1014.00   94.59   1
  12   1 -11 1106.09   89.89   1
 -12   1  11 1133.39  100.19   1
 -12   1  11 1135.49   91.79   1
  12   1 -11 1149.98   95.89   1
  12  -1 -11 1187.38   95.69   1
 -12  -1  11 1032.80   99.99   1
 -12  -1  11 1143.89   90.09   1
  12  -1 -11  987.30   86.59   1
  12  -1 -11 1088.19   91.99   1
  12   1 -10  406.56   51.69   1
  12   1 -10  443.16   43.20   1
 -12   1  10  358.76   43.00   1
  12   1 -10  438.86   51.19   1
 -12   1  10  323.57   53.79   1
  12  -1 -10  370.76   38.90   1
  12  -1 -10  339.47   48.60   1
  12  -1 -10  358.36   47.90   1
 -12  -1  10  389.06   56.19   1
 -12  -1  10  448.36   44.20   1
 -12   1   9  153.38   35.10   1
 -12   1   9  136.19   26.60   1
  12   1  -9  123.39   29.60   1
  12   1  -9   95.89   29.80   1
  12   1  -9  117.09   24.40   1
 -12  -1   9   78.89   24.50   1
 -12  -1   9  151.08   35.60   1
  12  -1  -9  175.58   22.20   1
  12  -1  -9  151.98   29.20   1
  12  -1  -9  116.59   29.40   1
  12   1  -8  409.66   37.20   1
 -12   1   8  401.96   53.19   1
 -12   1   8  365.26   41.30   1
  12   1  -8  394.76   48.20   1
 -12  -1   8  349.67   50.89   1
  12  -1  -8  364.26   46.30   1
  12  -1  -8  370.86   34.70   1
 -12  -1   8  326.57   40.60   1
  12  -1  -8  376.56   43.40   1
  12   1  -7  966.80   74.59   1
 -12   1   7  922.51   85.89   1
  12   1  -7 1009.50   81.49   1
  12   1  -7 1001.50   82.89   1
 -12   1   7  998.80   78.59   1
 -12  -1   7 1053.19   85.49   1
  12  -1  -7  797.12   72.79   1
 -12  -1   7 1029.30   78.39   1
  12  -1  -7  957.50   78.79   1
 -12   1   6 1173.88  123.69   1
  12   1  -6 1343.37  100.79   1
 -12   1   6 1199.28   97.69   1
  12   1  -6 1199.78   93.99   1
  12   1  -6 1198.08  100.79   1
  12  -1  -6 1333.77   98.19   1
 -12  -1   6 1265.17   97.89   1
  12  -1  -6 1220.08  101.19   1
 -12  -1   6 1334.37  102.99   1
 -12   1   5  133.49   19.40   1
  12   1  -5  169.78   29.50   1
  12   1  -5  104.49   18.10   1
 -12   1   5  175.78   32.40   1
  12   1  -5  129.89   28.00   1
 -12   1   5  169.88   28.00   1
 -12  -1   5  110.89   22.00   1
 -12  -1   5  143.99   29.30   1
  12  -1  -5  108.19   27.40   1
  12  -1  -5  138.39   26.10   1
  12   1  -4  134.39   21.10   1
 -12   1   4  226.48   39.70   1
 -12   1   4  168.58   23.10   1
  12   1  -4  203.68   37.10   1
  12   1  -4  167.18   27.90   1
 -12   1   4  174.08   43.10   1
  12  -1  -4  197.78   30.90   1
 -12  -1   4  174.28   30.00   1
  12  -1  -4  244.68   30.90   1
  12   1  -3 1298.17  100.69   1
 -12   1   3 1269.37   96.69   1
  12   1  -3 1128.19   92.39   1
 -12   1   3 1204.18  101.19   1
 -12   1   3 1239.18   93.69   1
 -12  -1   3 1334.27  101.99   1
  12  -1  -3 1285.87   97.19   1
  12  -1  -3 1282.47  101.79   1
 -12   1   2   15.40   16.10   1
  12   1  -2   17.40   22.90   1
  12   1  -2   49.80   21.80   1
  12   1  -2   30.60   15.10   1
 -12   1   2  -16.00   16.10   1
 -12   1   2   20.70   21.90   1
  12  -1  -2   92.69   25.20   1
  12  -1  -2   14.30   24.40   1
 -12  -1   2   18.20   22.70   1
 -12   1   1 1604.44  120.99   1
  12   1  -1 1597.94  122.99   1
 -12   1   1 1558.34  125.79   1
  12   1  -1 1498.45  123.09   1
 -12  -1   1 1689.83  126.79   1
  12  -1  -1 1622.94  125.99   1
  12  -1  -1 1795.02  134.19   1
 -12   1   0  690.23   62.99   1
  12   1   0  686.63   59.19   1
  12   1   0  658.53   58.79   1
 -12   1   0  693.13   56.59   1
 -12  -1   0  650.53   64.09   1
  12  -1   0  686.33   59.39   1
 -12  -1   0  596.14   55.09   1
  12  -1   0  720.33   62.99   1
  12   1   1 1372.46  109.29   1
 -12   1  -1 1436.76  107.69   1
  12   1   1 1497.05  107.89   1
 -12   1  -1 1496.05  111.19   1
 -12  -1  -1 1376.96  106.19   1
 -12  -1  -1 1175.88  127.79   1
  12  -1   1 1421.66  108.89   1
 -12  -1  -1 1374.16  114.49   1
  12   1   2  951.90   73.19   1
 -12   1  -2  828.52   77.49   1
 -12   1  -2  854.41   77.89   1
  12   1   2  927.71   75.39   1
 -12   1  -2  926.31   73.39   1
 -12  -1  -2  913.01   80.99   1
  12  -1   2  922.41   74.79   1
 -12  -1  -2  861.21   79.59   1
 -12  -1  -2  903.11   71.69   1
 -12   1  -3  311.57   43.50   1
  12   1   3  309.97   37.50   1
 -12   1  -3  325.77   41.10   1
  12   1   3  274.17   36.50   1
 -12   1  -3  306.77   38.10   1
 -12  -1  -3  286.17   43.90   1
 -12  -1  -3  261.97   35.50   1
 -12  -1  -3  307.07   45.90   1
  12   1   4   80.69   21.70   1
 -12   1  -4  117.49   28.40   1
 -12   1  -4   66.09   25.80   1
  12   1   4   87.19   24.50   1
 -12   1  -4  103.29   28.70   1
 -12  -1  -4  109.39   30.70   1
  12  -1   4  111.09   25.80   1
 -12  -1  -4  107.69   25.10   1
 -12  -1  -4   88.09   33.10   1
  12  -1   4  163.68   47.80   1
 -12   1  -5   24.00   25.50   1
  12   1   5   38.90   21.80   1
 -12   1  -5   16.40   23.60   1
  12   1   5   -3.00   20.60   1
 -12  -1  -5    1.90   27.30   1
 -12  -1  -5   69.09   26.00   1
  12  -1   5   31.10   27.30   1
  12  -1   5   71.39   26.00   1
  12   1   6  105.29   25.10   1
 -12   1  -6  179.78   33.10   1
  12   1   6  136.09   27.10   1
 -12   1  -6  154.38   51.09   1
 -12   1  -6  282.97   41.60   1
  12  -1   6  185.58   29.60   1
 -12  -1  -6  201.08   32.20   1
 -12  -1  -6  177.18   38.90   1
  12  -1   6  199.08   33.90   1
  12   1   7   59.79   23.30   1
  12   1   7   65.59   23.00   1
 -12   1  -7   85.59   28.20   1
 -12   1  -7   72.39   31.70   1
 -12   1  -7   82.79   29.60   1
  12   1   7  114.99   32.10   1
  12  -1   7  122.79   31.90   1
  12  -1   7   43.00   24.30   1
 -12  -1  -7  116.59   30.60   1
 -12  -1  -7   38.60   30.10   1
 -12   1  -8  236.18   41.50   1
  12   1   8  289.67   36.90   1
 -12   1  -8  131.79   32.00   1
  12   1   8  210.88   41.20   1
 -12  -1  -8  248.38   40.90   1
  12  -1   8  250.47   37.40   1
 -12  -1  -8  315.07   52.59   1
  12  -1   8  300.67   46.30   1
  12   1   9  179.18   34.30   1
  12   1   9  206.98   46.10   1
 -12   1  -9  240.38   38.40   1
 -12   1  -9  388.26   54.09   1
  12  -1   9  318.77   49.99   1
  12  -1   9  216.78   36.10   1
 -12  -1  -9  241.18   37.50   1
 -12  -1  -9  299.27   52.49   1
 -12   1 -10  337.57   45.40   1
 -12   1 -10  362.26   56.89   1
  12   1  10  241.08   51.69   1
  12   1  10  186.98   37.40   1
 -12  -1 -10  357.26   57.59   1
  12  -1  10  316.97   46.50   1
 -12   1 -11  237.38   45.40   1
  12   1  11  136.89   31.70   1
 -12   1 -11  143.49   33.20   1
 -12  -1 -11  165.38   42.00   1
  12  -1  11  136.79   42.60   1
 -12  -1 -11  172.18   33.10   1
  12  -1  11  144.69   29.60   1
  12   1  12   66.79   30.00   1
 -12   1 -12  139.09   44.00   1
 -12   1 -12   16.30   32.50   1
 -12  -1 -12   -8.80   31.00   1
  12  -1  12   13.60   24.20   1
  12   2 -15  206.98   51.79   1
  12   2 -15  212.98   47.00   1
 -12   2  15  161.58   34.20   1
  12   2 -15  184.18   50.29   1
  12  -2 -15  263.17   42.20   1
 -12  -2  15   51.09   51.49   1
 -12  -2  15  107.29   37.20   1
  12  -2 -15  267.37   44.30   1
  12   2 -14   26.00   37.50   1
  12   2 -14  -21.70   37.90   1
 -12   2  14   57.59   28.00   1
  12   2 -14  -23.30   36.70   1
  12  -2 -14    3.90   34.20   1
  12  -2 -14    9.00   30.50   1
 -12  -2  14   -0.20   28.80   1
  12  -2 -14   61.09   36.00   1
 -12  -2  14  -56.69   42.80   1
 -12   2  13  390.36   66.09   1
  12   2 -13  442.76   60.49   1
 -12   2  13  400.26   49.99   1
  12   2 -13  402.56   57.39   1
  12   2 -13  432.06   64.19   1
 -12  -2  13  423.86   51.79   1
  12  -2 -13  358.16   53.69   1
  12  -2 -13  423.16   57.09   1
  12  -2 -13  351.06   49.90   1
  12   2 -12  220.08   47.30   1
 -12   2  12  222.28   37.20   1
 -12   2  12  291.87   47.60   1
  12   2 -12  248.98   43.40   1
  12   2 -12  151.28   40.50   1
  12  -2 -12  278.87   40.80   1
  12  -2 -12  348.87   49.50   1
  12  -2 -12  260.17   38.70   1
 -12  -2  12  189.18   42.60   1
 -12  -2  12  214.88   35.80   1
  12   2 -11  109.19   37.10   1
 -12   2  11   75.39   39.60   1
  12   2 -11  180.78   42.50   1
  12   2 -11  136.69   34.30   1
 -12   2  11  150.18   30.90   1
 -12  -2  11   88.09   39.80   1
  12  -2 -11  121.19   32.90   1
  12  -2 -11  149.59   30.50   1
  12  -2 -11  130.19   36.80   1
 -12  -2  11  160.58   29.20   1
  12   2 -10   93.79   28.80   1
 -12   2  10   37.60   24.10   1
  12   2 -10   92.99   33.00   1
 -12   2  10   39.20   32.80   1
  12   2 -10   53.09   32.10   1
  12  -2 -10   33.40   30.10   1
 -12  -2  10   45.30   34.50   1
 -12  -2  10   80.89   24.90   1
  12  -2 -10   35.10   26.70   1
 -12   2   9   -4.20   25.90   1
 -12   2   9   24.20   33.50   1
  12   2  -9   -6.60   27.10   1
  12   2  -9   36.40   25.80   1
 -12   2   9   25.50   24.00   1
  12   2  -9   22.30   25.30   1
 -12  -2   9   57.59   30.90   1
  12  -2  -9   39.10   26.50   1
 -12  -2   9   36.40   21.30   1
  12  -2  -9   36.40   26.10   1
  12   2  -8  194.98   30.90   1
 -12   2   8  135.29   28.00   1
 -12   2   8  164.78   28.80   1
 -12   2   8  135.49   33.50   1
  12   2  -8   98.99   31.80   1
  12  -2  -8  169.38   30.90   1
 -12  -2   8  131.59   33.00   1
  12  -2  -8  173.48   33.20   1
 -12  -2   8  132.89   25.80   1
 -12   2   7  -20.90   17.70   1
  12   2  -7   32.80   25.30   1
  12   2  -7  -23.60   24.10   1
 -12   2   7   41.10   28.50   1
 -12   2   7   30.70   22.40   1
 -12  -2   7   30.60   18.80   1
  12  -2  -7   15.80   22.50   1
  12  -2  -7   37.70   25.10   1
 -12  -2   7    0.50   25.10   1
  12   2  -6   77.19   23.30   1
 -12   2   6   20.40   18.90   1
 -12   2   6    6.90   28.20   1
  12   2  -6   27.20   25.40   1
  12   2  -6   49.30   25.70   1
 -12   2   6   47.30   25.20   1
  12  -2  -6   42.70   24.10   1
 -12  -2   6   29.00   20.80   1
  12  -2  -6   -4.80   25.70   1
 -12   2   5    8.50   36.60   1
  12   2  -5  118.59   25.80   1
  12   2  -5   97.89   29.10   1
  12   2  -5  115.49   29.30   1
 -12   2   5  105.59   22.90   1
 -12   2   5  168.18   28.00   1
 -12  -2   5  134.39   29.10   1
  12  -2  -5  107.49   29.00   1
  12  -2  -5  119.39   28.60   1
 -12  -2   5  118.79   22.50   1
  12   2  -4  111.19   29.80   1
  12   2  -4  171.58   31.10   1
 -12   2   4  158.18   32.70   1
 -12   2   4  152.18   28.60   1
  12   2  -4  167.38   28.20   1
 -12   2   4  159.88   25.90   1
 -12  -2   4  215.08   37.30   1
  12  -2  -4  167.48   31.80   1
  12  -2  -4  175.08   33.80   1
  12   2  -3  243.48   42.90   1
  12   2  -3  301.67   34.30   1
  12   2  -3  370.26   38.20   1
 -12   2   3  256.67   42.60   1
 -12   2   3  275.27   38.70   1
 -12   2   3  255.27   33.30   1
  12  -2  -3  245.78   42.00   1
 -12  -2   3  359.26   42.80   1
  12  -2  -3  254.57   41.90   1
 -12   2   2  264.27   38.30   1
 -12   2   2  269.67   32.80   1
  12   2  -2  309.17   35.70   1
 -12   2   2  291.67   42.50   1
  12   2  -2  247.58   41.90   1
  12  -2  -2  238.68   36.30   1
  12  -2  -2  270.47   42.40   1
 -12  -2   2  369.96   58.69   1
  12   2  -1  201.68   31.70   1
  12   2  -1  138.29   31.50   1
 -12   2   1  246.38   35.60   1
 -12   2   1  265.97   29.90   1
 -12   2   1  253.37   35.80   1
  12   2  -1  250.57   33.40   1
 -12  -2   1  212.78   37.10   1
 -12  -2   1  249.48   42.50   1
  12  -2  -1  309.37   39.70   1
  12  -2  -1  273.27   39.10   1
  12   2   0  516.75   53.69   1
 -12   2   0  617.44   55.09   1
  12   2   0  640.24   52.79   1
 -12   2   0  581.64   50.09   1
 -12   2   0  558.14   56.49   1
 -12  -2   0  473.45   58.89   1
 -12  -2   0  507.95   59.49   1
  12  -2   0  594.14   58.69   1
  12  -2   0  658.53   57.79   1
  12   2   1   56.69   24.30   1
 -12   2  -1   63.89   24.50   1
  12   2   1  112.49   25.50   1
 -12   2  -1   64.69   25.90   1
  12   2   1   42.50   24.10   1
  12  -2   1  120.69   28.70   1
 -12  -2  -1   64.29   27.80   1
 -12  -2  -1   66.29   30.60   1
  12   2   2  328.47   43.70   1
 -12   2  -2  302.87   42.20   1
  12   2   2  349.87   41.70   1
  12   2   2  387.36   41.00   1
 -12   2  -2  350.06   46.10   1
 -12  -2  -2  360.66   51.59   1
 -12  -2  -2  408.16   51.49   1
  12  -2   2  342.47   46.40   1
  12   2   3  271.67   37.40   1
  12   2   3  250.07   41.00   1
 -12   2  -3  266.37   39.60   1
 -12   2  -3  230.08   41.30   1
 -12   2  -3  293.67   41.90   1
 -12  -2  -3  275.87   42.10   1
  12  -2   3  272.57   37.50   1
  12  -2   3  293.17   45.40   1
 -12  -2  -3  235.08   40.70   1
  12   2   4  174.88   30.40   1
 -12   2  -4  214.98   35.10   1
 -12   2  -4  275.97   48.70   1
 -12   2  -4  200.58   33.30   1
 -12  -2  -4  246.88   38.30   1
 -12  -2  -4  250.47   45.40   1
 -12  -2  -4  216.58   39.40   1
  12  -2   4  197.38   31.10   1
  12  -2   4  185.68   35.80   1
 -12   2  -5  141.59   31.70   1
 -12   2  -5   86.49   30.30   1
  12   2   5  162.48   31.50   1
  12   2   5  125.69   28.80   1
 -12   2  -5  110.19   29.90   1
 -12  -2  -5   95.49   30.20   1
  12  -2   5  113.49   32.30   1
 -12  -2  -5   76.89   34.30   1
  12   2   6   33.00   28.10   1
  12   2   6   28.40   20.00   1
 -12   2  -6   27.00   28.30   1
 -12   2  -6   34.40   32.10   1
 -12   2  -6   24.90   27.60   1
 -12  -2  -6   32.00   31.80   1
  12  -2   6   19.40   29.70   1
  12  -2   6   49.30   25.90   1
 -12  -2  -6   67.89   27.30   1
 -12   2  -7   25.20   30.60   1
 -12   2  -7   22.10   28.30   1
  12   2   7   45.40   23.70   1
  12   2   7  -43.60   30.10   1
 -12   2  -7   34.70   26.00   1
  12  -2   7   32.80   27.00   1
 -12  -2  -7  -29.90   30.20   1
 -12  -2  -7    1.10   27.00   1
  12  -2   7  -77.39   27.20   1
 -12   2  -8   60.79   32.20   1
 -12   2  -8   83.39   37.00   1
 -12   2  -8   85.69   32.50   1
  12   2   8   77.29   36.40   1
  12   2   8   57.79   23.70   1
  12  -2   8   63.49   32.20   1
 -12  -2  -8  102.99   35.40   1
 -12  -2  -8   62.89   34.40   1
  12  -2   8   77.59   34.40   1
 -12   2  -9  -27.60   34.40   1
 -12   2  -9    7.90   31.80   1
  12   2   9  -26.00   34.30   1
 -12   2  -9   80.79   34.90   1
  12   2   9   -5.30   24.80   1
 -12  -2  -9  -14.20   32.80   1
  12  -2   9   18.30   34.10   1
  12  -2   9   51.69   29.80   1
 -12  -2  -9  -34.30   30.20   1
  12   2  10  160.18   40.80   1
 -12   2 -10  260.27   46.80   1
 -12   2 -10  201.58   41.40   1
 -12   2 -10  189.58   44.70   1
 -12  -2 -10  122.89   61.69   1
 -12  -2 -10  263.57   46.60   1
  12  -2  10  193.08   42.70   1
  12  -2  10  111.79   36.00   1
 -12   2 -11   54.19   41.60   1
 -12   2 -11  112.89   37.80   1
  12   2  11   80.99   29.10   1
 -12   2 -11  127.39   43.50   1
 -12  -2 -11   85.19   38.30   1
  12  -2  11  139.69   35.30   1
  12  -2  11  125.99   44.00   1
  12   3 -13  123.09   43.00   1
  12   3 -13  132.69   46.30   1
  12   3 -13   52.39   43.60   1
  12  -3 -13   58.29   33.10   1
  12  -3 -13   49.20   32.90   1
 -12  -3  13  -65.49   48.40   1
 -12  -3  13   73.29   35.60   1
  12   3 -12  107.19   42.10   1
  12   3 -12   58.49   38.00   1
 -12   3  12   76.89   41.20   1
  12   3 -12   57.69   46.80   1
 -12   3  12   66.99   28.20   1
 -12  -3  12  121.29   33.70   1
  12  -3 -12  107.29   33.60   1
 -12  -3  12   34.50   45.90   1
  12  -3 -12  189.38   42.50   1
  12   3 -11  -72.09   29.10   1
  12   3 -11   18.80   37.50   1
 -12   3  11    9.10   26.90   1
 -12   3  11  -93.39   31.30   1
  12   3 -11   15.00   35.00   1
 -12   3  11   -9.80   37.40   1
  12  -3 -11    8.50   36.30   1
  12  -3 -11   41.30   30.90   1
 -12  -3  11  -31.60   42.70   1
 -12  -3  11    4.40   25.80   1
 -12   3  10  308.27   46.90   1
 -12   3  10  348.57   54.29   1
  12   3 -10  308.27   49.40   1
 -12   3  10  295.27   45.40   1
  12   3 -10  293.77   48.30   1
  12   3 -10  256.57   47.90   1
  12  -3 -10  469.25   56.19   1
  12  -3 -10  319.87   45.60   1
 -12  -3  10  305.37   43.10   1
 -12  -3  10  195.98   47.30   1
 -12   3   9 1245.08  102.19   1
 -12   3   9 1204.58  112.29   1
  12   3  -9 1448.16  105.59   1
  12   3  -9 1001.60  105.99   1
  12   3  -9 1262.47  110.59   1
 -12   3   9 1214.38  101.69   1
  12  -3  -9 1103.59  101.79   1
 -12  -3   9 1473.65  101.69   1
  12  -3  -9 1392.46  110.39   1
 -12  -3   9 1036.40  108.39   1
  12   3  -8  344.47   51.39   1
 -12   3   8  340.77   47.80   1
 -12   3   8  285.67   46.10   1
  12   3  -8  349.87   59.49   1
 -12   3   8  344.87   54.59   1
  12   3  -8  343.27   48.50   1
 -12  -3   8  306.87   57.99   1
  12  -3  -8  459.05   53.89   1
 -12  -3   8  386.16   43.00   1
  12  -3  -8  344.47   48.80   1
  12   3  -7  384.36   49.10   1
  12   3  -7  409.06   55.49   1
 -12   3   7  403.36   47.30   1
 -12   3   7  368.06   62.89   1
  12   3  -7  384.66   58.59   1
 -12   3   7  394.56   48.90   1
 -12  -3   7  392.26   43.40   1
 -12  -3   7  361.66   55.99   1
  12  -3  -7  413.36   53.79   1
  12  -3  -7  386.96   51.69   1
 -12   3   6  522.45   52.09   1
 -12   3   6  399.66   65.39   1
  12   3  -6  546.55   57.39   1
  12   3  -6  439.56   61.59   1
 -12   3   6  559.94   53.39   1
 -12  -3   6  484.65   60.09   1
  12  -3  -6  496.15   56.49   1
  12  -3  -6  509.35   56.09   1
 -12  -3   6  472.15   48.50   1
 -12   3   5   72.39   31.80   1
  12   3  -5   83.29   30.40   1
 -12   3   5   62.99   27.40   1
  12   3  -5   79.79   32.50   1
 -12   3   5   54.79   26.20   1
  12  -3  -5   63.09   30.00   1
 -12  -3   5   51.99   23.10   1
  12  -3  -5   52.19   27.70   1
 -12  -3   5   24.60   27.40   1
 -12   3   4   61.39   30.60   1
  12   3  -4  107.19   31.80   1
 -12   3   4   40.20   21.00   1
  12   3  -4   26.90   29.50   1
 -12   3   4   18.70   31.00   1
  12  -3  -4   85.29   32.10   1
  12  -3  -4   60.79   30.50   1
 -12  -3   4   52.29   27.00   1
 -12   3   3  145.89   34.20   1
  12   3  -3  147.19   28.20   1
  12   3  -3  109.09   31.00   1
 -12   3   3   75.59   32.70   1
  12   3  -3   82.89   33.90   1
 -12  -3   3   60.09   32.40   1
  12  -3  -3  116.99   30.10   1
  12  -3  -3   60.09   28.30   1
 -12  -3   3   85.49   28.80   1
 -12   3   2  114.49   43.30   1
 -12   3   2  121.19   25.80   1
 -12   3   2   43.50   30.30   1
  12   3  -2  130.69   25.90   1
  12   3  -2   68.29   27.90   1
  12   3  -2  138.39   36.20   1
  12  -3  -2  153.58   34.10   1
 -12  -3   2  148.19   31.40   1
  12  -3  -2  100.09   44.90   1
 -12  -3   2   68.09   40.70   1
 -12   3   1  467.35   54.09   1
  12   3  -1  496.45   58.99   1
 -12   3   1  303.07   55.39   1
  12   3  -1  486.15   50.69   1
 -12   3   1  428.96   45.80   1
  12   3  -1  438.86   48.20   1
  12  -3  -1  437.96   53.79   1
 -12  -3   1  376.96   57.49   1
 -12  -3   1  485.45   54.99   1
  12  -3  -1  538.15   51.79   1
  12   3   0   48.60   26.50   1
 -12   3   0   15.10   27.10   1
  12   3   0   42.00   30.90   1
 -12   3   0   79.29   21.80   1
  12   3   0   16.50   23.80   1
 -12   3   0   65.89   27.90   1
  12  -3   0  171.88   34.30   1
 -12  -3   0   -8.40   29.10   1
 -12  -3   0   58.99   29.50   1
  12  -3   0  128.19   28.30   1
  12   3   1  107.29   29.20   1
  12   3   1   77.19   33.60   1
 -12   3  -1   96.99   32.20   1
 -12   3  -1   75.29   23.30   1
  12   3   1  122.89   27.10   1
 -12  -3  -1  150.28   35.30   1
 -12  -3  -1   59.19   32.60   1
  12  -3   1   90.59   31.60   1
  12   3   2  101.99   31.20   1
 -12   3  -2  105.69   33.40   1
  12   3   2  104.29   27.40   1
 -12   3  -2  124.39   30.10   1
  12   3   2  142.19   35.50   1
 -12   3  -2  136.39   31.50   1
 -12  -3  -2  121.79   37.30   1
  12  -3   2  139.29   35.00   1
 -12  -3  -2   96.39   35.40   1
 -12   3  -3  228.58   40.20   1
 -12   3  -3  155.38   35.40   1
  12   3   3  126.39   29.60   1
  12   3   3  113.69   32.30   1
  12   3   3   82.89   35.70   1
 -12  -3  -3  141.19   35.60   1
  12  -3   3   87.29   36.20   1
 -12  -3  -3  101.59   39.40   1
  12   3   4  139.09   31.50   1
  12   3   4  119.89   44.20   1
  12   3   4  151.48   35.40   1
 -12   3  -4   99.29   36.50   1
 -12  -3  -4  122.39   38.50   1
 -12  -3  -4  142.29   40.10   1
  12  -3   4   62.49   34.50   1
  12   3   5  131.99   29.00   1
  12   3   5  188.38   37.00   1
 -12   3  -5  213.38   41.50   1
  12   3   5  222.08   44.00   1
 -12  -3  -5  125.99   40.50   1
  12  -3   5  168.08   39.00   1
 -12   3  -6  103.99   35.50   1
  12   3   6  147.09   32.90   1
 -12   3  -6  265.87   44.50   1
 -12  -3  -6  101.59   39.00   1
  12  -3   6  120.89   39.40   1
  12   3   7  180.38   33.60   1
 -12   3  -7  168.98   38.30   1
 -12  -3  -7  229.08   40.10   1
  12  -3   7  182.98   40.30   1
 -12  -3  -7  127.49   40.20   1
  12  -3   7  205.68   43.40   1
 -12   3  -8  802.22   74.99   1
  12   3   8  571.24   64.99   1
 -12   3  -8  747.13   74.59   1
 -12  -3  -8  631.54   74.89   1
  12  -3   8  666.63   76.19   1
 -12   3  -9  450.15   65.19   1
 -12   3  -9  636.04   71.19   1
  12  -3   9  505.05   68.69   1
 -12  -3  -9  406.26   69.49   1
 -12   4  10   57.69   28.30   1
 -12   4  10  115.49   48.30   1
  12  -4 -10   -0.50   44.10   1
  12   4  -9  828.02   80.59   1
 -12   4   9  785.42   76.99   1
  12   4  -9  823.02   90.69   1
 -12   4   9  885.81   76.39   1
 -12   4   9  736.43   94.79   1
  12  -4  -9  734.73   78.79   1
 -12  -4   9  807.22   76.59   1
  12  -4  -9  821.72   88.19   1
 -12   4   8   54.39   44.80   1
  12   4  -8  162.68   37.80   1
 -12   4   8   56.59   33.70   1
 -12   4   8   78.29   31.40   1
  12   4  -8   82.89   45.70   1
 -12  -4   8  114.59   30.60   1
  12  -4  -8  100.39   37.80   1
  12  -4  -8  157.18   43.80   1
 -12  -4   8  -22.00   46.00   1
 -12   4   7  359.46   53.39   1
  12   4  -7  412.66   66.69   1
  12   4  -7  370.06   55.49   1
 -12   4   7  329.87   48.40   1
  12  -4  -7  383.16   56.89   1
 -12  -4   7  266.77   58.59   1
 -12  -4   7  318.37   45.00   1
  12  -4  -7  396.36   59.39   1
  12   4  -6  297.37   46.40   1
 -12   4   6  227.48   39.80   1
 -12   4   6  132.09   46.90   1
 -12   4   6  268.47   44.80   1
  12   4  -6  305.57   51.69   1
  12  -4  -6  398.06   51.89   1
 -12  -4   6  257.07   54.49   1
 -12  -4   6  112.89   45.90   1
 -12  -4   6  447.66   44.20   1
  12  -4  -6  313.17   53.89   1
 -12   4   5  441.16   71.69   1
  12   4  -5  593.64   72.09   1
 -12   4   5  471.15   56.69   1
  12   4  -5  443.76   61.09   1
 -12   4   5  598.84   60.89   1
 -12  -4   5  411.76   65.29   1
  12  -4  -5  576.84   66.69   1
  12  -4  -5  391.96   58.29   1
 -12   4   4  280.97   56.79   1
  12   4  -4  484.55   54.19   1
  12   4  -4  406.46   68.19   1
 -12   4   4  312.87   49.99   1
 -12   4   4  476.35   58.99   1
  12  -4  -4  467.85   61.49   1
 -12  -4   4  573.94   71.49   1
  12  -4  -4  450.55   58.59   1
 -12  -4   4  419.56   62.19   1
  12   4  -3  386.56   49.60   1
 -12   4   3  364.16   52.89   1
  12   4  -3  295.17   52.49   1
 -12   4   3  284.97   44.60   1
  12   4  -3  443.36   55.19   1
 -12  -4   3  478.25   65.69   1
 -12  -4   3  313.57   51.89   1
  12  -4  -3  320.07   55.09   1
  12  -4  -3  351.86   49.50   1
  12   4  -2  570.24   51.79   1
  12   4  -2  489.75   67.69   1
 -12   4   2  346.27   56.79   1
 -12   4   2  217.68   44.60   1
  12   4  -2  382.16   52.09   1
 -12  -4   2  558.44   63.39   1
  12  -4  -2  317.87   56.89   1
  12  -4  -2  389.06   58.79   1
 -12  -4   2  530.45   66.49   1
 -12   4   1  771.22   73.59   1
  12   4  -1  652.93   66.19   1
  12   4  -1  641.24   80.19   1
 -12   4   1  729.23   71.99   1
  12   4  -1  639.14   69.99   1
 -12  -4   1  561.94   79.99   1
  12  -4  -1  782.72   74.89   1
 -12  -4   1  587.64   75.99   1
  12  -4  -1  861.21   72.89   1
 -12   4   0  130.99   37.10   1
  12   4   0  146.29   35.30   1
  12   4   0  147.59   34.30   1
  12   4   0  107.29   43.90   1
 -12  -4   0  175.28   45.60   1
 -12  -4   0   56.79   43.20   1
  12  -4   0  216.58   41.90   1
  12   4   1  222.18   47.00   1
 -12   4  -1   88.59   38.40   1
  12   4   1  118.09   31.40   1
  12   4   1  117.89   33.90   1
 -12  -4  -1  133.99   40.80   1
  12  -4   1  108.49   39.60   1
 -12  -4  -1   31.90   41.90   1
  12   4   2  165.88   50.39   1
 -12   4  -2  324.37   51.09   1
  12   4   2  240.58   43.70   1
  12   4   2  349.96   45.40   1
 -12  -4  -2  328.37   58.29   1
  12  -4   2  306.87   49.50   1
 -12  -4  -2  264.27   51.39   1
  12   4   3  162.38   35.70   1
 -12   4  -3  148.09   41.10   1
  12   4   3  127.79   34.10   1
 -12  -4  -3  137.79   41.80   1
 -12  -4  -3  142.69   44.50   1
  12  -4   3  189.58   41.40   1
 -12   4  -4  -22.20   35.30   1
  12   4   4   34.00   34.30   1
  12   4   4   -7.40   26.30   1
 -12  -4  -4  -27.30   37.10   1
 -12  -4  -4   86.79   39.80   1
 -12   4  -5   38.10   39.00   1
  12   4   5   76.59   38.60   1
  12   4   5   53.09   27.90   1
 -12  -4  -5  -11.90   43.70   1
 -12  -4  -5  126.09   44.40   1
  12  -4   5   22.20   35.60   1
 -12  -4  -6   63.69   42.60   1
  12  -4   6  -16.70   36.20   1
  13   0 -16   28.50   32.90   1
  13   0 -16    4.50   37.90   1
 -13   0  16   -6.50   27.00   1
  13   0 -15   50.69   38.30   1
 -13   0  15  -21.80   41.10   1
 -13   0  15  -17.90   25.80   1
  13   0 -15  -27.90   33.50   1
  13   0 -15   -4.60   30.20   1
 -13   0  14   45.00   31.40   1
  13   0 -14    6.00   32.80   1
  13   0 -14   16.20   32.70   1
  13   0 -14   58.49   33.00   1
 -13   0  14  -27.00   37.40   1
  13   0 -13    9.10   31.80   1
 -13   0  13    6.80   37.10   1
 -13   0  13  -22.60   24.20   1
  13   0 -13   10.50   26.30   1
  13   0 -13   14.10   31.70   1
 -13   0  12   22.10   22.80   1
 -13   0  12    6.10   31.10   1
  13   0 -12   22.60   28.20   1
  13   0 -12   70.69   31.10   1
  13   0 -11   44.00   23.00   1
  13   0 -11   17.60   25.70   1
 -13   0  11   36.50   32.10   1
  13   0 -11   33.80   27.00   1
 -13   0  11   22.10   21.20   1
 -13   0  10    4.90   20.30   1
  13   0 -10   45.90   27.90   1
  13   0 -10  -10.40   19.40   1
  13   0 -10   52.39   26.30   1
 -13   0  10   42.50   30.80   1
  13   0  -9   42.40   24.90   1
 -13   0   9   13.60   28.10   1
  13   0  -9   -2.50   16.50   1
  13   0  -9   19.50   25.20   1
 -13   0   9   11.60   18.40   1
  13   0  -8   75.39   26.40   1
 -13   0   8   38.40   30.70   1
  13   0  -8   25.90   22.10   1
 -13   0   8   19.20   19.60   1
  13   0  -8   48.80   24.70   1
  13   0  -7   54.79   25.40   1
 -13   0   7   43.10   19.40   1
 -13   0   7   90.09   29.20   1
  13   0  -7   92.79   25.30   1
 -13   0   6  126.59   29.30   1
 -13   0   6   79.89   23.40   1
  13   0  -6  105.09   24.50   1
  13   0  -6  123.29   29.50   1
 -13   0   5   -1.80   15.70   1
  13   0  -5   11.40   21.40   1
  13   0  -5   33.20   23.10   1
  13   0  -4   68.49   25.20   1
  13   0  -4   45.40   21.70   1
 -13   0   4   71.29   23.80   1
 -13   0   4   18.20   17.10   1
  13   0  -3   -1.80   19.70   1
 -13   0   3    7.10   21.50   1
  13   0  -3   26.40   22.70   1
  13   0  -2  209.08   30.40   1
 -13   0   2  142.69   17.60   1
 -13   0   2  174.38   31.10   1
  13   0  -2  132.19   28.60   1
  13   0  -1   45.40   20.50   1
  13   0  -1   34.30   23.40   1
  13   0  -1   34.50   21.70   1
 -13   0   1   55.89   25.00   1
 -13   0   1   49.90   14.60   1
 -13   0   0   60.59   23.60   1
 -13   0   0   50.79   15.00   1
  13   0   0   30.30   21.40   1
  13   0   0   37.10   21.80   1
  13   0   1  147.89   25.90   1
 -13   0  -1  152.68   24.50   1
 -13   0  -1  133.79   31.30   1
  13   0   1  129.99   26.60   1
  13   0   2   14.80   19.80   1
  13   0   2   34.80   19.70   1
 -13   0  -2   52.69   26.10   1
 -13   0  -2   47.30   24.00   1
  13   0   3  247.78   35.50   1
 -13   0  -3  275.97   39.40   1
 -13   0  -3  173.88   28.50   1
  13   0   3  275.27   33.70   1
  13   0   4   -0.90   21.40   1
 -13   0  -4  -32.60   22.60   1
 -13   0  -4   -1.70   25.50   1
  13   0   4  -58.59   18.50   1
 -13   0  -5   11.50   25.80   1
  13   0   5    3.20   21.10   1
 -13   0  -5   48.90   23.10   1
 -13   0  -5   31.80   25.20   1
  13   0   5   57.09   23.80   1
 -13   0  -6   81.39   46.70   1
 -13   0  -6   55.09   29.90   1
 -13   0  -6   64.09   23.00   1
  13   0   6   82.19   25.70   1
  13   0   6   74.79   23.90   1
 -13   0  -7   -6.20   30.20   1
  13   0   7    2.40   22.10   1
 -13   0  -7   -1.20   22.10   1
  13   0   7   11.60   25.90   1
  13   0   8   27.50   23.00   1
  13   0   8  109.19   29.30   1
 -13   0  -8   39.00   23.70   1
 -13   0  -8   74.99   34.30   1
 -13   0  -9   16.40   25.90   1
  13   0   9   -0.80   20.20   1
 -13   0  -9   39.80   32.20   1
  13   0  10    8.40   21.70   1
 -13   0 -10   55.69   34.80   1
 -13   0 -10    4.40   27.30   1
 -13   0 -11   -9.40   35.20   1
  13   0  11   30.80   22.90   1
  13   0  11   15.10   41.30   1
 -13   0 -11   13.10   28.20   1
 -13   0 -12   29.70   31.90   1
  13   0  12   10.80   27.50   1
  13   1 -16   -9.60   38.20   1
 -13   1  16   -1.60   25.70   1
  13   1 -16   50.89   43.40   1
  13   1 -16  -60.59   37.80   1
  13  -1 -16   49.10   30.60   1
  13  -1 -16   -6.60   38.00   1
 -13  -1  16   -5.00   27.70   1
  13   1 -15   80.59   37.90   1
  13   1 -15   36.50   35.70   1
  13   1 -15   58.49   37.40   1
  13  -1 -15  -12.80   27.40   1
  13  -1 -15   24.40   35.30   1
 -13  -1  15   74.49   31.50   1
 -13   1  14   25.60   39.00   1
  13   1 -14   21.00   34.40   1
  13   1 -14   55.79   32.80   1
 -13   1  14   15.30   25.10   1
  13   1 -14   -7.60   32.90   1
 -13  -1  14   22.00   28.40   1
  13  -1 -14  -24.70   25.50   1
  13  -1 -14  -12.80   32.20   1
  13  -1 -14   24.20   32.40   1
 -13  -1  14  -39.40   37.80   1
 -13   1  13   40.00   24.90   1
 -13   1  13  -32.30   34.40   1
  13   1 -13   37.50   32.90   1
  13   1 -13   47.60   33.10   1
  13   1 -13  -47.60   33.70   1
  13  -1 -13    8.80   26.80   1
  13  -1 -13    2.10   28.80   1
  13  -1 -13   49.10   32.00   1
 -13  -1  13   35.60   37.00   1
 -13  -1  13    7.60   27.00   1
 -13   1  12   21.40   25.40   1
  13   1 -12   34.30   30.00   1
  13   1 -12   77.79   32.40   1
 -13   1  12  -30.80   32.90   1
  13   1 -12  -12.80   28.40   1
 -13  -1  12    3.40   34.40   1
  13  -1 -12   23.60   28.90   1
  13  -1 -12   58.79   30.80   1
  13  -1 -12   20.70   19.70   1
 -13  -1  12   15.80   21.90   1
  13   1 -11   43.50   29.90   1
  13   1 -11   67.89   30.40   1
  13   1 -11   37.20   27.40   1
 -13   1  11  108.19   33.40   1
 -13   1  11   50.99   25.20   1
  13  -1 -11   61.49   29.70   1
 -13  -1  11   32.70   34.10   1
  13  -1 -11    4.40   18.70   1
 -13  -1  11   81.59   24.70   1
  13  -1 -11   79.89   29.30   1
 -13   1  10   26.40   20.90   1
  13   1 -10   21.10   26.00   1
 -13   1  10    9.10   31.20   1
  13   1 -10   -7.70   27.30   1
  13   1 -10   33.60   22.60   1
  13  -1 -10   47.30   27.50   1
  13  -1 -10   32.90   26.40   1
 -13  -1  10   15.30   20.20   1
  13  -1 -10  -47.40   19.30   1
 -13  -1  10   29.80   32.70   1
  13   1  -9   37.40   19.30   1
  13   1  -9   28.10   25.90   1
 -13   1   9   31.50   32.10   1
 -13   1   9   17.50   19.90   1
  13   1  -9   49.60   28.50   1
 -13  -1   9   32.10   30.70   1
  13  -1  -9   14.60   17.00   1
  13  -1  -9   20.60   25.10   1
  13  -1  -9   51.39   26.10   1
 -13  -1   9   32.60   18.80   1
  13   1  -8   -2.00   23.80   1
 -13   1   8    3.30   27.00   1
  13   1  -8   19.20   17.40   1
 -13   1   8   44.20   20.80   1
  13   1  -8   27.00   23.40   1
 -13  -1   8   43.90   21.60   1
 -13  -1   8   35.10   28.30   1
  13  -1  -8   25.40   15.00   1
  13  -1  -8   24.50   23.30   1
  13  -1  -8   32.80   22.80   1
  13   1  -7  101.39   28.90   1
 -13   1   7   76.09   25.40   1
  13   1  -7   52.09   16.90   1
  13   1  -7   67.59   26.00   1
 -13   1   7  110.49   31.60   1
 -13  -1   7   71.29   22.50   1
 -13  -1   7   76.59   28.90   1
  13  -1  -7   77.89   25.40   1
  13  -1  -7   95.89   25.80   1
  13  -1  -7   68.49   14.70   1
 -13   1   6   24.90   20.10   1
  13   1  -6   39.80   23.80   1
  13   1  -6   61.39   24.10   1
 -13   1   6   77.79   27.70   1
  13   1  -6   57.09   15.90   1
  13  -1  -6   56.19   21.70   1
 -13  -1   6   37.60   27.50   1
 -13  -1   6   26.70   18.40   1
  13   1  -5  147.39   27.60   1
  13   1  -5  108.59   27.10   1
  13   1  -5   80.29   15.20   1
 -13   1   5   81.79   15.20   1
 -13   1   5   69.79   21.40   1
 -13   1   5  119.39   31.20   1
  13  -1  -5  105.49   24.50   1
 -13  -1   5   81.79   27.70   1
 -13  -1   5   77.49   20.30   1
  13  -1  -5  106.99   27.10   1
 -13   1   4   27.00   23.60   1
  13   1  -4    6.00   20.70   1
 -13   1   4  -16.20   15.40   1
  13   1  -4   37.40   12.40   1
  13   1  -4   -3.20   21.10   1
 -13   1   4   22.20   14.10   1
  13  -1  -4  -11.00   21.90   1
  13  -1  -4  -18.40   21.50   1
 -13   1   3  148.79   30.30   1
 -13   1   3  112.29   19.20   1
  13   1  -3  123.79   24.80   1
  13   1  -3  118.39   28.00   1
 -13   1   3  119.19   24.90   1
  13   1  -3  108.19   25.40   1
  13  -1  -3   93.69   24.70   1
  13  -1  -3  133.49   26.90   1
  13   1  -2   82.99   25.90   1
  13   1  -2  107.99   24.40   1
  13   1  -2   92.69   25.60   1
 -13   1   2   95.09   24.10   1
 -13   1   2  115.59   26.60   1
 -13   1   2  125.19   21.20   1
  13  -1  -2  100.49   27.60   1
  13  -1  -2  143.79   28.80   1
  13   1  -1   38.40   21.00   1
 -13   1   1   47.20   23.50   1
  13   1  -1   16.70   25.10   1
 -13   1   1   34.40   17.80   1
 -13  -1   1   35.40   15.90   1
 -13  -1   1   69.59   26.90   1
  13  -1  -1   45.70   22.00   1
  13  -1  -1   22.60   22.50   1
  13   1   0   21.10   20.90   1
  13   1   0   33.90   21.50   1
 -13   1   0   24.20   23.20   1
 -13   1   0    4.10   17.90   1
 -13  -1   0   31.60   24.80   1
  13  -1   0   -4.90   33.20   1
  13  -1   0   36.20   23.90   1
 -13  -1   0   -3.20   15.00   1
  13  -1   0   43.00   21.70   1
 -13   1  -1   14.20   22.30   1
  13   1   1   31.60   21.90   1
 -13   1  -1   38.60   19.50   1
  13   1   1   19.20   19.50   1
 -13  -1  -1   -9.30   24.20   1
  13  -1   1   22.00   22.50   1
 -13  -1  -1   38.20   18.60   1
  13  -1   1   33.60   18.90   1
 -13   1  -2   91.49   26.10   1
 -13   1  -2   19.50   20.80   1
  13   1   2   91.29   24.20   1
 -13   1  -2   71.69   26.70   1
  13   1   2   69.99   21.50   1
 -13  -1  -2   81.49   20.90   1
  13  -1   2   89.69   26.10   1
 -13  -1  -2   50.59   25.80   1
  13  -1   2   67.59   23.10   1
 -13  -1  -2   56.09   25.50   1
 -13   1  -3   23.50   21.00   1
  13   1   3   23.70   21.00   1
 -13   1  -3    2.70   21.40   1
 -13   1  -3  -24.50   23.00   1
  13   1   3   47.30   20.10   1
 -13  -1  -3    8.30   25.00   1
 -13  -1  -3   21.50   21.40   1
 -13  -1  -3   -3.80   22.90   1
  13  -1   3    3.90   21.10   1
  13  -1   3   12.50   23.10   1
 -13   1  -4   37.80   24.50   1
  13   1   4   16.80   20.50   1
 -13   1  -4   15.30   24.20   1
 -13   1  -4    7.70   22.60   1
  13   1   4   13.40   28.50   1
 -13  -1  -4   17.90   25.50   1
  13  -1   4   -2.30   22.30   1
  13  -1   4  -18.00   23.90   1
 -13  -1  -4  -31.50   25.10   1
 -13  -1  -4   20.00   23.40   1
 -13   1  -5   44.20   27.40   1
 -13   1  -5   63.89   26.80   1
  13   1   5   31.10   21.20   1
  13   1   5   33.00   22.00   1
 -13   1  -5   19.70   26.20   1
  13  -1   5   63.69   28.20   1
 -13  -1  -5  -19.70   25.80   1
 -13  -1  -5   -5.30   24.50   1
  13  -1   5   39.00   24.10   1
 -13  -1  -5   52.59   27.70   1
 -13   1  -6    8.00   25.80   1
 -13   1  -6   -0.10   24.70   1
  13   1   6   -8.60   23.60   1
 -13   1  -6  -33.40   27.30   1
  13   1   6   21.20   22.90   1
 -13  -1  -6  -60.29   28.30   1
 -13  -1  -6   29.10   25.90   1
  13  -1   6  -13.90   28.10   1
  13  -1   6  -22.10   24.10   1
 -13   1  -7    0.30   27.90   1
 -13   1  -7   23.80   31.60   1
 -13   1  -7  -17.80   25.20   1
  13   1   7  -14.90   20.40   1
  13   1   7  -37.40   22.60   1
  13  -1   7    6.30   23.00   1
  13  -1   7  -11.50   27.60   1
 -13  -1  -7   15.50   26.10   1
 -13  -1  -7  -14.20   30.10   1
 -13   1  -8   54.69   33.50   1
 -13   1  -8   49.80   31.10   1
  13   1   8   34.80   22.50   1
 -13   1  -8   11.00   25.10   1
 -13  -1  -8   31.70   32.40   1
  13  -1   8   25.20   30.60   1
  13  -1   8   20.30   25.50   1
 -13  -1  -8   -4.60   27.60   1
 -13   1  -9   12.30   33.40   1
 -13   1  -9    8.50   32.40   1
  13   1   9   30.00   24.20   1
 -13   1  -9    7.10   27.70   1
  13   1   9  -52.39   34.30   1
  13  -1   9   17.80   28.10   1
 -13  -1  -9   11.40   23.60   1
 -13  -1  -9   43.40   32.40   1
  13  -1   9   66.69   36.10   1
 -13   1 -10   18.00   28.50   1
  13   1  10   17.60   25.50   1
 -13   1 -10   60.09   35.10   1
  13   1  10   42.80   40.30   1
  13  -1  10   39.50   38.00   1
 -13  -1 -10   27.70   24.50   1
 -13  -1 -10   29.30   36.10   1
  13  -1  10   32.10   25.20   1
 -13   1 -11   48.10   39.40   1
  13   1  11   -2.40   43.20   1
 -13   1 -11  -10.30   28.20   1
 -13  -1 -11    3.60   23.10   1
  13  -1  11   23.20   27.10   1
 -13   1 -12   15.60   28.30   1
  13   1  12   -0.30   22.50   1
 -13  -1 -12    5.50   29.70   1
  13  -1  12  -52.19   23.30   1
  13   2 -15   15.30   45.20   1
 -13   2  15   17.80   25.20   1
  13   2 -15   53.59   40.50   1
 -13  -2  15  -89.09   51.99   1
 -13  -2  15  -17.60   33.20   1
  13  -2 -15   89.39   37.40   1
  13  -2 -15   24.10   34.00   1
  13   2 -14   40.10   36.70   1
  13   2 -14  -16.00   39.70   1
  13   2 -14  -94.19   40.60   1
 -13  -2  14   -3.50   29.00   1
  13  -2 -14  -35.30   30.20   1
 -13  -2  14  -78.99   43.10   1
  13  -2 -14  -31.00   32.10   1
 -13   2  13   60.29   31.60   1
  13   2 -13  -22.50   35.20   1
  13   2 -13   14.00   38.40   1
  13   2 -13   45.60   39.80   1
 -13   2  13   18.70   40.50   1
 -13  -2  13   11.30   27.00   1
  13  -2 -13   45.80   32.20   1
 -13  -2  13  -24.90   39.60   1
  13  -2 -13   17.90   32.90   1
  13  -2 -13   64.99   30.60   1
  13   2 -12  106.69   32.90   1
 -13   2  12   35.80   40.60   1
  13   2 -12   58.49   39.80   1
 -13   2  12  107.49   31.60   1
  13   2 -12   78.59   36.90   1
  13  -2 -12  102.49   28.80   1
  13  -2 -12   48.10   30.10   1
 -13  -2  12    5.50   38.10   1
 -13  -2  12   66.19   27.50   1
  13  -2 -12   91.19   36.10   1
  13   2 -11  -44.90   31.70   1
 -13   2  11  -15.70   23.70   1
 -13   2  11  -50.69   34.20   1
  13   2 -11    3.90   31.80   1
  13   2 -11   29.30   35.10   1
  13  -2 -11   39.40   29.90   1
  13  -2 -11    7.40   31.60   1
  13  -2 -11   16.40   29.60   1
 -13  -2  11    3.00   35.80   1
 -13  -2  11   -3.90   23.20   1
  13   2 -10   10.80   27.30   1
 -13   2  10   40.20   28.10   1
  13   2 -10   39.40   30.10   1
  13   2 -10   60.29   32.00   1
 -13   2  10   31.00   37.80   1
  13  -2 -10   57.69   28.00   1
  13  -2 -10  113.49   32.50   1
 -13  -2  10   43.50   23.70   1
 -13  -2  10   47.30   34.10   1
 -13   2   9  -18.70   25.60   1
  13   2  -9   18.10   25.60   1
 -13   2   9   -1.40   20.90   1
  13   2  -9  -26.70   26.20   1
  13   2  -9   20.50   27.20   1
 -13   2   9  -14.60   29.60   1
 -13  -2   9   -6.40   18.80   1
  13  -2  -9   24.00   24.90   1
  13  -2  -9   -2.40   25.20   1
 -13  -2   9  -13.60   31.70   1
  13   2  -8   29.80   27.40   1
  13   2  -8   23.60   28.20   1
  13   2  -8  -25.90   22.50   1
 -13   2   8   19.90   30.60   1
 -13   2   8   24.40   22.60   1
 -13   2   8   11.60   22.20   1
 -13  -2   8   46.90   29.70   1
  13  -2  -8   26.90   25.40   1
 -13  -2   8   32.90   19.40   1
  13  -2  -8   -4.40   24.20   1
 -13   2   7    5.80   19.30   1
  13   2  -7   -4.20   25.10   1
 -13   2   7  -63.99   27.90   1
  13   2  -7   11.30   25.00   1
  13   2  -7  -33.00   24.60   1
  13  -2  -7   10.30   22.60   1
  13  -2  -7    2.40   24.40   1
 -13  -2   7   -3.90   26.20   1
 -13  -2   7   25.00   21.30   1
  13   2  -6   67.79   27.80   1
  13   2  -6   16.10   40.30   1
 -13   2   6   86.69   22.50   1
 -13   2   6   67.99   29.50   1
  13   2  -6   50.59   24.60   1
 -13   2   6   37.90   23.20   1
  13  -2  -6   61.89   26.40   1
 -13  -2   6   39.00   20.60   1
 -13  -2   6  101.69   28.50   1
  13  -2  -6   61.09   27.40   1
 -13   2   5   11.00   19.00   1
  13   2  -5   12.10   24.00   1
 -13   2   5   11.20   27.50   1
  13   2  -5  -13.00   26.70   1
  13   2  -5   12.60   21.90   1
 -13   2   5   -3.80   22.60   1
  13  -2  -5    2.30   24.40   1
 -13  -2   5   22.30   24.30   1
 -13  -2   5    5.10   16.80   1
  13  -2  -5   -4.70   25.40   1
  13   2  -4  147.29   32.20   1
 -13   2   4   56.19   49.40   1
 -13   2   4  111.19   24.50   1
  13   2  -4  168.38   28.00   1
 -13   2   4  205.08   29.90   1
  13   2  -4  185.38   32.50   1
  13  -2  -4  147.39   30.90   1
 -13  -2   4  162.18   30.40   1
  13  -2  -4  164.88   33.80   1
  13   2  -3   97.49   23.80   1
  13   2  -3   62.89   27.20   1
 -13   2   3   83.69   20.10   1
  13   2  -3   86.69   24.30   1
 -13   2   3   61.89   27.20   1
  13  -2  -3   66.49   25.80   1
 -13  -2   3   79.79   27.10   1
  13  -2  -3   31.50   26.70   1
 -13   2   2  108.59   26.70   1
  13   2  -2  106.89   25.30   1
  13   2  -2   64.69   27.00   1
  13   2  -2   63.59   23.30   1
 -13   2   2  106.89   27.90   1
  13  -2  -2  117.19   29.40   1
 -13  -2   2  138.89   30.40   1
  13  -2  -2  119.89   28.80   1
 -13   2   1  -34.00   20.90   1
  13   2  -1  -12.10   20.60   1
 -13   2   1    6.90   16.00   1
 -13   2   1    1.20   23.00   1
  13   2  -1   10.20   23.20   1
  13   2  -1    7.90   20.40   1
  13  -2  -1   13.70   24.90   1
 -13  -2   1  -39.70   22.90   1
 -13  -2   1   30.30   25.40   1
  13  -2  -1   25.60   23.90   1
  13   2   0  -17.40   20.50   1
 -13   2   0  -20.80   22.00   1
  13   2   0  -14.70   20.90   1
  13   2   0    2.60   22.90   1
 -13   2   0   15.00   15.20   1
 -13   2   0   22.70   23.60   1
  13  -2   0    7.10   23.70   1
 -13  -2   0    1.90   24.80   1
  13  -2   0   30.40   26.90   1
 -13  -2   0   10.50   25.30   1
  13   2   1   -8.70   19.60   1
  13   2   1   63.79   35.60   1
 -13   2  -1   39.30   23.50   1
 -13  -2  -1  112.89   32.20   1
  13  -2   1   62.99   28.90   1
 -13  -2  -1   13.10   29.10   1
 -13   2  -2   -1.00   24.20   1
 -13   2  -2   17.50   23.90   1
  13   2   2   33.40   23.70   1
  13   2   2    2.20   20.10   1
 -13   2  -2   -1.70   23.30   1
 -13  -2  -2   10.50   26.40   1
  13  -2   2   36.30   26.30   1
 -13  -2  -2   20.40   30.20   1
 -13   2  -3  -43.30   23.80   1
  13   2   3    5.00   22.80   1
  13   2   3   -1.30   24.30   1
 -13   2  -3   26.70   25.70   1
 -13   2  -3  -26.60   22.10   1
  13  -2   3  -16.20   26.80   1
 -13  -2  -3  -35.30   26.70   1
 -13  -2  -3   18.80   26.40   1
 -13   2  -4   -2.80   24.70   1
  13   2   4   16.50   23.20   1
 -13   2  -4   -5.20   25.20   1
  13   2   4   15.20   25.50   1
 -13   2  -4   15.30   25.80   1
  13  -2   4   26.60   25.20   1
  13  -2   4   39.70   27.70   1
 -13  -2  -4   12.10   30.40   1
 -13  -2  -4   23.40   29.10   1
 -13  -2  -4   -4.60   24.80   1
 -13   2  -5   22.60   28.90   1
 -13   2  -5    3.90   26.20   1
  13   2   5  -33.50   18.10   1
 -13   2  -5   46.00   28.90   1
 -13  -2  -5   24.70   33.40   1
  13  -2   5    1.50   24.30   1
  13  -2   5   60.99   30.00   1
 -13  -2  -5   49.70   31.00   1
 -13  -2  -5   15.90   26.90   1
  13   2   6   98.89   32.40   1
  13   2   6   29.30   23.10   1
 -13   2  -6   10.50   27.70   1
 -13   2  -6   73.49   34.00   1
 -13   2  -6   14.30   28.60   1
 -13  -2  -6   -8.40   26.10   1
  13  -2   6   48.70   27.90   1
 -13  -2  -6   32.70   33.10   1
  13  -2   6   23.30   30.00   1
 -13   2  -7   25.50   31.00   1
 -13   2  -7   -6.90   35.70   1
  13   2   7   -8.10   19.40   1
 -13   2  -7   31.10   29.60   1
  13  -2   7   -6.00   28.80   1
 -13  -2  -7   25.40   30.00   1
  13  -2   7   13.30   30.40   1
 -13  -2  -7   17.20   33.70   1
  13   2   8    0.70   20.60   1
 -13   2  -8  -19.30   25.60   1
 -13   2  -8   -4.10   31.30   1
  13   2   8   43.30   36.40   1
 -13   2  -8   72.39   34.90   1
  13  -2   8   26.10   30.10   1
 -13  -2  -8   65.49   35.10   1
 -13  -2  -8   53.09   31.90   1
  13  -2   8  -12.10   31.40   1
 -13   2  -9   71.59   38.40   1
  13   2   9   12.00   23.40   1
 -13   2  -9   -0.60   34.80   1
 -13   2  -9   12.80   28.80   1
 -13  -2  -9   12.30   33.40   1
  13  -2   9  -18.90   33.10   1
 -13  -2  -9   24.50   34.00   1
  13  -2   9  -11.90   29.80   1
  13   2  10   17.60   23.60   1
 -13   2 -10   36.50   33.10   1
 -13   2 -10   74.09   40.30   1
 -13   2 -10  -48.10   40.20   1
  13  -2  10   -9.70   36.60   1
 -13  -2 -10  -12.60   33.30   1
  13  -2  10   -3.90   31.40   1
  13  -2  11  -33.10   41.30   1
 -13   3  13   87.39   31.30   1
  13   3 -13   85.79   41.60   1
  13   3 -13   96.59   42.20   1
  13   3 -13  125.99   49.60   1
 -13  -3  13   63.09   35.60   1
  13  -3 -13  149.49   37.60   1
 -13  -3  13   -6.60   54.29   1
  13  -3 -13  132.69   35.40   1
  13   3 -12   56.19   40.60   1
  13   3 -12  -15.50   33.40   1
  13   3 -12   39.90   39.10   1
 -13   3  12  -11.00   41.50   1
 -13   3  12    5.30   27.30   1
  13  -3 -12  -11.20   31.20   1
 -13  -3  12   16.10   27.20   1
  13  -3 -12   31.90   38.20   1
 -13  -3  12  -58.69   43.10   1
  13   3 -11   95.19   40.00   1
 -13   3  11   36.10   42.20   1
 -13   3  11   53.99   30.80   1
 -13   3  11   10.20   36.20   1
  13   3 -11   54.59   35.00   1
  13   3 -11  104.09   40.90   1
 -13  -3  11   82.29   30.00   1
  13  -3 -11  116.99   33.40   1
  13  -3 -11   88.29   37.90   1
 -13  -3  11   56.19   44.90   1
  13   3 -10   68.89   38.60   1
 -13   3  10   74.19   32.80   1
 -13   3  10   79.09   27.90   1
 -13   3  10   -3.70   39.00   1
  13   3 -10  105.39   36.10   1
  13   3 -10   39.10   32.00   1
  13  -3 -10   86.39   40.80   1
 -13  -3  10  108.49   42.40   1
  13  -3 -10   64.29   33.10   1
 -13  -3  10   86.09   27.40   1
 -13   3   9  491.55   57.09   1
  13   3  -9  511.35   67.59   1
  13   3  -9  475.55   67.29   1
 -13   3   9  426.46   75.89   1
 -13   3   9  510.75   58.59   1
  13   3  -9  477.55   59.09   1
 -13  -3   9  547.45   54.19   1
  13  -3  -9  604.34   63.89   1
  13  -3  -9  674.53   59.19   1
 -13  -3   9  462.05   71.09   1
  13   3  -8   50.99   29.90   1
 -13   3   8   13.60   37.90   1
  13   3  -8   92.89   36.00   1
 -13   3   8   51.59   31.90   1
 -13   3   8   51.99   27.50   1
  13   3  -8   43.90   34.40   1
 -13  -3   8  135.99   28.30   1
 -13  -3   8   87.29   37.30   1
  13  -3  -8   63.49   31.90   1
  13  -3  -8   81.19   32.00   1
 -13   3   7  109.69   31.40   1
  13   3  -7   82.89   32.90   1
 -13   3   7    8.40   37.60   1
  13   3  -7   35.80   31.20   1
 -13   3   7  108.39   28.50   1
  13   3  -7  154.28   36.30   1
 -13  -3   7   77.39   24.40   1
 -13  -3   7   76.59   33.40   1
  13  -3  -7   80.69   31.60   1
  13  -3  -7  103.69   31.10   1
 -13   3   6   96.69   29.00   1
  13   3  -6   99.59   32.50   1
 -13   3   6   80.69   29.80   1
 -13   3   6   86.69   36.30   1
  13   3  -6  185.08   39.00   1
 -13  -3   6  110.99   26.30   1
 -13  -3   6   99.19   33.90   1
  13  -3  -6  153.48   35.30   1
  13  -3  -6  101.89   32.60   1
 -13   3   5   -5.40   25.00   1
 -13   3   5   15.30   30.70   1
  13   3  -5   21.00   28.60   1
 -13   3   5   23.00   25.10   1
  13   3  -5    6.10   31.70   1
  13  -3  -5   35.90   29.20   1
 -13  -3   5   -6.60   28.20   1
  13  -3  -5   20.50   29.20   1
 -13  -3   5  -11.20   19.90   1
  13   3  -4   11.70   31.40   1
 -13   3   4   64.99   22.90   1
 -13   3   4   -0.70   32.80   1
 -13   3   4   33.40   29.80   1
  13   3  -4   25.80   27.30   1
 -13  -3   4   57.99   29.80   1
  13  -3  -4   54.49   29.50   1
  13  -3  -4   81.09   27.90   1
  13   3  -3   57.99   26.40   1
 -13   3   3   63.39   22.60   1
  13   3  -3   -3.10   24.60   1
 -13   3   3   53.69   30.10   1
  13   3  -3   62.09   32.70   1
 -13   3   3  -17.00   28.70   1
  13  -3  -3   21.20   27.60   1
 -13  -3   3   37.90   27.00   1
  13  -3  -3   38.50   30.00   1
 -13  -3   3   18.60   29.90   1
 -13   3   2   51.19   29.30   1
  13   3  -2   -1.40   31.00   1
 -13   3   2   15.30   24.00   1
 -13   3   2   22.20   31.40   1
  13   3  -2    2.60   25.40   1
  13   3  -2   -4.20   23.00   1
 -13  -3   2  -40.00   27.10   1
 -13  -3   2  -27.80   25.10   1
  13  -3  -2    6.70   26.60   1
  13  -3  -2   -4.70   25.40   1
  13   3  -1   37.20   30.50   1
  13   3  -1  -37.30   21.80   1
 -13   3   1   31.10   28.40   1
 -13   3   1  -29.50   17.70   1
  13   3  -1    1.80   25.00   1
 -13   3   1   17.80   31.00   1
 -13  -3   1   30.30   28.50   1
  13  -3  -1    1.00   27.80   1
  13  -3  -1  -26.30   26.20   1
 -13  -3   1  -13.50   28.60   1
 -13   3   0   77.09   25.40   1
  13   3   0   38.60   33.40   1
 -13   3   0   86.19   29.80   1
 -13   3   0   79.59   31.80   1
  13   3   0   57.69   26.30   1
  13   3   0   83.29   26.40   1
  13  -3   0   68.79   29.50   1
 -13  -3   0   33.80   32.60   1
  13  -3   0   69.39   31.00   1
 -13  -3   0   83.99   32.00   1
 -13   3  -1   43.00   22.50   1
  13   3   1   56.69   26.80   1
  13   3   1   88.09   34.60   1
 -13   3  -1   21.30   28.70   1
  13   3   1   44.80   27.70   1
 -13   3  -1    3.80   29.30   1
 -13  -3  -1   62.99   34.60   1
 -13  -3  -1   45.20   32.20   1
  13  -3   1   65.19   32.00   1
 -13   3  -2  402.86   41.00   1
  13   3   2  370.66   45.90   1
 -13   3  -2  381.66   51.89   1
 -13   3  -2  397.06   51.49   1
  13   3   2  424.16   55.89   1
  13   3   2  260.57   47.50   1
 -13   3  -2  364.66   48.90   1
 -13  -3  -2  345.77   55.39   1
  13  -3   2  339.97   53.59   1
 -13  -3  -2  361.06   59.39   1
 -13   3  -3  -21.40   27.20   1
  13   3   3   -7.40   35.70   1
 -13   3  -3   69.19   20.90   1
 -13   3  -3  -28.80   27.60   1
  13   3   3   26.90   24.30   1
  13   3   3   -8.70   27.80   1
 -13  -3  -3   16.40   33.20   1
 -13  -3  -3  -34.00   35.70   1
  13  -3   3   -2.60   29.40   1
 -13   3  -4   94.69   35.60   1
 -13   3  -4   87.99   34.80   1
  13   3   4  131.79   35.50   1
  13   3   4  114.89   30.60   1
  13   3   4   76.89   36.70   1
  13  -3   4  107.09   36.10   1
 -13  -3  -4  142.29   38.10   1
 -13  -3  -4  154.38   41.60   1
  13   3   5    1.90   38.90   1
 -13   3  -5   20.70   31.40   1
  13   3   5   23.40   24.80   1
  13  -3   5   14.50   32.70   1
 -13  -3  -5   89.09   39.20   1
 -13  -3  -5   40.70   38.20   1
 -13   3  -6  393.16   58.79   1
  13   3   6  184.78   53.49   1
  13   3   6  250.77   41.10   1
 -13   3  -6  285.67   49.50   1
 -13  -3  -6  340.27   59.19   1
  13  -3   6  423.46   59.09   1
 -13   3  -7   52.79   33.60   1
 -13   3  -7  169.78   39.00   1
  13   3   7   35.20   24.40   1
 -13  -3  -7   30.60   32.70   1
 -13  -3  -7   37.70   36.50   1
  13  -3   7   38.40   37.20   1
  13   3   8  -41.00   24.70   1
 -13   3  -8   74.69   42.20   1
 -13   3  -8   43.30   36.20   1
  13  -3   8   35.70   37.90   1
 -13  -3  -8   42.80   35.30   1
  13  -3   9   15.40   38.60   1
  13   4  -9   52.59   39.80   1
  13   4  -9   31.20   34.10   1
 -13   4   9   39.60   45.10   1
 -13   4   9   10.90   27.30   1
 -13   4   9   38.20   32.00   1
 -13  -4   9   14.10   52.09   1
  13  -4  -9   31.50   40.10   1
 -13  -4   9    0.60   29.50   1
  13  -4  -9  110.69   36.70   1
 -13   4   8   55.49   46.00   1
  13   4  -8    8.80   36.50   1
 -13   4   8   13.70   27.50   1
 -13   4   8   19.80   32.80   1
  13   4  -8   38.20   38.90   1
 -13  -4   8  -39.80   45.30   1
  13  -4  -8    6.30   38.00   1
  13  -4  -8   -0.20   36.20   1
 -13  -4   8   18.00   29.90   1
 -13   4   7  -27.40   28.50   1
  13   4  -7   38.50   33.90   1
 -13   4   7  -37.20   42.90   1
 -13   4   7   24.20   33.40   1
 -13  -4   7  -28.70   42.20   1
  13  -4  -7  -16.40   32.70   1
 -13  -4   7   38.60   27.50   1
  13  -4  -7   -0.70   34.90   1
 -13  -4   7    4.10   45.70   1
  13   4  -6   36.50   39.00   1
  13   4  -6  -18.70   32.20   1
 -13   4   6   26.00   47.10   1
 -13   4   6   50.09   34.70   1
 -13   4   6    3.00   30.00   1
 -13  -4   6   60.49   26.80   1
 -13  -4   6   82.69   43.20   1
  13  -4  -6  -35.00   37.10   1
  13  -4  -6   16.70   32.30   1
 -13   4   5   72.39   34.00   1
  13   4  -5  101.59   36.20   1
 -13   4   5   -2.20   45.90   1
  13   4  -5  127.59   41.40   1
 -13   4   5  118.39   35.40   1
 -13  -4   5   57.29   38.00   1
 -13  -4   5  121.29   45.10   1
  13  -4  -5  133.89   40.90   1
  13  -4  -5   49.30   35.50   1
  13   4  -4  310.27   53.69   1
 -13   4   4  415.56   49.80   1
 -13   4   4  378.16   56.59   1
 -13   4   4  268.17   57.39   1
  13   4  -4  442.56   63.49   1
  13  -4  -4  305.07   53.59   1
 -13  -4   4  430.56   63.69   1
  13   4  -3  268.57   53.09   1
 -13   4   3  533.95   59.79   1
  13   4  -3  364.16   51.09   1
  13   4  -3  386.06   51.99   1
 -13   4   3  317.27   52.29   1
 -13  -4   3  288.47   53.99   1
 -13  -4   3  492.45   67.99   1
  13  -4  -3  453.85   61.79   1
  13  -4  -3  375.06   57.79   1
  13   4  -2   71.89   31.50   1
  13   4  -2   50.79   41.20   1
 -13   4   2  166.88   40.80   1
  13   4  -2   83.09   33.40   1
 -13   4   2  -56.49   54.39   1
 -13  -4   2  135.69   41.90   1
 -13  -4   2  105.89   44.60   1
  13  -4  -2  143.09   36.90   1
  13  -4  -2  156.58   38.40   1
 -13   4   1   83.89   34.50   1
  13   4  -1   15.90   29.50   1
  13   4  -1  104.29   43.00   1
  13   4  -1  122.09   32.30   1
 -13   4   1  -16.40   28.70   1
  13  -4  -1   16.90   33.30   1
 -13  -4   1  106.99   43.20   1
 -13  -4   1  108.99   37.60   1
  13  -4  -1   -9.20   33.30   1
  13   4   0  312.07   43.80   1
  13   4   0  302.57   45.00   1
 -13   4   0  211.98   44.60   1
  13   4   0  333.17   52.79   1
 -13  -4   0  341.37   61.09   1
  13  -4   0  235.18   44.30   1
  13   4   1   81.19   32.80   1
  13   4   1   70.89   31.60   1
 -13   4  -1   99.59   36.70   1
  13   4   1   31.30   43.20   1
 -13  -4  -1  -16.50   41.20   1
  13  -4   1  103.29   37.30   1
 -13  -4  -1   74.09   40.10   1
  13   4   2   29.40   28.70   1
 -13   4  -2    1.90   34.00   1
  13   4   2   21.80   28.40   1
  13   4   2   29.90   44.90   1
 -13  -4  -2   73.89   42.00   1
 -13  -4  -2   25.90   42.10   1
  13  -4   2    8.20   47.80   1
 -13   4  -3   31.70   33.30   1
  13   4   3   28.10   31.00   1
  13   4   3   40.70   45.30   1
  13   4   3   12.60   31.60   1
 -13  -4  -3   42.90   40.60   1
 -13  -4  -3  -17.40   37.80   1
 -13   4  -4   17.90   35.80   1
  13   4   4  -31.70   26.70   1
  13   4   4   46.10   35.50   1
  13  -4   4    9.70   37.20   1
 -13  -4  -4   34.10   39.30   1
 -13  -4  -4  -56.69   40.20   1
  13   4   5  -10.20   27.10   1
 -13  -4  -5   59.69   43.10   1
  13  -4   5   22.80   36.40   1
 -14   0  16    2.50   27.30   1
  14   0 -16  -19.20   34.90   1
  14   0 -16   73.19   37.20   1
 -14   0  15   28.50   29.40   1
  14   0 -15   -1.40   43.20   1
  14   0 -15   58.69   37.20   1
  14   0 -14   59.49   37.80   1
  14   0 -14  168.78   33.80   1
 -14   0  14   27.20   39.40   1
  14   0 -14   86.29   37.00   1
 -14   0  14   59.39   32.10   1
  14   0 -13   90.59   32.60   1
  14   0 -13   98.49   34.60   1
  14   0 -13   81.49   29.50   1
 -14   0  13   13.10   35.00   1
 -14   0  13   19.50   28.00   1
 -14   0  12   76.19   35.10   1
  14   0 -12   41.80   26.20   1
  14   0 -12   57.09   28.30   1
  14   0 -12   68.99   31.90   1
 -14   0  12   57.29   23.90   1
  14   0 -11  435.56   54.59   1
  14   0 -11  430.26   52.89   1
  14   0 -11  455.45   44.90   1
 -14   0  11  456.55   63.59   1
 -14   0  11  402.46   48.30   1
 -14   0  10   71.89   25.00   1
 -14   0  10   21.40   31.20   1
  14   0 -10   74.79   27.20   1
  14   0 -10   89.19   31.10   1
  14   0 -10  116.09   20.80   1
  14   0  -9  541.75   60.89   1
 -14   0   9  590.94   56.59   1
 -14   0   9  640.04   68.39   1
  14   0  -9  633.44   60.19   1
 -14   0   8   68.29   25.40   1
 -14   0   8  112.29   31.80   1
  14   0  -8   70.29   26.40   1
  14   0  -8   94.79   27.00   1
 -14   0   7  544.55   58.99   1
  14   0  -7  535.45   54.29   1
  14   0  -7  485.65   56.09   1
 -14   0   7  511.75   49.80   1
  14   0  -6 2182.78  169.88   1
 -14   0   6 2229.58  170.68   1
 -14   0   6 2139.09  166.78   1
  14   0  -6 2334.57  166.98   1
 -14   0   5 7481.15  559.64   1
  14   0  -5 7926.01  556.64   1
 -14   0   4 8697.03  606.04   1
  14   0  -4 8148.79  604.54   1
  14   0  -4 8278.97  607.84   1
 -14   0   4 8435.06  607.94   1
 -14   0   3 6032.00  427.66   1
  14   0  -3 5833.42  427.16   1
  14   0  -3 5708.33  423.66   1
  14   0  -2  968.10   86.79   1
  14   0  -2 1164.18   82.09   1
 -14   0   2  980.60   76.09   1
  14   0  -2 1099.49   83.59   1
 -14   0   2  903.51   87.69   1
 -14   0   1  361.86   47.10   1
  14   0  -1  401.06   42.20   1
  14   0  -1  342.27   48.20   1
 -14   0   1  385.86   34.50   1
  14   0  -1  371.86   44.50   1
 -14   0   0  470.05   52.69   1
  14   0   0  434.06   46.40   1
 -14   0   0  472.85   40.60   1
  14   0   0  471.65   47.70   1
 -14   0  -1   48.00   17.00   1
  14   0   1   38.70   32.80   1
  14   0   1   -7.60   21.60   1
 -14   0  -1   17.90   24.80   1
 -14   0  -2  623.64   49.20   1
  14   0   2  531.55   53.39   1
 -14   0  -2  510.95   59.19   1
  14   0   2  473.05   62.09   1
 -14   0  -2  520.65   58.39   1
  14   0   3  897.31   73.59   1
 -14   0  -3  878.11   80.89   1
  14   0   3  896.31   75.69   1
 -14   0  -3  929.31   72.79   1
 -14   0  -3  865.51   81.39   1
  14   0   4  213.18   35.10   1
 -14   0  -4  238.58   34.40   1
 -14   0  -4  224.78   39.60   1
  14   0   4  259.77   37.70   1
 -14   0  -4  199.58   36.90   1
  14   0   5  665.03   62.29   1
 -14   0  -5  708.43   68.99   1
 -14   0  -5  624.34   60.59   1
 -14   0  -5  718.73   69.29   1
  14   0   5  683.23   60.49   1
 -14   0  -6  544.25   61.89   1
  14   0   6  426.16   50.19   1
  14   0   6  458.45   50.09   1
 -14   0  -6  473.85   50.49   1
 -14   0  -6  520.05   56.99   1
 -14   0  -7   -7.80   27.40   1
  14   0   7   15.70   24.30   1
  14   0   7   30.70   25.60   1
 -14   0  -7   46.90   25.60   1
 -14   0  -7  -31.80   29.70   1
 -14   0  -8  -10.10   23.20   1
  14   0   8   41.60   27.70   1
 -14   0  -8   19.80   33.40   1
 -14   0  -8  -11.10   28.50   1
  14   0   8   -2.20   22.00   1
 -14   0  -9  669.33   70.59   1
  14   0   9  528.65   60.79   1
 -14   0  -9  521.95   56.69   1
  14   0   9  530.35   56.19   1
 -14   0 -10  490.25   61.29   1
  14   0  10  350.66   45.40   1
 -14   0 -10  347.77   47.60   1
  14   0  11  106.89   31.70   1
 -14   0 -11  165.58   43.30   1
 -14   0 -11   87.29   32.90   1
 -14   1  16   54.09   31.00   1
  14   1 -16  168.98   63.79   1
  14   1 -16   46.80   41.80   1
  14  -1 -16   58.09   40.20   1
  14  -1 -16   38.10   37.70   1
  14   1 -15  434.86   57.79   1
 -14   1  15  340.97   48.60   1
  14   1 -15  353.66   53.89   1
  14   1 -15  237.58   51.79   1
 -14  -1  15  340.97   49.90   1
  14  -1 -15  378.56   57.79   1
  14  -1 -15  298.87   46.80   1
  14   1 -14  426.66   60.09   1
 -14   1  14  375.46   51.59   1
  14   1 -14  380.16   62.69   1
  14   1 -14  352.46   61.19   1
 -14   1  14  361.06   69.09   1
  14  -1 -14  385.86   57.89   1
 -14  -1  14  330.47   59.39   1
  14  -1 -14  364.26   50.09   1
 -14  -1  14  409.86   51.69   1
  14  -1 -14  390.16   59.29   1
 -14   1  13    6.30   24.60   1
  14   1 -13    4.50   29.50   1
  14   1 -13  -20.40   29.90   1
 -14   1  13    0.40   36.30   1
  14   1 -13  -44.60   31.20   1
 -14  -1  13    0.10   36.30   1
  14  -1 -13   32.70   24.70   1
  14  -1 -13    7.60   30.20   1
  14  -1 -13   22.10   32.60   1
 -14  -1  13   28.40   24.90   1
 -14   1  12  313.27   49.20   1
  14   1 -12  296.27   47.50   1
 -14   1  12  250.67   41.70   1
  14   1 -12  404.46   62.89   1
  14   1 -12  264.27   44.10   1
  14  -1 -12  340.97   45.40   1
 -14  -1  12  300.97   41.90   1
 -14  -1  12  239.98   49.90   1
  14  -1 -12  309.07   51.39   1
  14  -1 -12  255.37   44.00   1
 -14   1  11 1044.00   90.09   1
  14   1 -11  916.31   93.89   1
  14   1 -11 1132.29   88.19   1
 -14   1  11 1126.89   98.59   1
  14   1 -11 1071.49   96.49   1
  14  -1 -11 1188.18   92.49   1
 -14  -1  11 1153.88   89.99   1
  14  -1 -11  917.51   83.39   1
 -14  -1  11 1194.18   99.99   1
  14  -1 -11 1151.08   95.29   1
  14   1 -10  143.39   33.40   1
  14   1 -10  149.99   25.80   1
 -14   1  10  133.89   28.40   1
  14   1 -10  126.89   33.10   1
 -14   1  10  206.68   42.50   1
  14  -1 -10  109.99   20.00   1
  14  -1 -10  153.48   32.80   1
  14  -1 -10  131.19   31.80   1
 -14  -1  10  105.19   26.20   1
 -14  -1  10  165.88   40.10   1
 -14   1   9  184.88   41.30   1
 -14   1   9  201.78   32.10   1
  14   1  -9  189.28   28.50   1
  14   1  -9  165.38   35.40   1
  14   1  -9  181.48   35.50   1
 -14  -1   9  188.98   29.50   1
 -14  -1   9  218.38   42.10   1
  14  -1  -9  258.47   35.40   1
  14  -1  -9  189.78   25.30   1
  14  -1  -9  178.78   32.90   1
  14   1  -8  143.29   33.30   1
 -14   1   8  134.79   25.80   1
 -14   1   8  156.88   36.00   1
  14   1  -8  162.48   24.70   1
  14   1  -8   89.39   28.90   1
 -14  -1   8  120.29   33.40   1
  14  -1  -8  126.19   29.80   1
 -14  -1   8  116.29   24.50   1
  14  -1  -8  144.59   28.30   1
  14  -1  -8  138.99   21.90   1
  14   1  -7   85.59   17.50   1
  14   1  -7   98.99   28.40   1
 -14   1   7  102.69   32.00   1
 -14   1   7   66.69   22.00   1
  14   1  -7  107.69   27.90   1
 -14  -1   7   63.99   23.70   1
  14  -1  -7  111.89   26.70   1
  14  -1  -7   50.39   26.00   1
 -14  -1   7   30.90   28.60   1
  14  -1  -7  128.59   17.00   1
 -14   1   6  141.99   25.60   1
 -14   1   6  176.28   34.10   1
  14   1  -6  176.88   32.60   1
  14   1  -6  114.09   18.90   1
  14   1  -6  159.48   30.50   1
 -14  -1   6  149.99   25.90   1
 -14  -1   6  188.48   35.00   1
  14  -1  -6  158.78   30.70   1
  14  -1  -6  192.68   30.00   1
 -14   1   5  716.03   65.49   1
  14   1  -5  658.63   61.19   1
  14   1  -5  577.84   51.29   1
 -14   1   5  567.94   50.49   1
 -14   1   5  702.33   58.79   1
  14   1  -5  750.52   65.19   1
  14  -1  -5  635.04   66.29   1
 -14  -1   5  762.32   65.99   1
  14  -1  -5  719.23   60.19   1
 -14  -1   5  689.93   57.99   1
 -14   1   4 1003.00   87.39   1
  14   1  -4  929.51   94.39   1
  14   1  -4 1037.20   84.79   1
 -14   1   4 1022.10   77.19   1
 -14   1   4 1035.40   82.19   1
  14  -1  -4 1008.20   86.59   1
 -14  -1   4 1098.99   87.69   1
  14  -1  -4 1015.10   83.99   1
 -14   1   3  795.12   67.19   1
  14   1  -3  810.92   69.69   1
 -14   1   3  858.41   63.89   1
  14   1  -3  754.12   70.49   1
 -14   1   3  869.71   76.69   1
  14  -1  -3  783.62   69.09   1
  14  -1  -3  783.12   73.29   1
 -14  -1   3  828.42   75.09   1
  14   1  -2   74.79   26.10   1
  14   1  -2  100.99   26.60   1
 -14   1   2  135.49   22.80   1
 -14   1   2  119.19   23.90   1
  14  -1  -2  120.69   29.00   1
  14  -1  -2  100.09   26.00   1
 -14  -1   2  161.18   22.00   1
 -14  -1   2  130.19   29.00   1
 -14   1   1  699.73   57.49   1
  14   1  -1  616.24   60.49   1
  14   1  -1  701.13   60.29   1
 -14   1   1  676.63   68.69   1
  14  -1  -1  648.44   60.49   1
  14  -1  -1  741.73   65.89   1
 -14  -1   1  774.02   66.49   1
 -14  -1   1  603.34   54.19   1
 -14   1   0 1385.26  103.19   1
  14   1   0 1303.07  105.69   1
 -14   1   0 1196.08  111.09   1
  14   1   0 1371.96  107.19   1
  14  -1   0 1442.86  108.99   1
 -14  -1   0 1392.46  110.89   1
  14  -1   0 1338.27  105.19   1
 -14  -1   0 1305.67  101.19   1
  14  -1   0 1343.67  106.09   1
  14   1   1  363.46   44.50   1
  14   1   1  352.46   44.50   1
 -14  -1  -1  419.86   52.99   1
  14  -1   1  428.36   45.80   1
 -14  -1  -1  414.06   51.79   1
  14  -1   1  437.16   46.20   1
 -14  -1  -1  555.34   54.39   1
  14   1   2  172.78   26.50   1
 -14   1  -2  114.09   28.60   1
  14   1   2  111.29   25.50   1
 -14   1  -2  135.19   29.60   1
 -14   1  -2  106.19   26.70   1
  14  -1   2  131.69   28.00   1
 -14  -1  -2  131.79   31.30   1
  14  -1   2  122.49   28.20   1
 -14  -1  -2  123.19   30.70   1
 -14  -1  -2  129.49   25.00   1
  14   1   3  368.06   45.70   1
  14   1   3  478.95   45.90   1
 -14   1  -3  369.86   51.29   1
 -14  -1  -3  419.06   53.79   1
 -14  -1  -3  379.76   53.09   1
 -14  -1  -3  443.56   63.69   1
  14  -1   3  467.05   49.80   1
  14  -1   3  373.46   45.30   1
 -14   1  -4   49.40   26.00   1
 -14   1  -4   38.60   26.90   1
  14   1   4   31.00   23.60   1
  14   1   4   49.40   22.90   1
 -14   1  -4   59.49   27.90   1
 -14  -1  -4   70.99   25.30   1
 -14  -1  -4   34.60   26.40   1
  14  -1   4   55.09   28.90   1
 -14  -1  -4   44.30   29.10   1
  14  -1   4   29.20   26.90   1
  14   1   5  361.66   46.00   1
 -14   1  -5  422.76   53.69   1
 -14   1  -5  410.06   47.90   1
  14   1   5  402.16   45.90   1
 -14   1  -5  422.16   52.99   1
 -14  -1  -5  450.15   54.29   1
 -14  -1  -5  426.16   55.59   1
  14  -1   5  421.06   51.89   1
  14  -1   5  443.86   47.60   1
 -14  -1  -5  375.36   47.10   1
 -14   1  -6  138.39   32.20   1
 -14   1  -6   84.49   27.50   1
  14   1   6   35.10   23.50   1
 -14   1  -6  112.59   32.30   1
  14  -1   6   40.60   30.10   1
 -14  -1  -6   56.19   31.80   1
 -14  -1  -6   88.99   29.30   1
  14  -1   6   78.49   27.30   1
 -14  -1  -6   58.79   31.80   1
 -14   1  -7   77.39   32.60   1
  14   1   7   34.50   26.50   1
  14   1   7   62.09   22.30   1
 -14   1  -7   20.30   27.30   1
 -14   1  -7   61.69   34.20   1
 -14  -1  -7   51.39   29.70   1
 -14  -1  -7   28.60   32.50   1
  14  -1   7   51.99   26.40   1
  14  -1   7  120.99   33.90   1
 -14   1  -8  284.67   44.30   1
  14   1   8  234.48   37.70   1
 -14   1  -8  282.07   45.60   1
 -14   1  -8  280.37   46.30   1
  14  -1   8  316.87   42.30   1
 -14  -1  -8  312.77   39.90   1
 -14  -1  -8  158.48   42.50   1
  14  -1   8  318.17   53.19   1
 -14   1  -9  388.86   57.19   1
 -14   1  -9  223.18   41.90   1
 -14   1  -9  291.87   51.89   1
 -14  -1  -9  380.16   56.39   1
  14  -1   9  258.87   38.00   1
  14  -1   9  288.27   46.40   1
 -14  -1  -9  149.69   33.30   1
 -14   1 -10   51.59   31.00   1
  14   1  10  -32.30   19.70   1
 -14   1 -10   60.89   39.20   1
 -14   1 -10  -20.80   35.60   1
 -14  -1 -10   42.40   35.80   1
  14  -1  10    9.20   31.00   1
  14  -1  10  -26.50   40.60   1
 -14  -1 -10   71.99   27.10   1
 -14   1 -11  136.89   45.40   1
 -14   1 -11   86.89   44.70   1
 -14   1 -11   50.79   46.70   1
  14   1  11   50.59   25.90   1
 -14  -1 -11   56.49   37.70   1
  14  -1  11   50.59   30.50   1
 -14   2  14   -0.80   27.50   1
  14   2 -14  -12.90   37.60   1
  14   2 -14  -41.90   42.10   1
  14   2 -14   -9.60   39.40   1
 -14  -2  14  -16.80   48.10   1
  14  -2 -14   57.79   34.90   1
  14  -2 -14    4.00   33.70   1
 -14  -2  14  -31.00   27.10   1
 -14   2  13   86.59   31.70   1
  14   2 -13    6.50   40.00   1
  14   2 -13  114.89   35.00   1
  14   2 -13   22.30   38.70   1
 -14   2  13   63.89   45.30   1
  14  -2 -13   94.99   35.10   1
  14  -2 -13   24.40   34.00   1
 -14  -2  13   10.20   40.20   1
  14  -2 -13   92.99   31.00   1
 -14  -2  13   66.49   29.30   1
 -14   2  12  222.68   40.00   1
  14   2 -12  155.08   41.50   1
 -14   2  12  162.78   48.20   1
  14   2 -12  188.88   43.80   1
  14   2 -12  297.67   41.60   1
 -14  -2  12  168.38   49.20   1
  14  -2 -12  270.67   39.20   1
  14  -2 -12  276.37   41.00   1
 -14  -2  12  191.48   35.30   1
  14  -2 -12  367.06   51.69   1
 -14   2  11   58.59   36.20   1
  14   2 -11   94.49   34.60   1
  14   2 -11   86.79   36.60   1
 -14   2  11   88.19   29.70   1
  14   2 -11   59.39   29.50   1
 -14  -2  11   98.29   29.00   1
  14  -2 -11   37.00   28.90   1
  14  -2 -11  135.49   34.20   1
  14  -2 -11  107.49   33.40   1
 -14  -2  11   51.39   36.90   1
  14   2 -10  221.38   40.00   1
  14   2 -10  207.38   35.70   1
 -14   2  10  225.08   39.00   1
  14   2 -10  141.99   35.20   1
 -14   2  10  216.28   45.00   1
  14  -2 -10  238.58   36.30   1
  14  -2 -10  268.47   40.50   1
 -14  -2  10  228.88   44.80   1
 -14  -2  10  219.08   36.60   1
 -14   2   9   93.19   33.00   1
  14   2  -9   63.89   32.00   1
  14   2  -9   99.89   32.10   1
 -14   2   9   95.39   25.70   1
  14   2  -9  106.49   29.40   1
 -14  -2   9  129.09   27.10   1
 -14  -2   9  118.79   35.20   1
  14  -2  -9  141.39   32.00   1
  14  -2  -9   67.49   28.20   1
 -14   2   8  245.48   44.50   1
  14   2  -8  209.88   37.60   1
  14   2  -8  188.78   37.40   1
 -14   2   8  227.58   35.30   1
 -14  -2   8  185.98   31.60   1
 -14  -2   8  231.58   41.20   1
  14  -2  -8  225.98   41.00   1
  14  -2  -8  232.98   35.40   1
  14   2  -7  118.29   32.70   1
 -14   2   7  139.99   37.10   1
  14   2  -7  218.78   31.80   1
 -14   2   7  225.28   33.30   1
 -14   2   7  154.48   28.20   1
  14   2  -7  152.78   32.50   1
  14  -2  -7  149.99   32.20   1
 -14  -2   7  214.88   37.60   1
 -14  -2   7  138.69   27.50   1
  14  -2  -7   91.69   28.60   1
 -14   2   6  302.97   50.89   1
  14   2  -6  282.07   46.80   1
  14   2  -6  313.77   40.40   1
 -14   2   6  272.77   38.90   1
 -14   2   6  285.67   39.40   1
  14   2  -6  291.67   47.10   1
  14  -2  -6  295.47   42.40   1
 -14  -2   6  364.96   49.10   1
 -14  -2   6  303.77   36.90   1
  14  -2  -6  361.16   46.30   1
 -14   2   5  123.99   28.10   1
 -14   2   5  130.59   32.60   1
  14   2  -5   97.29   30.20   1
  14   2  -5  146.89   32.60   1
  14   2  -5  137.29   26.20   1
 -14   2   5  153.58   28.40   1
 -14  -2   5  117.39   30.90   1
 -14  -2   5  146.19   27.00   1
  14  -2  -5  116.39   28.70   1
  14  -2  -5  166.18   33.00   1
 -14   2   4  394.66   42.50   1
  14   2  -4  343.17   48.90   1
  14   2  -4  383.56   49.30   1
 -14   2   4  351.16   50.89   1
 -14   2   4  363.36   40.50   1
  14   2  -4  363.26   40.60   1
  14  -2  -4  321.87   46.10   1
  14  -2  -4  364.06   61.09   1
 -14  -2   4  413.16   50.29   1
  14   2  -3  255.67   38.80   1
  14   2  -3  218.18   38.00   1
  14   2  -3  274.47   40.70   1
 -14   2   3  293.27   42.20   1
 -14   2   3  288.77   34.60   1
  14  -2  -3  263.27   43.00   1
  14  -2  -3  282.87   44.30   1
 -14  -2   3  319.67   46.00   1
 -14   2   2  474.75   46.90   1
 -14   2   2  421.26   41.80   1
  14   2  -2  376.66   41.90   1
 -14   2   2  304.27   52.89   1
  14   2  -2  367.26   50.09   1
  14   2  -2  401.86   44.90   1
  14  -2  -2  516.45   53.39   1
 -14  -2   2  431.26   51.69   1
  14  -2  -2  455.15   50.29   1
  14   2  -1  374.36   50.49   1
 -14   2   1  430.66   42.60   1
 -14   2   1  420.06   53.49   1
  14   2  -1  384.16   46.40   1
  14   2  -1  517.65   46.80   1
 -14   2   1  419.06   48.10   1
  14  -2  -1  454.05   52.69   1
  14  -2  -1  544.55   53.09   1
 -14  -2   1  402.76   54.39   1
 -14  -2   1  428.96   56.09   1
  14   2   0  323.47   40.20   1
 -14   2   0  384.86   36.80   1
  14   2   0  371.56   46.60   1
 -14   2   0  290.97   46.70   1
 -14   2   0  358.66   42.60   1
  14   2   0  263.67   43.30   1
  14  -2   0  388.36   47.70   1
 -14  -2   0  297.37   50.29   1
  14  -2   0  282.17   45.10   1
 -14  -2   0  268.47   48.30   1
  14   2   1   89.69   27.30   1
  14   2   1  125.39   27.60   1
 -14   2  -1  154.38   29.40   1
  14   2   1   55.79   27.80   1
 -14   2  -1   84.39   28.10   1
 -14  -2  -1   96.29   32.60   1
  14  -2   1  101.69   30.70   1
 -14  -2  -1  119.69   32.80   1
 -14   2  -2  380.46   52.39   1
 -14   2  -2  445.86   49.90   1
  14   2   2  379.86   50.59   1
 -14   2  -2  408.36   53.19   1
  14   2   2  417.56   47.50   1
 -14  -2  -2  481.95   57.69   1
  14  -2   2  423.36   52.79   1
 -14  -2  -2  420.26   54.59   1
 -14   2  -3  -28.00   26.80   1
 -14   2  -3   25.20   25.10   1
  14   2   3    8.10   26.10   1
 -14   2  -3   14.60   27.20   1
  14   2   3    1.00   21.80   1
 -14  -2  -3    9.50   27.50   1
  14  -2   3   38.50   25.70   1
 -14  -2  -3  -34.40   28.80   1
  14  -2   3   21.80   29.50   1
 -14  -2  -3   46.50   30.10   1
  14   2   4   59.39   24.40   1
 -14   2  -4   85.69   30.30   1
 -14   2  -4   33.80   28.90   1
 -14   2  -4   80.79   29.90   1
  14   2   4   53.39   27.20   1
 -14  -2  -4   78.99   29.70   1
 -14  -2  -4  104.99   35.70   1
  14  -2   4   64.89   26.30   1
  14  -2   4   78.29   30.80   1
 -14  -2  -4   56.69   31.60   1
  14   2   5   34.90   23.40   1
 -14   2  -5   45.80   50.89   1
  14   2   5   29.70   28.30   1
 -14   2  -5    2.90   29.20   1
 -14   2  -5  -18.70   28.90   1
 -14  -2  -5  -14.40   27.60   1
  14  -2   5   22.80   29.30   1
  14  -2   5   -3.30   27.30   1
 -14  -2  -5  -11.10   34.10   1
 -14  -2  -5    1.20   31.50   1
  14   2   6  158.68   30.00   1
  14   2   6  164.48   41.90   1
 -14   2  -6  195.68   38.50   1
 -14   2  -6  262.77   43.00   1
 -14   2  -6  148.69   37.90   1
  14  -2   6  220.28   37.80   1
 -14  -2  -6  187.38   36.10   1
 -14  -2  -6  206.28   42.80   1
  14  -2   6  196.28   37.80   1
 -14  -2  -6   80.89   37.00   1
 -14   2  -7   60.39   34.00   1
  14   2   7   27.80   23.00   1
 -14   2  -7   75.79   30.60   1
 -14   2  -7   15.00   38.10   1
  14  -2   7   78.69   34.10   1
 -14  -2  -7    3.70   36.70   1
 -14  -2  -7   22.30   31.10   1
  14  -2   7   90.19   31.30   1
 -14   2  -8   35.50   37.50   1
 -14   2  -8   47.20   31.50   1
  14   2   8  -33.90   22.80   1
 -14   2  -8   32.40   35.30   1
  14  -2   8   30.60   34.50   1
 -14  -2  -8   13.90   35.20   1
  14  -2   8    1.40   30.20   1
 -14  -2  -8   15.30   32.80   1
 -14   2  -9  164.58   42.70   1
  14   2   9   13.40   25.50   1
 -14   2  -9   38.90   33.80   1
 -14   2  -9   23.60   36.60   1
  14  -2   9   62.19   32.70   1
 -14  -2  -9    7.00   37.80   1
  14  -2   9  -21.60   34.10   1
 -14   2 -10   26.30   38.60   1
 -14   2 -10   55.49   43.80   1
  14   2  10    3.20   24.20   1
 -14   2 -10    0.40   41.60   1
  14  -2  10    9.50   39.60   1
  14  -2  10  -12.70   31.50   1
 -14  -2 -10   29.80   51.79   1
 -14   3  12  148.89   33.90   1
  14   3 -12   87.09   45.00   1
  14   3 -12  120.49   45.40   1
  14   3 -12  169.08   43.90   1
  14  -3 -12   98.49   36.20   1
 -14  -3  12  148.29   33.70   1
 -14  -3  12  -26.10   49.40   1
  14  -3 -12  121.59   44.30   1
  14   3 -11   25.10   34.90   1
  14   3 -11   32.70   39.70   1
 -14   3  11   27.80   43.30   1
 -14   3  11  -35.40   33.90   1
 -14   3  11   39.10   30.50   1
  14  -3 -11   -5.30   36.60   1
  14  -3 -11    8.80   29.80   1
 -14  -3  11   18.80   26.20   1
 -14  -3  11   68.69   44.20   1
  14   3 -10   69.59   37.30   1
 -14   3  10   24.10   26.90   1
  14   3 -10   73.69   34.70   1
  14   3 -10    3.60   34.20   1
 -14   3  10   65.49   33.40   1
 -14   3  10   17.50   44.00   1
  14  -3 -10   60.19   39.70   1
  14  -3 -10   99.39   34.10   1
 -14  -3  10   95.39   44.00   1
 -14  -3  10  105.39   27.40   1
  14   3  -9 1032.40   98.09   1
  14   3  -9 1007.60   91.99   1
 -14   3   9 1047.50   91.19   1
 -14   3   9  940.41  104.59   1
 -14   3   9 1079.19   91.69   1
  14  -3  -9 1203.78   96.49   1
  14  -3  -9 1047.40   90.19   1
 -14  -3   9 1118.59   89.39   1
 -14  -3   9  928.11   99.69   1
  14   3  -8  549.85   63.19   1
 -14   3   8  357.36   71.19   1
  14   3  -8  524.95   68.19   1
 -14   3   8  575.24   57.09   1
 -14   3   8  568.14   59.99   1
  14   3  -8  541.15   68.69   1
 -14  -3   8  598.04   54.19   1
  14  -3  -8  521.35   58.59   1
 -14  -3   8  540.65   71.59   1
  14  -3  -8  548.55   62.49   1
 -14   3   7  167.88   36.40   1
  14   3  -7  213.38   45.00   1
  14   3  -7  191.18   39.90   1
 -14   3   7  158.68   42.90   1
 -14   3   7  206.38   36.70   1
  14   3  -7  216.48   39.00   1
 -14  -3   7  204.88   32.60   1
 -14  -3   7  185.08   41.00   1
  14  -3  -7  249.28   39.40   1
  14  -3  -7  169.98   37.10   1
 -14   3   6  195.58   36.20   1
  14   3  -6  155.98   39.50   1
 -14   3   6  181.38   34.70   1
 -14   3   6   72.59   36.00   1
  14   3  -6   91.59   33.60   1
  14  -3  -6  226.28   39.00   1
  14  -3  -6  196.78   37.20   1
 -14  -3   6  147.09   36.60   1
 -14  -3   6  180.58   29.10   1
 -14   3   5  114.69   27.80   1
 -14   3   5   56.49   36.80   1
 -14   3   5  118.49   32.30   1
  14   3  -5  111.09   32.20   1
  14   3  -5  104.19   36.70   1
  14  -3  -5   85.79   31.70   1
 -14  -3   5  110.99   33.30   1
  14  -3  -5  113.49   33.70   1
 -14   3   4   23.00   36.30   1
 -14   3   4   49.40   25.10   1
 -14   3   4   44.30   30.80   1
  14   3  -4   60.79   35.40   1
  14   3  -4   52.39   28.10   1
  14  -3  -4   35.30   29.40   1
  14  -3  -4   91.49   32.30   1
 -14  -3   4   58.59   29.50   1
 -14   3   3  340.27   47.10   1
  14   3  -3  295.97   44.20   1
 -14   3   3  292.47   40.20   1
  14   3  -3  389.56   56.79   1
  14   3  -3  371.86   44.20   1
  14  -3  -3  314.87   49.70   1
  14  -3  -3  307.67   45.20   1
 -14  -3   3  411.76   51.69   1
 -14  -3   3  182.28   43.90   1
  14   3  -2  325.27   40.60   1
  14   3  -2  223.98   39.50   1
 -14   3   2  269.67   38.70   1
 -14   3   2  351.36   48.70   1
  14   3  -2  264.27   44.30   1
 -14  -3   2  339.87   49.20   1
 -14  -3   2  180.58   40.70   1
  14  -3  -2  280.47   43.40   1
  14  -3  -2  320.97   50.19   1
  14   3  -1  396.66   57.29   1
  14   3  -1  370.46   44.60   1
  14   3  -1  398.26   43.90   1
 -14   3   1  272.27   41.10   1
 -14   3   1  245.18   45.20   1
 -14   3   1  314.37   47.90   1
  14  -3  -1  310.87   50.59   1
 -14  -3   1  439.36   53.69   1
  14  -3  -1  373.56   51.79   1
 -14  -3   1  538.95   59.59   1
  14   3   0  845.72   77.59   1
  14   3   0  913.21   77.39   1
 -14   3   0  919.61   80.49   1
  14   3   0  915.51   84.39   1
 -14   3   0  783.22   81.69   1
  14  -3   0  973.70   81.29   1
  14  -3   0  802.62   80.39   1
 -14  -3   0  961.50   88.39   1
 -14  -3   0  820.32   84.69   1
  14   3   1  902.81   84.99   1
  14   3   1 1034.20   92.89   1
 -14   3  -1  926.01   90.39   1
  14   3   1 1106.19   86.59   1
 -14   3  -1  940.31   81.99   1
 -14   3  -1 1039.10   89.89   1
 -14  -3  -1  964.70   95.79   1
  14  -3   1 1068.19   90.89   1
 -14  -3  -1 1083.69   93.29   1
 -14   3  -2 1240.68   98.59   1
 -14   3  -2 1306.17  106.59   1
  14   3   2 1277.67  109.39   1
 -14   3  -2 1167.98  105.79   1
  14   3   2 1192.18  102.99   1
  14   3   2 1212.48  102.59   1
 -14   3  -2 1292.97  106.19   1
  14  -3   2 1349.86  107.39   1
 -14  -3  -2 1197.78  110.99   1
 -14  -3  -2 1279.87  109.69   1
  14   3   3  119.89   35.00   1
 -14   3  -3  148.39   37.90   1
  14   3   3  160.78   36.00   1
 -14   3  -3  155.68   36.20   1
  14   3   3  127.49   40.20   1
 -14   3  -3  250.17   39.80   1
 -14   3  -3  257.87   32.50   1
 -14  -3  -3  181.38   43.80   1
 -14  -3  -3  108.09   39.90   1
  14  -3   3  133.29   35.50   1
 -14   3  -4   18.80   33.10   1
 -14   3  -4    5.50   32.10   1
  14   3   4  -13.30   25.20   1
  14   3   4   80.99   35.60   1
  14  -3   4   72.19   33.70   1
 -14  -3  -4   41.20   38.90   1
 -14  -3  -4   15.60   34.80   1
  14   3   5   74.79   28.10   1
 -14   3  -5   16.90   33.70   1
 -14   3  -5   40.40   32.10   1
 -14   3  -5  149.69   41.00   1
  14  -3   5   72.89   35.30   1
 -14  -3  -5  138.99   42.30   1
 -14  -3  -5   55.49   40.20   1
  14   3   6  348.87   44.30   1
 -14   3  -6  366.66   53.89   1
 -14  -3  -6  261.57   46.80   1
 -14  -3  -6  308.17   53.99   1
 -14  -3  -6  180.38   47.30   1
  14  -3   6  312.77   47.90   1
 -14   3  -7  135.39   40.60   1
 -14   3  -7  230.68   45.20   1
 -14  -3  -7   78.79   36.00   1
  14  -3   7   69.79   38.00   1
 -14   3  -8   87.19   41.90   1
  14   3   8    6.60   23.80   1
 -14   3  -8  256.37   50.59   1
 -14   3  -8  123.59   50.29   1
 -14  -3  -8   -6.50   39.90   1
  14  -3   8   63.59   43.50   1
  14  -3   8   23.90   36.70   1
  14   4  -8  257.27   45.70   1
 -14   4   8  144.59   36.30   1
 -14   4   8  213.28   43.50   1
 -14   4   8   58.89   49.60   1
  14   4  -8  105.19   45.70   1
  14  -4  -8  238.38   47.30   1
 -14  -4   8  108.79   51.89   1
  14  -4  -8  291.47   47.70   1
 -14  -4   8  172.98   36.50   1
 -14   4   7  133.19   39.40   1
 -14   4   7   96.39   33.60   1
  14   4  -7   80.79   38.40   1
  14   4  -7   62.69   40.40   1
 -14   4   7    0.90   43.70   1
  14  -4  -7  158.98   46.80   1
 -14  -4   7  138.79   32.80   1
 -14  -4   7   59.49   45.80   1
  14  -4  -7   96.39   37.90   1
 -14  -4   7   86.29   49.90   1
 -14   4   6  135.09   38.30   1
 -14   4   6  -21.40   44.00   1
 -14   4   6    6.10   32.40   1
  14   4  -6   86.89   36.50   1
  14   4  -6  202.38   72.89   1
  14  -4  -6  112.59   43.00   1
 -14  -4   6  137.49   47.20   1
  14  -4  -6  116.79   38.20   1
 -14  -4   6   93.49   28.40   1
 -14  -4   6    1.50   44.20   1
  14   4  -5  101.59   35.20   1
 -14   4   5    4.90   32.10   1
 -14   4   5  -38.30   49.10   1
 -14   4   5   72.19   33.80   1
 -14  -4   5   89.09   42.40   1
 -14  -4   5  138.49   48.00   1
  14  -4  -5  107.09   38.40   1
  14  -4  -5   76.39   40.40   1
 -14   4   4  702.23   80.89   1
  14   4  -4  960.00   82.59   1
 -14   4   4  734.93   83.99   1
  14   4  -4  966.00   91.09   1
 -14  -4   4 1093.39   92.49   1
  14  -4  -4  729.23   85.09   1
  14  -4  -4  924.51   88.89   1
  14   4  -3 1083.89  103.79   1
 -14   4   3 1003.60   95.39   1
  14   4  -3 1069.79   95.39   1
  14   4  -3 1159.58   97.39   1
 -14  -4   3 1167.18  106.39   1
 -14  -4   3 1125.69  108.69   1
  14  -4  -3 1203.48  100.09   1
  14  -4  -3 1078.79  106.29   1
 -14   4   2   71.49   50.29   1
  14   4  -2  208.08   46.30   1
  14   4  -2  166.08   37.30   1
  14   4  -2  209.98   38.40   1
 -14   4   2  207.18   55.69   1
 -14  -4   2  202.28   50.59   1
 -14  -4   2  355.86   59.49   1
 -14   4   1   58.39   34.10   1
  14   4  -1  107.69   32.80   1
  14   4  -1  180.88   45.20   1
  14   4  -1   54.99   32.20   1
 -14  -4   1   81.29   38.90   1
  14  -4  -1   77.39   40.10   1
  14  -4  -1   68.09   36.90   1
 -14  -4   1  192.18   45.70   1
  14   4   0  537.65   71.09   1
 -14   4   0  529.15   61.59   1
  14   4   0  426.26   52.99   1
  14   4   0  337.17   53.39   1
 -14  -4   0  397.36   67.59   1
  14   4   1  101.99   45.10   1
  14   4   1  141.19   34.70   1
 -14   4  -1   79.29   37.50   1
  14   4   1  108.29   33.10   1
 -14   4  -1  166.38   40.70   1
  14  -4   1  134.99   58.79   1
 -14  -4  -1  204.18   48.10   1
 -14  -4  -1   63.19   46.40   1
  14   4   2   64.59   30.30   1
  14   4   2   45.90   32.30   1
 -14   4  -2  -14.60   35.10   1
  14   4   2  -15.90   46.10   1
 -14  -4  -2   46.60   43.60   1
  14  -4   2   18.80   34.40   1
 -14  -4  -2   26.90   38.70   1
  14   4   3    8.60   33.30   1
 -14   4  -3   47.70   35.00   1
  14   4   3    0.70   26.90   1
  14   4   3  108.19   49.90   1
 -14  -4  -3  -36.20   41.30   1
  14  -4   3   77.59   38.40   1
 -14  -4  -3   40.90   44.60   1
 -14  -4  -4    8.60   56.19   1
 -14  -4  -4  142.59   45.60   1
  14  -4   4   55.29   40.10   1
 -15   0  16   10.40   32.40   1
  15   0 -16   19.50   37.40   1
  15   0 -15    8.90   34.70   1
  15   0 -14  -31.80   32.50   1
 -15   0  14   14.90   29.90   1
 -15   0  14  -49.00   39.80   1
  15   0 -14  -43.20   30.70   1
  15   0 -14   -7.80   33.10   1
  15   0 -13   44.80   32.50   1
  15   0 -13   42.50   31.20   1
  15   0 -13    0.80   30.70   1
 -15   0  13   32.10   24.50   1
 -15   0  13    6.40   34.20   1
  15   0 -12   95.89   32.60   1
  15   0 -12   93.39   28.00   1
 -15   0  12   29.50   25.20   1
  15   0 -12   74.29   31.00   1
 -15   0  12   80.99   40.10   1
 -15   0  11   46.50   23.40   1
  15   0 -11   -5.70   22.90   1
 -15   0  11   46.60   37.80   1
  15   0 -11   22.10   28.00   1
  15   0 -11   58.09   29.20   1
  15   0 -10   66.59   28.30   1
  15   0 -10   64.19   17.60   1
  15   0 -10  -13.70   25.30   1
 -15   0  10   71.19   33.50   1
 -15   0  10   32.50   21.30   1
  15   0  -9   -6.10   24.80   1
 -15   0   9    6.70   28.40   1
 -15   0   9  -17.00   20.00   1
  15   0  -9   22.20   26.50   1
 -15   0   8   16.00   27.60   1
  15   0  -8   28.60   25.20   1
  15   0  -8   10.70   25.10   1
 -15   0   8    7.70   19.00   1
 -15   0   7   43.30   30.80   1
  15   0  -7   44.10   25.80   1
  15   0  -7   52.69   25.50   1
 -15   0   7   -4.60   18.20   1
 -15   0   6   20.30   19.40   1
  15   0  -6   36.50   23.40   1
 -15   0   6   39.80   27.90   1
  15   0  -6   20.40   23.20   1
  15   0  -5   14.20   23.10   1
 -15   0   5   -2.50   23.40   1
  15   0  -5   47.50   25.50   1
 -15   0   5    6.00   16.60   1
  15   0  -4   13.70   23.60   1
  15   0  -4   14.30   23.60   1
 -15   0   4  -12.40   16.60   1
 -15   0   4    0.80   22.70   1
 -15   0   3   95.19   28.00   1
  15   0  -3  115.89   25.10   1
  15   0  -3   95.99   27.00   1
  15   0  -2   36.60   23.30   1
 -15   0   2   58.49   26.90   1
  15   0  -2   39.00   22.30   1
 -15   0   2   15.20   13.30   1
  15   0  -2   46.70   27.10   1
 -15   0   1  -15.60   22.70   1
  15   0  -1    0.50   22.90   1
 -15   0   1  -26.20   15.40   1
  15   0  -1   -6.50   23.80   1
  15   0  -1   34.30   23.90   1
  15   0   0   31.80   23.20   1
  15   0   0   70.99   23.30   1
 -15   0   0   58.09   25.40   1
 -15   0   0   82.49   19.10   1
 -15   0  -1  198.68   28.30   1
 -15   0  -1  217.98   35.70   1
  15   0   1  215.28   33.90   1
  15   0   1  126.29   30.10   1
 -15   0  -2    7.80   24.30   1
 -15   0  -2   26.70   18.60   1
  15   0   2  -22.70   20.80   1
  15   0   2  -40.20   21.10   1
 -15   0  -2  -18.20   24.20   1
 -15   0  -3  -21.40   25.70   1
  15   0   3   17.30   25.40   1
  15   0   3  -26.80   22.30   1
 -15   0  -3  -15.10   18.00   1
 -15   0  -3   15.40   26.60   1
  15   0   4   49.20   25.30   1
 -15   0  -4   18.20   21.60   1
 -15   0  -4   18.00   26.10   1
  15   0   4   38.70   23.30   1
 -15   0  -4   16.40   28.50   1
 -15   0  -5   14.80   23.90   1
 -15   0  -5    1.00   27.50   1
 -15   0  -5   11.80   28.10   1
  15   0   5   -0.60   26.30   1
  15   0   5   -7.10   21.30   1
  15   0   6   32.80   23.90   1
 -15   0  -6   78.09   33.10   1
 -15   0  -6   84.69   31.50   1
 -15   0  -6   19.50   25.30   1
 -15   0  -7   42.30   32.30   1
 -15   0  -7   65.69   37.40   1
 -15   0  -7   13.70   24.30   1
  15   0   7   -2.60   24.10   1
  15   0   7   41.70   32.10   1
 -15   0  -8   35.10   35.80   1
  15   0   8   87.59   32.30   1
 -15   0  -8   97.49   35.50   1
  15   0   8  -11.40   24.80   1
 -15   0  -8   -4.30   24.20   1
 -15   0  -9   37.90   36.20   1
 -15   0  -9  -23.20   24.20   1
  15   0   9   18.50   24.80   1
 -15   0  -9  -44.90   37.50   1
 -15   0 -10   92.89   39.50   1
 -15   0 -10   70.29   41.80   1
  15   0  10   -5.40   25.30   1
 -15   0 -10   19.20   27.80   1
 -15   0 -11   71.69   34.20   1
  15   0  11   14.80   26.50   1
  15   1 -15  130.99   41.40   1
 -15   1  15   41.40   34.40   1
  15   1 -15   37.70   36.50   1
 -15  -1  15  -21.90   26.30   1
  15  -1 -15   39.60   36.20   1
  15   1 -14   26.10   44.70   1
 -15   1  14    8.80   28.30   1
  15   1 -14  -11.30   35.40   1
  15   1 -14   -8.20   33.70   1
 -15  -1  14   20.50   28.20   1
  15  -1 -14  -13.20   42.20   1
  15  -1 -14   20.80   39.70   1
  15  -1 -14  -13.00   33.00   1
 -15  -1  14   -9.20   40.00   1
 -15   1  13  -24.10   38.40   1
  15   1 -13    6.50   31.70   1
  15   1 -13    5.60   34.30   1
  15   1 -13   50.09   33.10   1
 -15   1  13   13.10   25.10   1
 -15  -1  13   14.40   26.40   1
 -15  -1  13   11.80   39.40   1
  15  -1 -13   41.70   35.90   1
  15  -1 -13  -10.00   25.40   1
  15  -1 -13    6.60   30.80   1
  15   1 -12  139.59   36.50   1
  15   1 -12  104.39   30.10   1
 -15   1  12  103.19   36.30   1
 -15   1  12  121.29   30.90   1
  15   1 -12  137.09   37.90   1
 -15  -1  12   67.29   26.60   1
  15  -1 -12   93.09   33.50   1
  15  -1 -12   58.59   25.20   1
 -15  -1  12  107.29   42.60   1
  15  -1 -12  146.99   36.40   1
  15   1 -11   22.30   29.40   1
  15   1 -11   62.29   31.00   1
 -15   1  11   -5.40   21.50   1
  15   1 -11   18.50   23.40   1
 -15   1  11    2.10   34.80   1
  15  -1 -11   59.89   29.60   1
 -15  -1  11  -32.30   33.40   1
  15  -1 -11  -10.50   20.20   1
 -15  -1  11    5.80   23.00   1
  15  -1 -11   44.30   28.30   1
 -15   1  10  -12.50   32.90   1
 -15   1  10   30.60   24.90   1
  15   1 -10   47.00   21.20   1
  15   1 -10    9.80   29.40   1
  15   1 -10   36.40   29.20   1
  15  -1 -10   41.20   28.30   1
  15  -1 -10   56.49   27.60   1
  15  -1 -10   22.80   17.60   1
 -15  -1  10   30.60   22.90   1
 -15  -1  10   42.90   33.90   1
  15   1  -9   47.60   18.50   1
  15   1  -9   -0.60   26.30   1
 -15   1   9    2.20   29.60   1
  15   1  -9   11.60   26.80   1
 -15   1   9   39.40   24.40   1
 -15  -1   9    4.20   22.80   1
  15  -1  -9   31.80   24.90   1
  15  -1  -9    2.20   14.00   1
  15  -1  -9   21.30   26.20   1
 -15  -1   9   36.30   30.40   1
 -15   1   8   28.30   23.50   1
  15   1  -8    6.40   25.00   1
 -15   1   8   35.20   33.50   1
  15   1  -8  -10.50   23.70   1
 -15  -1   8   18.40   30.50   1
  15  -1  -8   24.30   24.50   1
 -15  -1   8   19.10   22.00   1
  15  -1  -8  -29.80   23.80   1
  15   1  -7   68.49   26.80   1
 -15   1   7   41.80   30.60   1
  15   1  -7   82.59   27.80   1
 -15   1   7   65.99   20.90   1
 -15  -1   7   69.29   24.00   1
  15  -1  -7   52.29   26.70   1
 -15  -1   7   40.80   29.90   1
  15  -1  -7   92.29   26.00   1
  15   1  -6  -15.20   23.80   1
  15   1  -6   25.80   24.70   1
 -15   1   6   17.30   28.10   1
 -15   1   6  -10.70   20.70   1
  15  -1  -6   13.60   23.80   1
  15  -1  -6    5.10   23.90   1
 -15  -1   6   20.90   17.90   1
 -15  -1   6    4.60   26.80   1
 -15   1   5   17.30   19.30   1
 -15   1   5   -5.70   24.60   1
  15   1  -5  -23.10   21.30   1
  15   1  -5   22.90   23.60   1
  15  -1  -5   24.70   20.70   1
  15  -1  -5  -10.80   22.70   1
 -15  -1   5    0.30   18.00   1
 -15  -1   5   -1.00   24.20   1
 -15   1   4   16.60   18.30   1
  15   1  -4   68.99   26.70   1
  15   1  -4   51.59   25.40   1
 -15   1   4   18.10   14.30   1
 -15   1   4    1.50   24.40   1
  15  -1  -4   17.50   24.40   1
 -15  -1   4   46.70   11.80   1
  15  -1  -4   11.30   23.50   1
 -15  -1   4   30.20   23.60   1
  15   1  -3   40.10   22.00   1
 -15   1   3   52.39   18.70   1
  15   1  -3   57.59   27.70   1
 -15   1   3   43.50   17.00   1
  15   1  -3   54.39   23.80   1
 -15   1   3   35.40   25.20   1
  15  -1  -3   53.39   23.90   1
 -15  -1   3   68.09   30.00   1
 -15  -1   3   20.10   14.30   1
  15  -1  -3   85.39   27.90   1
  15   1  -2  115.19   29.80   1
 -15   1   2  116.09   22.40   1
  15   1  -2   72.89   25.60   1
 -15   1   2   94.69   27.10   1
  15   1  -2  122.59   27.50   1
 -15   1   2  107.19   22.40   1
 -15  -1   2  111.79   30.40   1
 -15  -1   2   77.49   18.40   1
  15  -1  -2   49.90   22.70   1
 -15   1   1   87.69   21.70   1
  15   1  -1   89.29   25.30   1
 -15   1   1   55.79   27.20   1
  15   1  -1   54.09   23.50   1
  15  -1  -1   76.39   23.60   1
 -15  -1   1   33.10   18.20   1
 -15  -1   1   97.69   29.70   1
 -15   1   0    8.10   20.70   1
  15   1   0   52.89   22.80   1
  15   1   0   46.90   22.10   1
 -15   1   0   25.90   25.80   1
 -15  -1   0  -30.00   17.70   1
 -15  -1   0   15.10   24.50   1
  15  -1   0   37.60   24.00   1
 -15  -1   0   16.10   25.10   1
  15  -1   0   19.00   22.60   1
  15   1   1   51.89   23.40   1
 -15   1  -1   75.49   23.90   1
  15   1   1   94.29   26.40   1
 -15   1  -1   49.50   28.00   1
 -15  -1  -1  128.49   23.40   1
  15  -1   1   99.69   29.10   1
  15  -1   1   53.69   27.30   1
 -15  -1  -1   95.99   32.00   1
 -15  -1  -1   79.09   29.00   1
 -15   1  -2   -6.90   21.70   1
 -15   1  -2   12.90   25.10   1
  15   1   2   27.30   23.90   1
 -15   1  -2   -4.10   24.30   1
  15   1   2   25.40   24.20   1
 -15  -1  -2   68.39   21.80   1
  15  -1   2  -32.10   22.40   1
 -15  -1  -2    4.50   25.70   1
  15  -1   2  -11.80   24.80   1
 -15  -1  -2    0.90   25.60   1
 -15   1  -3   -5.90   25.40   1
 -15   1  -3  -32.50   21.30   1
  15   1   3    9.80   22.40   1
 -15   1  -3  -10.40   22.00   1
  15   1   3   16.60   25.10   1
 -15  -1  -3   28.90   27.10   1
 -15  -1  -3    8.00   21.30   1
 -15  -1  -3    9.20   26.80   1
  15  -1   3  -12.80   23.30   1
  15  -1   3    7.70   26.20   1
 -15   1  -4   -4.90   24.60   1
  15   1   4   65.39   24.50   1
  15   1   4   32.10   23.90   1
 -15   1  -4    5.10   28.60   1
 -15   1  -4   50.29   28.50   1
 -15  -1  -4   40.50   28.30   1
  15  -1   4   38.30   27.40   1
  15  -1   4    5.70   26.10   1
 -15  -1  -4   26.20   27.60   1
 -15  -1  -4   28.80   27.50   1
 -15   1  -5   33.60   28.00   1
  15   1   5    5.30   24.90   1
  15   1   5  -30.10   21.50   1
 -15   1  -5   49.99   29.80   1
 -15   1  -5   -2.50   26.40   1
 -15  -1  -5    1.10   27.40   1
  15  -1   5    8.00   28.00   1
 -15  -1  -5   -4.10   27.10   1
 -15  -1  -5    6.30   29.00   1
  15  -1   5    6.50   23.30   1
 -15   1  -6  -21.90   29.50   1
  15   1   6   17.20   22.70   1
 -15   1  -6   -1.10   28.40   1
  15   1   6    9.80   27.30   1
 -15   1  -6   -8.00   25.10   1
  15  -1   6  -17.90   23.70   1
  15  -1   6   16.00   29.90   1
 -15  -1  -6   24.70   32.20   1
 -15  -1  -6   53.19   31.30   1
 -15  -1  -6  -10.60   19.30   1
  15   1   7   12.70   24.10   1
 -15   1  -7    7.00   27.80   1
 -15   1  -7   34.50   35.90   1
 -15   1  -7   16.30   30.90   1
 -15  -1  -7   54.89   34.30   1
 -15  -1  -7   19.30   23.60   1
 -15  -1  -7   42.90   34.70   1
  15  -1   7   52.09   32.40   1
  15  -1   7   21.10   29.90   1
 -15   1  -8    6.90   35.40   1
  15   1   8   37.70   24.60   1
 -15   1  -8  -13.00   33.50   1
 -15   1  -8   13.40   28.70   1
 -15  -1  -8   18.70   35.00   1
  15  -1   8   15.00   28.10   1
 -15  -1  -8   -4.30   22.40   1
 -15  -1  -8  -17.50   33.60   1
  15  -1   8   50.09   35.60   1
 -15   1  -9   14.40   30.70   1
  15   1   9   28.40   26.90   1
 -15   1  -9   80.59   36.90   1
 -15   1  -9   36.60   37.00   1
  15  -1   9   44.10   37.40   1
 -15  -1  -9   64.69   27.90   1
  15  -1   9   64.59   31.60   1
 -15  -1  -9   62.79   36.10   1
 -15   1 -10  -18.00   29.70   1
 -15   1 -10   13.40   39.80   1
 -15   1 -10  117.69   40.60   1
  15   1  10    9.80   25.30   1
  15  -1  10  -92.49   37.70   1
 -15  -1 -10    9.70   26.20   1
  15  -1  10   -5.30   26.20   1
  15   2 -14   -9.40   43.40   1
 -15   2  14   20.30   28.90   1
  15   2 -14   79.09   44.60   1
  15   2 -14   10.80   37.30   1
 -15  -2  14  -31.50   27.20   1
  15  -2 -14   43.00   34.50   1
 -15  -2  14    2.20   44.80   1
  15  -2 -14    2.60   33.10   1
  15   2 -13   -9.40   39.10   1
  15   2 -13    3.10   36.30   1
 -15   2  13    4.00   28.50   1
  15  -2 -13   -0.70   41.10   1
  15  -2 -13   16.10   31.30   1
 -15  -2  13   -8.40   43.50   1
 -15  -2  13  -13.00   26.30   1
 -15   2  12  -17.80   37.50   1
  15   2 -12  -68.29   32.00   1
  15   2 -12  -38.90   35.10   1
 -15   2  12    2.60   25.40   1
  15  -2 -12  -10.80   28.70   1
  15  -2 -12  -35.10   31.20   1
 -15  -2  12   43.50   40.40   1
 -15  -2  12    4.80   24.10   1
 -15   2  11   65.29   28.40   1
  15   2 -11   84.09   32.20   1
  15   2 -11   44.00   30.50   1
  15   2 -11   50.39   34.00   1
 -15   2  11   -9.60   38.30   1
  15  -2 -11   97.09   33.10   1
 -15  -2  11   70.19   39.30   1
  15  -2 -11   67.99   32.90   1
  15  -2 -11   75.29   26.30   1
 -15  -2  11   70.29   28.00   1
  15   2 -10   59.09   33.20   1
 -15   2  10   29.00   26.70   1
  15   2 -10   41.50   30.70   1
  15   2 -10   18.00   27.10   1
 -15   2  10  -11.10   33.00   1
 -15  -2  10    4.90   35.00   1
  15  -2 -10   54.89   29.30   1
 -15  -2  10   14.10   23.60   1
  15  -2 -10   51.39   24.20   1
  15  -2 -10   29.20   29.10   1
 -15   2   9   48.20   34.40   1
 -15   2   9   13.00   21.90   1
  15   2  -9  -10.70   29.40   1
  15   2  -9   42.00   28.80   1
 -15  -2   9   -3.70   33.00   1
  15  -2  -9   56.49   26.20   1
  15  -2  -9  -10.00   27.20   1
 -15  -2   9   -7.60   21.60   1
 -15   2   8   -7.20   32.10   1
 -15   2   8   -5.60   30.00   1
  15   2  -8   44.20   28.90   1
  15   2  -8   42.40   29.60   1
  15   2  -8   67.69   26.80   1
 -15   2   8   45.20   23.60   1
 -15  -2   8   50.89   31.20   1
 -15  -2   8   50.59   24.20   1
  15  -2  -8   59.59   28.00   1
  15  -2  -8   59.99   29.20   1
  15   2  -7   13.10   27.40   1
 -15   2   7   36.20   21.20   1
  15   2  -7   18.10   25.50   1
 -15   2   7  -21.80   30.70   1
 -15   2   7   80.79   24.80   1
  15   2  -7  -42.70   25.60   1
 -15  -2   7  -33.90   17.50   1
  15  -2  -7   19.80   25.40   1
  15  -2  -7    1.50   26.00   1
 -15  -2   7   85.59   31.30   1
  15   2  -6   64.19   29.60   1
  15   2  -6   59.29   24.70   1
 -15   2   6   62.49   21.70   1
 -15   2   6   61.89   32.50   1
  15   2  -6   74.69   29.70   1
 -15   2   6   44.90   24.10   1
  15  -2  -6  113.19   30.60   1
 -15  -2   6   88.39   23.90   1
 -15  -2   6   91.89   31.60   1
  15  -2  -6   72.49   27.50   1
 -15   2   5  -20.70   22.00   1
  15   2  -5   14.10   27.50   1
 -15   2   5  -14.80   29.50   1
  15   2  -5    3.10   21.50   1
  15   2  -5   26.30   27.40   1
 -15   2   5    6.30   18.50   1
  15  -2  -5   -5.90   24.40   1
  15  -2  -5   49.80   28.20   1
 -15  -2   5   38.00   27.50   1
  15   2  -4   47.50   26.60   1
 -15   2   4   55.19   22.70   1
 -15   2   4   76.69   30.20   1
 -15   2   4   72.29   26.80   1
  15   2  -4   53.49   22.40   1
  15   2  -4   50.59   28.90   1
 -15  -2   4   82.29   30.30   1
  15  -2  -4   52.89   26.40   1
  15  -2  -4   96.79   29.40   1
  15   2  -3   67.99   27.70   1
  15   2  -3   29.30   26.00   1
 -15   2   3   55.19   28.50   1
 -15   2   3   36.00   19.50   1
  15  -2  -3   96.09   30.20   1
 -15  -2   3   42.00   28.90   1
  15  -2  -3   47.60   27.10   1
  15   2  -2   49.40   23.40   1
 -15   2   2   64.79   22.00   1
  15   2  -2   28.60   23.20   1
 -15   2   2   56.99   26.10   1
 -15   2   2   91.29   30.20   1
  15   2  -2   51.69   27.20   1
 -15  -2   2   31.70   29.00   1
  15  -2  -2   10.40   44.00   1
  15  -2  -2   45.50   28.30   1
  15   2  -1  102.69   26.80   1
  15   2  -1  119.99   28.30   1
  15   2  -1   79.29   27.80   1
 -15   2   1  151.38   32.10   1
 -15   2   1   90.89   22.80   1
 -15   2   1  127.49   29.40   1
 -15  -2   1   86.09   30.70   1
 -15  -2   1  110.39   33.20   1
  15  -2  -1  136.09   31.50   1
  15  -2  -1   76.59   29.80   1
 -15   2   0   70.29   19.50   1
 -15   2   0   31.40   26.80   1
 -15   2   0   27.30   27.90   1
  15   2   0   57.49   25.70   1
  15   2   0   37.70   24.90   1
  15   2   0   58.69   25.50   1
  15  -2   0   84.49   28.60   1
 -15  -2   0   38.30   30.50   1
  15  -2   0   53.79   27.80   1
 -15  -2   0   16.30   28.00   1
  15   2   1  -14.40   22.60   1
 -15   2  -1   17.20   24.40   1
 -15   2  -1  -12.50   25.20   1
  15   2   1   18.30   25.70   1
  15  -2   1   19.70   27.20   1
 -15  -2  -1    8.60   27.80   1
 -15  -2  -1  -16.40   27.80   1
 -15   2  -2   -1.60   25.50   1
 -15   2  -2    2.40   30.30   1
 -15   2  -2  -39.20   27.00   1
  15   2   2   -4.50   21.40   1
  15   2   2   22.60   26.10   1
 -15  -2  -2   -4.10   25.70   1
 -15  -2  -2   14.40   27.50   1
 -15  -2  -2    1.80   28.20   1
  15  -2   2    4.20   27.50   1
 -15   2  -3  -24.10   25.60   1
 -15   2  -3   48.70   28.50   1
  15   2   3    3.40   24.90   1
  15   2   3   30.90   26.50   1
 -15   2  -3   36.20   26.70   1
 -15  -2  -3   -1.60   29.30   1
 -15  -2  -3   -2.90   29.60   1
 -15  -2  -3   46.40   27.10   1
  15  -2   3   13.80   29.20   1
  15  -2   3   13.80   26.40   1
  15   2   4   16.30   22.90   1
 -15   2  -4    9.20   28.70   1
  15   2   4   17.70   31.00   1
 -15   2  -4  -22.50   28.70   1
 -15   2  -4   -1.00   27.40   1
  15  -2   4  -36.20   30.00   1
 -15  -2  -4   36.80   31.40   1
 -15  -2  -4   27.50   25.80   1
 -15  -2  -4   20.60   31.10   1
  15  -2   4  -10.40   26.70   1
 -15   2  -5   63.39   32.50   1
 -15   2  -5   54.39   32.30   1
  15   2   5   45.80   29.70   1
 -15   2  -5   16.10   29.80   1
  15   2   5   36.00   25.50   1
  15  -2   5   21.90   28.70   1
  15  -2   5  129.09   35.60   1
 -15  -2  -5   63.79   35.30   1
 -15  -2  -5   -2.10   34.80   1
 -15  -2  -5  108.99   31.30   1
 -15   2  -6   64.79   36.70   1
 -15   2  -6   -2.30   33.10   1
 -15   2  -6   -9.00   28.80   1
  15   2   6   -9.80   32.70   1
  15   2   6    3.20   23.90   1
 -15  -2  -6   17.60   31.40   1
 -15  -2  -6   -7.30   34.30   1
  15  -2   6   38.70   34.40   1
 -15  -2  -6   30.80   35.20   1
  15  -2   6   -7.00   27.90   1
 -15   2  -7   69.69   35.50   1
 -15   2  -7  135.19   43.10   1
 -15   2  -7   40.80   36.70   1
  15   2   7   33.20   25.80   1
 -15  -2  -7   85.29   39.80   1
  15  -2   7  -11.90   34.00   1
 -15  -2  -7   -9.30   36.80   1
  15  -2   7   52.99   31.50   1
 -15  -2  -7   33.70   33.30   1
 -15   2  -8    7.40   39.50   1
 -15   2  -8   13.00   36.70   1
 -15   2  -8  -10.80   29.60   1
  15  -2   8  -19.60   35.30   1
 -15  -2  -8   19.60   33.30   1
  15  -2   8  102.29   34.50   1
 -15   2  -9   78.79   42.90   1
 -15   2  -9   71.09   33.80   1
 -15   2  -9   64.69   41.70   1
  15   2   9   18.00   26.60   1
  15  -2   9   12.10   40.80   1
  15  -2   9  -23.70   32.90   1
 -15  -2  -9   28.40   37.80   1
  15   3 -12  -15.60   43.00   1
  15   3 -12   35.80   38.50   1
  15   3 -12    9.30   38.60   1
 -15  -3  12  -10.60   27.20   1
  15  -3 -12   59.59   32.30   1
 -15  -3  12 -100.29   49.40   1
  15   3 -11   -0.20   36.00   1
  15   3 -11   44.00   35.70   1
 -15   3  11   14.00   28.60   1
 -15   3  11  -20.10   44.90   1
 -15   3  11   26.90   38.30   1
  15   3 -11   48.80   41.70   1
 -15  -3  11   -2.90   44.40   1
 -15  -3  11   32.10   27.60   1
  15  -3 -11  -11.40   30.00   1
  15  -3 -11  -69.89   33.80   1
  15   3 -10  107.79   62.09   1
  15   3 -10   44.80   30.80   1
 -15   3  10  -53.69   43.30   1
  15   3 -10  -15.50   37.60   1
 -15   3  10   48.20   29.00   1
 -15   3  10  -50.49   32.90   1
  15  -3 -10   39.50   34.40   1
 -15  -3  10  128.29   42.70   1
  15  -3 -10   68.09   32.90   1
 -15  -3  10   30.20   24.80   1
 -15   3   9   25.30   28.20   1
 -15   3   9  -29.40   32.20   1
 -15   3   9  -71.59   38.70   1
  15   3  -9   78.99   35.60   1
  15   3  -9  -15.20   35.00   1
  15   3  -9   16.50   36.40   1
 -15  -3   9  -44.30   21.20   1
 -15  -3   9    9.30   39.90   1
  15  -3  -9  -16.20   31.70   1
  15  -3  -9    5.90   30.00   1
 -15   3   8   83.79   32.30   1
 -15   3   8  103.79   33.90   1
 -15   3   8   66.89   42.30   1
  15   3  -8   88.59   37.40   1
  15   3  -8   63.39   33.70   1
  15   3  -8   10.80   34.40   1
  15  -3  -8  130.89   32.70   1
  15  -3  -8   80.39   33.50   1
 -15  -3   8   68.49   29.00   1
 -15  -3   8   35.20   36.70   1
 -15   3   7   83.09   30.40   1
 -15   3   7   30.40   37.20   1
  15   3  -7  101.29   38.50   1
  15   3  -7   31.10   33.20   1
 -15   3   7   70.49   29.60   1
  15   3  -7  109.79   36.10   1
 -15  -3   7   53.09   34.10   1
 -15  -3   7   47.50   24.00   1
  15  -3  -7   94.99   32.10   1
  15  -3  -7   75.59   35.10   1
 -15   3   6   25.60   37.00   1
 -15   3   6    3.20   29.60   1
  15   3  -6   85.09   36.00   1
 -15   3   6   43.30   27.40   1
  15   3  -6   34.30   29.30   1
 -15  -3   6   64.09   25.80   1
  15  -3  -6   18.50   31.30   1
 -15  -3   6  136.89   35.40   1
  15  -3  -6   29.60   29.80   1
 -15   3   5  127.69   35.10   1
  15   3  -5  161.08   34.80   1
 -15   3   5  140.79   42.40   1
  15   3  -5  160.88   41.80   1
 -15   3   5  186.58   31.20   1
  15  -3  -5  237.68   42.00   1
  15  -3  -5  120.59   33.30   1
 -15  -3   5  190.98   37.90   1
 -15   3   4   16.60   33.90   1
 -15   3   4   -0.10   23.10   1
 -15   3   4    5.70   30.20   1
  15   3  -4  -17.60   26.50   1
  15   3  -4   19.30   33.70   1
 -15  -3   4  -50.39   30.30   1
 -15  -3   4   54.39   31.10   1
  15  -3  -4  -58.69   27.20   1
  15  -3  -4   -0.50   31.20   1
  15   3  -3   34.30   27.00   1
 -15   3   3   22.00   31.00   1
  15   3  -3   37.50   34.20   1
  15   3  -3   17.50   27.20   1
 -15   3   3  -31.60   33.60   1
 -15   3   3    5.20   22.90   1
 -15  -3   3   39.30   30.40   1
  15  -3  -3   15.20   30.30   1
  15  -3  -3    6.80   29.20   1
 -15  -3   3  -40.20   31.10   1
  15   3  -2   41.90   25.00   1
  15   3  -2   42.90   29.50   1
  15   3  -2   82.19   35.50   1
 -15   3   2   24.40   22.60   1
 -15   3   2   75.19   33.50   1
 -15   3   2   10.40   35.10   1
  15  -3  -2  113.79   39.10   1
 -15  -3   2   89.29   34.40   1
 -15  -3   2   10.80   31.60   1
  15  -3  -2   48.70   32.50   1
 -15   3   1   81.79   33.50   1
 -15   3   1   98.79   27.40   1
  15   3  -1   51.49   27.60   1
  15   3  -1   53.99   27.50   1
 -15   3   1  111.69   36.70   1
  15   3  -1  169.18   38.80   1
  15  -3  -1   80.49   34.40   1
  15  -3  -1   80.29   33.40   1
 -15  -3   1  106.09   34.80   1
 -15  -3   1  106.69   38.20   1
 -15   3   0  163.28   29.90   1
 -15   3   0  150.38   36.30   1
  15   3   0  122.39   33.00   1
  15   3   0  221.78   41.80   1
  15   3   0  138.09   33.50   1
  15  -3   0  208.38   39.20   1
 -15  -3   0  144.59   42.00   1
 -15  -3   0  127.89   40.00   1
  15  -3   0  227.78   40.30   1
  15   3   1   98.89   37.90   1
 -15   3  -1  117.49   35.20   1
 -15   3  -1   80.49   34.80   1
 -15   3  -1  133.59   27.10   1
  15   3   1  120.99   33.10   1
  15   3   1   98.29   30.50   1
  15  -3   1  148.89   35.90   1
 -15  -3  -1  194.88   42.00   1
 -15  -3  -1   79.09   38.30   1
  15   3   2   76.59   27.90   1
 -15   3  -2   68.99   34.00   1
  15   3   2   83.89   38.90   1
 -15   3  -2    9.00   30.00   1
 -15   3  -2   85.09   34.60   1
  15   3   2   47.00   31.30   1
 -15   3  -2  108.49   24.30   1
 -15  -3  -2   23.30   36.20   1
 -15  -3  -2   27.20   34.60   1
  15  -3   2   82.39   35.30   1
 -15   3  -3  -10.70   29.60   1
  15   3   3  -43.90   29.80   1
 -15   3  -3   26.20   19.70   1
 -15   3  -3   -0.30   32.80   1
 -15   3  -3  -12.70   29.90   1
  15   3   3  -22.00   24.20   1
  15   3   3   38.20   38.70   1
 -15  -3  -3   21.80   37.00   1
  15  -3   3    6.90   32.30   1
 -15  -3  -3    8.60   36.40   1
 -15   3  -4  -36.70   33.90   1
  15   3   4  -22.20   26.60   1
  15   3   4   54.99   38.20   1
 -15   3  -4   13.40   32.40   1
 -15  -3  -4   14.90   40.10   1
  15  -3   4    1.60   32.90   1
 -15  -3  -4  -16.70   36.50   1
 -15   3  -5  -29.30   38.10   1
  15   3   5   14.60   26.60   1
 -15   3  -5   -0.10   30.50   1
 -15   3  -5   84.49   40.40   1
 -15  -3  -5    6.50   38.60   1
  15  -3   5   48.30   34.60   1
 -15  -3  -5   61.19   36.40   1
 -15  -3  -5   38.30   40.10   1
 -15   3  -6  -14.70   38.40   1
  15   3   6   56.09   41.40   1
 -15   3  -6   40.00   34.60   1
 -15  -3  -6   32.20   35.30   1
  15  -3   6   86.49   37.00   1
 -15   3  -7  154.18   45.10   1
 -15   3  -7   70.09   42.70   1
 -15   3  -7   39.30   34.00   1
  15   3   7   22.30   27.20   1
 -15  -3  -7   59.49   35.00   1
  15  -3   7  -38.40   38.60   1
  15  -3   7   23.20   35.90   1
 -15   4   7   28.50   32.20   1
 -15   4   7   47.90   50.69   1
 -15   4   7   42.20   37.80   1
  15   4  -7   46.20   36.70   1
  15   4  -7  103.89   42.00   1
 -15  -4   7  111.69   49.00   1
  15  -4  -7   87.39   47.80   1
 -15  -4   7   83.59   30.60   1
 -15  -4   7   69.49   51.59   1
 -15   4   6  -48.00   53.79   1
  15   4  -6   60.19   40.10   1
 -15   4   6  115.29   38.60   1
  15   4  -6    8.70   33.10   1
 -15   4   6    9.60   34.00   1
  15  -4  -6   98.89   43.20   1
  15  -4  -6   88.89   67.09   1
 -15  -4   6   44.70   46.10   1
 -15  -4   6   -1.40   45.60   1
 -15  -4   6   -5.10   25.00   1
 -15   4   5  -29.40   31.40   1
 -15   4   5  -93.39   49.99   1
  15   4  -5   -9.70   31.70   1
  15   4  -5   32.70   54.29   1
 -15   4   5    2.60   32.70   1
  15  -4  -5   23.80   40.00   1
 -15  -4   5   48.90   47.10   1
 -15  -4   5  -34.50   41.30   1
 -15  -4   5   73.39   28.60   1
 -15   4   4   50.79   36.50   1
 -15   4   4  -29.30   47.30   1
  15   4  -4   81.19   39.30   1
 -15   4   4  -10.20   31.60   1
  15   4  -4    4.40   31.20   1
  15  -4  -4   38.80   40.60   1
 -15  -4   4  122.19   47.70   1
  15  -4  -4   59.19   47.80   1
 -15  -4   4   24.50   40.50   1
  15   4  -3  123.59   36.60   1
 -15   4   3  185.98   42.80   1
 -15   4   3   39.90   48.80   1
 -15   4   3  171.58   40.60   1
  15   4  -3  208.48   46.90   1
  15   4  -3  148.39   38.70   1
  15  -4  -3  312.47   62.09   1
  15  -4  -3  169.38   46.40   1
 -15  -4   3  210.68   50.89   1
 -15  -4   3  160.18   49.50   1
  15   4  -2  128.09   43.10   1
  15   4  -2  164.28   36.80   1
  15   4  -2  204.88   42.30   1
 -15   4   2  200.58   43.00   1
 -15   4   2  103.89   37.40   1
  15  -4  -2  167.58   45.80   1
 -15  -4   2  125.89   46.50   1
 -15  -4   2  135.69   46.50   1
  15  -4  -2  147.99   40.10   1
  15   4  -1  128.69   34.80   1
  15   4  -1  108.19   34.20   1
  15   4  -1   79.39   42.00   1
 -15   4   1  117.99   38.80   1
  15  -4  -1  129.19   37.60   1
 -15  -4   1   85.29   46.00   1
 -15  -4   1  145.89   45.60   1
  15  -4  -1  102.39   44.20   1
  15   4   0  134.59   34.70   1
  15   4   0  171.78   46.90   1
 -15   4   0  171.08   41.60   1
  15   4   0  114.59   35.40   1
 -15  -4   0  159.38   46.00   1
 -15  -4   0   63.19   45.00   1
  15  -4   0  205.08   43.60   1
  15   4   1   91.39   32.00   1
  15   4   1   14.70   43.50   1
 -15   4  -1   52.09   36.50   1
  15   4   1   53.59   33.60   1
 -15  -4  -1  -60.19   46.20   1
 -15  -4  -1  108.69   45.20   1
  15  -4   1   96.39   36.90   1
  15   4   2  -24.90   27.60   1
  15   4   2   -6.40   32.90   1
 -15   4  -2  -11.70   34.30   1
  15   4   2  -77.99   45.80   1
 -15  -4  -2   89.59   44.90   1
 -15  -4  -2   82.69   47.00   1
  15  -4   2   16.90   35.50   1
  16   0 -15  133.39   42.40   1
 -16   0  15  137.59   35.80   1
  16   0 -14   43.10   35.00   1
 -16   0  14   76.69   31.60   1
  16   0 -14  103.89   37.60   1
 -16   0  13  171.58   45.50   1
 -16   0  13  118.79   30.80   1
  16   0 -13  139.19   37.50   1
  16   0 -13  101.59   36.30   1
  16   0 -12  147.49   39.20   1
  16   0 -12  148.49   35.00   1
 -16   0  12  154.28   32.50   1
 -16   0  12  169.48   46.50   1
  16   0 -11  259.17   44.50   1
  16   0 -11  236.28   40.60   1
 -16   0  11  236.48   46.30   1
 -16   0  11  241.28   37.50   1
  16   0 -10  287.67   48.40   1
 -16   0  10  381.96   57.69   1
 -16   0  10  285.27   40.80   1
  16   0 -10  317.67   49.10   1
 -16   0   9  248.38   45.80   1
  16   0  -9  271.57   44.80   1
  16   0  -9  240.58   41.00   1
 -16   0   9  161.48   29.40   1
  16   0  -8   54.19   29.40   1
 -16   0   8   96.19   25.30   1
 -16   0   8   47.60   29.70   1
  16   0  -8   74.59   28.70   1
  16   0  -7   63.29   27.00   1
 -16   0   7  102.79   31.10   1
  16   0  -7   57.89   26.30   1
 -16   0   7   58.09   21.50   1
  16   0  -6   95.09   27.80   1
 -16   0   6   59.39   31.10   1
 -16   0   6   40.40   21.60   1
  16   0  -6   55.29   24.40   1
 -16   0   5   79.59   30.70   1
  16   0  -5   62.49   26.70   1
 -16   0   5   61.29   25.30   1
  16   0  -5   65.89   27.00   1
  16   0  -4  470.35   52.09   1
  16   0  -4  520.65   56.69   1
 -16   0   4  503.65   49.20   1
 -16   0   4  511.15   56.49   1
 -16   0   3  487.35   56.89   1
  16   0  -3  577.44   57.59   1
  16   0  -3  487.75   51.39   1
  16   0  -2  668.53   63.69   1
  16   0  -2  689.53   66.19   1
 -16   0   2  768.82   56.89   1
  16   0  -2  701.63   70.89   1
 -16   0   2  792.92   71.59   1
 -16   0   1  446.06   57.69   1
  16   0  -1  523.45   50.49   1
 -16   0   1  540.45   45.50   1
  16   0  -1  521.95   57.59   1
  16   0  -1  502.95   52.99   1
 -16   0   0 2471.45  169.28   1
  16   0   0 2155.28  171.28   1
 -16   0   0 2314.07  176.38   1
  16   0   0 2199.18  173.48   1
  16   0   1  716.13   70.59   1
 -16   0  -1  776.52   76.19   1
 -16   0  -1  811.72   77.29   1
  16   0   1  912.01   70.09   1
 -16   0  -2 1125.99   80.69   1
 -16   0  -2  962.10   89.39   1
  16   0   2  906.21   84.39   1
  16   0   2 1029.40   82.99   1
 -16   0  -2  944.71   89.29   1
 -16   0  -3 1289.87  107.19   1
 -16   0  -3 1330.47  108.29   1
 -16   0  -3 1152.08  101.99   1
  16   0   3 1303.77  100.49   1
  16   0   3 1234.88  102.39   1
 -16   0  -4  -16.30   26.40   1
 -16   0  -4   34.70   29.40   1
  16   0   4   48.90   26.50   1
  16   0   4   22.40   23.70   1
 -16   0  -4   31.50   22.30   1
 -16   0  -5  597.04   64.39   1
 -16   0  -5  639.44   65.79   1
 -16   0  -5  557.04   56.59   1
  16   0   5  589.74   58.89   1
  16   0   5  555.64   58.39   1
  16   0   6  169.18   33.80   1
 -16   0  -6  262.77   43.50   1
 -16   0  -6  140.49   36.10   1
 -16   0  -6  165.08   32.10   1
  16   0   6  103.49   30.60   1
 -16   0  -7   42.80   32.90   1
  16   0   7  -17.30   23.40   1
  16   0   7   63.39   29.50   1
 -16   0  -7   -4.90   24.70   1
 -16   0  -7  -57.89   34.00   1
 -16   0  -8   45.40   36.50   1
  16   0   8  100.19   33.80   1
 -16   0  -8  -31.30   24.00   1
  16   0   8   34.20   26.90   1
 -16   0  -8   53.49   33.70   1
 -16   0  -9  114.39   41.60   1
 -16   0  -9  147.89   32.70   1
  16   0   9   31.00   28.40   1
 -16   0  -9   58.49   39.10   1
 -16   0 -10   -0.40   25.70   1
 -16   1  15  174.28   36.40   1
  16   1 -15  174.98   45.10   1
 -16  -1  15   94.49   52.69   1
  16  -1 -15  146.19   41.80   1
  16   1 -14   82.99   37.60   1
 -16   1  14   64.19   31.30   1
  16   1 -14   80.59   38.90   1
  16  -1 -14   34.90   36.50   1
 -16  -1  14   -2.00   42.40   1
 -16  -1  14   59.79   30.50   1
 -16   1  13   75.89   44.20   1
 -16   1  13   95.69   33.10   1
  16   1 -13   89.29   36.30   1
  16   1 -13  126.99   40.40   1
 -16  -1  13   72.59   43.90   1
  16  -1 -13   89.59   35.50   1
  16  -1 -13   68.49   34.60   1
 -16  -1  13   77.39   29.20   1
 -16   1  12 1236.38  103.49   1
  16   1 -12 1303.37  111.29   1
 -16   1  12 1221.88  112.69   1
  16   1 -12 1246.58  108.19   1
 -16  -1  12 1189.38  102.79   1
  16  -1 -12 1279.17  107.99   1
 -16  -1  12 1246.78  114.99   1
  16  -1 -12 1288.37  105.79   1
 -16   1  11  331.87   43.30   1
  16   1 -11  352.76   54.69   1
 -16   1  11  383.26   56.09   1
  16   1 -11  402.56   52.99   1
  16  -1 -11  335.87   50.19   1
 -16  -1  11  334.87   54.29   1
 -16  -1  11  326.27   44.60   1
  16  -1 -11  288.77   50.49   1
 -16   1  10   28.20   23.10   1
 -16   1  10   55.79   34.20   1
  16   1 -10   84.39   32.90   1
  16   1 -10   64.49   31.70   1
  16  -1 -10   64.99   29.60   1
 -16  -1  10   34.00   22.30   1
  16  -1 -10  128.89   31.90   1
 -16  -1  10   55.89   34.80   1
 -16   1   9  -19.50   30.40   1
  16   1  -9   22.40   26.90   1
 -16   1   9   -0.80   20.50   1
  16   1  -9  -38.80   25.60   1
  16  -1  -9    5.80   25.90   1
 -16  -1   9   -4.90   19.70   1
  16  -1  -9   10.70   25.80   1
 -16  -1   9   25.30   32.70   1
 -16   1   8   79.29   32.60   1
  16   1  -8  103.99   30.90   1
 -16   1   8   55.09   22.40   1
  16   1  -8   53.59   28.60   1
 -16  -1   8   86.99   26.00   1
 -16  -1   8   65.29   31.20   1
  16  -1  -8   64.29   28.70   1
  16  -1  -8   66.09   26.30   1
  16   1  -7  115.09   31.50   1
 -16   1   7  116.29   33.50   1
  16   1  -7  129.19   30.70   1
 -16   1   7  106.69   26.80   1
 -16  -1   7  145.79   29.30   1
 -16  -1   7   76.39   32.20   1
  16  -1  -7  167.48   31.50   1
  16  -1  -7   93.89   29.80   1
  16   1  -6  148.09   30.20   1
 -16   1   6  162.28   30.40   1
 -16   1   6  225.38   40.00   1
  16   1  -6  178.28   34.50   1
  16  -1  -6  174.78   33.70   1
 -16  -1   6  216.78   37.90   1
  16  -1  -6  215.98   34.10   1
 -16  -1   6  200.18   33.40   1
  16   1  -5  242.58   37.50   1
 -16   1   5  231.78   34.40   1
  16   1  -5  255.47   43.80   1
 -16   1   5  329.67   47.00   1
  16  -1  -5  280.77   39.60   1
 -16  -1   5  260.37   35.80   1
  16  -1  -5  207.38   36.10   1
 -16  -1   5  227.28   39.00   1
  16   1  -4  722.03   68.09   1
 -16   1   4  766.52   64.29   1
  16   1  -4  775.12   70.99   1
 -16   1   4  717.93   57.59   1
 -16   1   4  762.52   72.29   1
 -16  -1   4  781.22   71.49   1
  16  -1  -4  720.93   70.89   1
  16  -1  -4  722.33   65.39   1
 -16  -1   4  710.13   55.89   1
 -16   1   3  234.28   33.10   1
 -16   1   3  237.48   43.20   1
 -16   1   3  268.97   29.60   1
  16   1  -3  254.37   37.50   1
  16   1  -3  247.38   38.50   1
  16   1  -3  184.48   34.10   1
  16  -1  -3  242.48   44.70   1
  16  -1  -3  369.76   40.00   1
 -16  -1   3  212.18   26.60   1
 -16  -1   3  274.37   47.20   1
  16   1  -2  151.98   35.70   1
 -16   1   2  172.88   28.40   1
 -16   1   2  183.78   30.20   1
  16   1  -2  180.58   30.60   1
  16   1  -2  144.59   31.10   1
 -16   1   2  187.98   34.30   1
 -16  -1   2  193.08   24.40   1
  16  -1  -2  180.08   31.70   1
  16  -1  -2  158.38   33.70   1
 -16  -1   2  134.29   32.30   1
 -16   1   1   77.69   22.40   1
  16   1  -1   29.00   24.50   1
  16   1  -1   23.00   24.60   1
 -16   1   1   81.59   28.80   1
 -16  -1   1   33.60   27.90   1
  16  -1  -1   51.29   27.70   1
 -16  -1   1   27.10   19.00   1
  16  -1  -1   23.60   23.60   1
 -16   1   0 1253.87   90.49   1
  16   1   0 1088.39   90.89   1
  16   1   0 1140.59   92.49   1
 -16   1   0 1216.48   96.59   1
 -16  -1   0  897.61   96.09   1
  16  -1   0 1177.08   96.09   1
  16  -1   0 1120.59   92.49   1
 -16  -1   0 1067.69   86.99   1
 -16  -1   0 1176.98   97.49   1
  16  -1   0 1033.90   95.99   1
 -16   1  -1 1119.69   92.69   1
  16   1   1 1003.20   86.59   1
  16   1   1  986.40   88.69   1
 -16   1  -1 1126.49   87.19   1
  16  -1   1  927.71   89.09   1
  16  -1   1 1124.39   88.09   1
 -16  -1  -1 1207.58   84.09   1
 -16  -1  -1 1040.10   94.49   1
 -16  -1  -1  950.40   94.19   1
 -16   1  -2  198.58   35.60   1
  16   1   2  269.97   39.20   1
  16   1   2  326.37   40.80   1
 -16   1  -2  255.37   46.10   1
 -16   1  -2  218.38   39.40   1
 -16  -1  -2  195.68   39.00   1
  16  -1   2  255.77   39.20   1
  16  -1   2  320.87   42.60   1
 -16  -1  -2  296.37   47.10   1
 -16  -1  -2  327.47   38.10   1
 -16   1  -3   48.50   24.40   1
  16   1   3   69.49   25.10   1
  16   1   3   84.49   26.00   1
 -16   1  -3   26.50   26.80   1
 -16   1  -3   93.49   31.40   1
 -16  -1  -3   57.89   32.60   1
  16  -1   3  117.39   29.10   1
 -16  -1  -3   33.40   28.40   1
  16  -1   3   63.09   29.10   1
 -16  -1  -3   52.59   26.00   1
  16   1   4   54.79   29.60   1
 -16   1  -4   70.09   28.80   1
 -16   1  -4  124.59   32.00   1
 -16   1  -4   33.70   30.90   1
  16   1   4   71.49   28.00   1
  16  -1   4  111.69   30.00   1
 -16  -1  -4   92.29   30.00   1
 -16  -1  -4   67.99   30.10   1
 -16  -1  -4   73.29   31.90   1
  16  -1   4   45.00   26.50   1
  16   1   5   61.49   32.30   1
 -16   1  -5  130.79   32.30   1
  16   1   5  141.89   30.00   1
 -16   1  -5   71.49   33.20   1
 -16   1  -5  135.99   34.30   1
 -16  -1  -5   97.39   24.40   1
  16  -1   5   99.29   32.00   1
 -16  -1  -5  185.38   36.40   1
  16  -1   5   84.99   29.90   1
 -16  -1  -5   58.49   34.40   1
  16   1   6   39.00   29.10   1
 -16   1  -6   65.19   32.40   1
  16   1   6   27.40   30.10   1
 -16   1  -6   10.80   27.40   1
 -16   1  -6   64.29   33.00   1
 -16  -1  -6   79.79   36.40   1
 -16  -1  -6   59.09   33.30   1
  16  -1   6   73.09   28.20   1
 -16  -1  -6   20.20   22.00   1
  16  -1   6   59.69   31.50   1
 -16   1  -7  205.78   39.60   1
 -16   1  -7  389.06   59.19   1
  16   1   7  265.07   41.00   1
  16   1   7  237.58   40.70   1
 -16   1  -7  302.67   46.60   1
 -16  -1  -7  288.17   38.80   1
  16  -1   7  266.67   42.10   1
  16  -1   7  226.08   41.50   1
 -16  -1  -7  184.28   43.70   1
 -16  -1  -7  403.26   55.99   1
 -16   1  -8  639.64   66.49   1
  16   1   8  658.33   66.39   1
 -16   1  -8  653.53   73.69   1
 -16   1  -8  774.92   77.69   1
  16  -1   8  609.24   69.69   1
 -16  -1  -8  727.53   79.19   1
 -16  -1  -8  631.74   63.29   1
  16  -1   8  582.94   65.79   1
 -16   1  -9  140.79   37.20   1
  16   1   9  124.09   32.70   1
 -16   1  -9  202.58   46.10   1
 -16   1  -9  161.18   47.50   1
  16  -1   9   82.99   40.60   1
  16  -1   9  144.19   36.50   1
 -16  -1  -9  140.69   33.30   1
  16  -1  10   47.40   47.00   1
 -16   2  14  224.88   40.50   1
  16   2 -14  240.58   52.29   1
  16  -2 -14  383.26   47.70   1
  16   2 -13   13.70   41.90   1
 -16   2  13   68.99   31.30   1
  16   2 -13   68.79   59.59   1
  16  -2 -13  104.99   35.50   1
 -16  -2  13   23.80   46.60   1
 -16  -2  13   84.99   30.00   1
 -16   2  12   80.09   29.70   1
  16   2 -12   44.30   35.70   1
  16   2 -12  173.78   41.90   1
  16   2 -12  108.59   36.90   1
 -16   2  12   26.80   45.90   1
  16  -2 -12  108.69   32.90   1
  16  -2 -12   49.30   33.60   1
  16  -2 -12   64.49   32.30   1
 -16  -2  12  127.89   32.20   1
 -16  -2  12  109.59   44.50   1
 -16   2  11  224.68   47.70   1
 -16   2  11  322.47   45.30   1
  16   2 -11  249.18   47.60   1
  16   2 -11  202.98   40.70   1
  16   2 -11  257.67   42.40   1
  16  -2 -11  332.37   41.70   1
  16  -2 -11  309.57   42.70   1
  16  -2 -11  284.87   50.09   1
 -16  -2  11  280.67   42.40   1
 -16  -2  11  368.16   65.59   1
 -16   2  10    6.70   33.50   1
  16   2 -10   45.70   32.20   1
 -16   2  10  -12.80   22.90   1
  16   2 -10  -25.30   30.60   1
 -16  -2  10   45.60   38.70   1
 -16  -2  10   67.59   24.40   1
  16  -2 -10  132.69   46.90   1
  16  -2 -10   42.00   28.30   1
  16  -2 -10    6.10   29.20   1
 -16   2   9   64.89   39.00   1
  16   2  -9   67.89   30.00   1
  16   2  -9   99.79   33.30   1
  16   2  -9   93.49   36.20   1
 -16   2   9   79.99   27.90   1
 -16  -2   9  139.49   38.50   1
 -16  -2   9  105.89   28.80   1
  16  -2  -9  143.39   35.80   1
  16  -2  -9  100.79   31.20   1
 -16   2   8  257.87   45.80   1
  16   2  -8  232.18   41.40   1
 -16   2   8  304.37   40.10   1
 -16   2   8  209.18   34.90   1
  16   2  -8  331.77   45.80   1
  16   2  -8  258.77   40.70   1
  16  -2  -8  294.37   48.30   1
 -16  -2   8  256.77   39.60   1
 -16  -2   8  197.78   42.70   1
  16  -2  -8  279.17   43.90   1
  16   2  -7   34.20   29.10   1
  16   2  -7   64.09   33.30   1
 -16   2   7  119.99   28.20   1
  16   2  -7  178.78   29.80   1
 -16   2   7   84.79   26.90   1
 -16   2   7   89.49   35.90   1
  16  -2  -7  136.49   33.90   1
 -16  -2   7   81.69   25.00   1
 -16  -2   7  117.89   35.80   1
  16  -2  -7  146.89   30.90   1
  16   2  -6  403.66   53.99   1
  16   2  -6  358.26   42.70   1
  16   2  -6  315.37   49.80   1
 -16   2   6  471.35   44.90   1
 -16   2   6  314.37   55.79   1
 -16   2   6  376.36   44.20   1
 -16  -2   6  355.76   52.59   1
  16  -2  -6  379.46   52.59   1
  16  -2  -6  331.07   45.60   1
 -16  -2   6  400.66   42.60   1
  16   2  -5   48.40   28.90   1
 -16   2   5   75.89   33.30   1
  16   2  -5   34.30   27.80   1
 -16   2   5   67.39   26.20   1
 -16   2   5   48.80   25.20   1
  16   2  -5   34.70   22.80   1
  16  -2  -5   58.99   26.30   1
  16  -2  -5   87.89   30.00   1
 -16  -2   5   68.49   30.10   1
 -16   2   4   76.59   23.60   1
 -16   2   4  106.99   28.20   1
  16   2  -4   22.90   21.70   1
 -16   2   4   63.29   31.90   1
  16   2  -4   57.29   27.90   1
  16   2  -4   32.60   28.70   1
 -16  -2   4   46.80   29.70   1
  16  -2  -4   61.39   29.70   1
  16  -2  -4   62.29   27.30   1
  16   2  -3   25.10   25.40   1
 -16   2   3  108.19   31.20   1
  16   2  -3   77.29   30.20   1
 -16   2   3   74.29   23.40   1
 -16   2   3   94.19   43.20   1
  16  -2  -3  120.89   32.50   1
  16  -2  -3  102.19   30.60   1
 -16  -2   3  119.19   33.50   1
 -16   2   2   80.99   22.20   1
  16   2  -2   16.60   25.80   1
  16   2  -2   39.10   24.30   1
 -16   2   2   37.40   26.40   1
 -16   2   2   48.90   27.70   1
  16   2  -2   -5.90   25.30   1
 -16  -2   2    3.70   29.90   1
  16  -2  -2   18.30   28.10   1
  16  -2  -2   -3.70   25.00   1
 -16   2   1   78.19   29.50   1
  16   2  -1   44.80   25.10   1
 -16   2   1   69.69   21.60   1
 -16   2   1   41.90   27.00   1
  16   2  -1   63.99   27.40   1
  16  -2  -1   44.20   28.90   1
  16  -2  -1   53.89   29.70   1
 -16  -2   1   12.30   29.70   1
 -16  -2   1   87.19   31.80   1
 -16   2   0  157.68   33.30   1
  16   2   0  145.09   31.50   1
  16   2   0  152.08   30.10   1
 -16   2   0  118.69   26.60   1
 -16  -2   0  108.59   34.20   1
  16  -2   0  180.38   34.50   1
 -16  -2   0   71.19   32.00   1
  16  -2   0  135.39   32.20   1
 -16   2  -1  381.26   52.99   1
  16   2   1  374.76   46.70   1
 -16   2  -1  352.96   47.30   1
  16   2   1  406.36   52.19   1
 -16  -2  -1  394.86   57.59   1
 -16  -2  -1  386.66   46.80   1
 -16  -2  -1  360.96   56.99   1
  16  -2   1  427.76   50.49   1
 -16   2  -2  139.79   34.80   1
 -16   2  -2  110.59   33.60   1
  16   2   2   86.29   31.70   1
  16   2   2  165.08   33.90   1
 -16   2  -2  104.99   32.40   1
 -16  -2  -2  105.69   35.40   1
 -16  -2  -2   96.59   30.90   1
  16  -2   2  170.78   35.30   1
 -16  -2  -2   81.29   33.70   1
 -16   2  -3  360.86   57.79   1
  16   2   3  411.26   48.80   1
 -16   2  -3  504.85   53.79   1
 -16   2  -3  383.96   55.39   1
  16   2   3  461.85   55.69   1
 -16  -2  -3  420.16   58.99   1
  16  -2   3  480.55   56.29   1
  16  -2   3  306.17   51.29   1
 -16  -2  -3  454.95   50.39   1
 -16  -2  -3  478.05   61.39   1
 -16   2  -4  889.91   86.99   1
  16   2   4  845.62   81.99   1
 -16   2  -4  929.01   86.29   1
  16   2   4  883.51   79.79   1
 -16   2  -4  914.61   82.79   1
 -16  -2  -4 1005.50   89.19   1
 -16  -2  -4  896.11   88.59   1
  16  -2   4  857.11   82.39   1
  16  -2   4  893.41   82.29   1
 -16  -2  -4  921.41   79.19   1
  16   2   5   99.09   41.20   1
 -16   2  -5  176.28   37.30   1
 -16   2  -5  159.58   38.00   1
 -16   2  -5  208.58   42.60   1
  16   2   5  123.09   32.80   1
  16  -2   5  142.29   35.80   1
  16  -2   5  138.69   34.90   1
 -16  -2  -5  168.28   42.10   1
 -16  -2  -5   65.19   37.80   1
 -16  -2  -5  131.59   35.50   1
  16   2   6   48.40   27.80   1
 -16   2  -6    2.70   30.60   1
 -16   2  -6   53.09   40.10   1
 -16   2  -6    9.70   34.20   1
 -16  -2  -6   -8.00   31.50   1
  16  -2   6   29.10   32.40   1
 -16  -2  -6   14.10   34.50   1
 -16  -2  -6  114.79   41.70   1
  16  -2   6   55.99   32.10   1
  16   2   7   38.00   32.10   1
 -16   2  -7  130.79   43.50   1
 -16   2  -7   55.29   38.00   1
 -16   2  -7  -18.80   30.40   1
  16  -2   7   43.90   33.00   1
 -16  -2  -7   23.90   35.80   1
  16  -2   7   52.29   37.10   1
 -16   2  -8   68.99   43.10   1
  16   2   8  -32.60   24.70   1
 -16   2  -8    7.00   30.80   1
 -16   2  -8   33.00   40.00   1
  16  -2   8   17.30   35.80   1
 -16  -2  -8   42.60   35.50   1
  16  -2   8   55.69   35.50   1
  16   3 -11   -1.50   40.40   1
  16   3 -11   55.19   40.60   1
 -16   3  11   51.49   31.30   1
  16   3 -11   39.30   35.20   1
  16  -3 -11   21.30   30.40   1
 -16  -3  11  -23.10   46.70   1
 -16  -3  11   62.89   27.20   1
  16  -3 -11   10.90   38.80   1
  16   3 -10  156.58   45.30   1
 -16   3  10  149.49   39.40   1
 -16   3  10   34.80   45.80   1
 -16   3  10  112.69   32.70   1
  16   3 -10  173.28   42.50   1
  16   3 -10   57.89   40.30   1
 -16  -3  10  164.88   33.70   1
  16  -3 -10  176.88   41.30   1
  16  -3 -10  155.98   36.20   1
 -16  -3  10   87.99   49.50   1
 -16   3   9   98.49   37.60   1
  16   3  -9  150.08   52.79   1
 -16   3   9  187.08   38.30   1
 -16   3   9   76.79   47.50   1
  16   3  -9  164.28   43.20   1
  16   3  -9  209.78   40.20   1
  16  -3  -9  126.29   35.40   1
  16  -3  -9  159.48   39.60   1
 -16  -3   9   34.40   43.70   1
 -16  -3   9  125.29   31.60   1
 -16   3   8  100.49   32.40   1
  16   3  -8   82.99   35.70   1
  16   3  -8   74.79   39.60   1
 -16   3   8   23.40   39.40   1
  16   3  -8   85.19   38.20   1
 -16   3   8   84.09   31.50   1
  16  -3  -8   97.59   36.70   1
  16  -3  -8  106.39   34.30   1
 -16  -3   8   80.09   39.70   1
 -16  -3   8   98.49   31.80   1
 -16   3   7   48.50   32.10   1
  16   3  -7   66.39   31.00   1
 -16   3   7    4.30   37.20   1
  16   3  -7   39.50   35.40   1
  16   3  -7   96.79   38.20   1
 -16   3   7   48.00   26.60   1
 -16  -3   7   72.89   37.30   1
  16  -3  -7   50.79   36.00   1
 -16  -3   7   27.20   23.50   1
  16  -3  -7   49.40   31.70   1
 -16   3   6   30.10   25.80   1
 -16   3   6   29.90   30.80   1
  16   3  -6   31.20   29.70   1
 -16   3   6   21.80   40.00   1
  16   3  -6  -16.50   32.50   1
  16  -3  -6   37.80   34.50   1
  16  -3  -6   32.00   29.00   1
 -16  -3   6   91.19   35.20   1
  16   3  -5  546.35   74.09   1
 -16   3   5  596.74   78.89   1
 -16   3   5  676.63   63.59   1
 -16   3   5  763.62   68.39   1
  16   3  -5  628.94   65.49   1
  16  -3  -5  779.42   73.59   1
  16  -3  -5  602.44   67.29   1
 -16  -3   5  706.73   73.79   1
  16   3  -4  140.09   39.90   1
 -16   3   4  105.39   29.60   1
 -16   3   4  133.29   43.80   1
  16   3  -4  192.38   35.20   1
 -16   3   4  300.77   47.30   1
 -16  -3   4  323.17   52.29   1
 -16  -3   4   74.09   39.00   1
  16  -3  -4  193.08   39.10   1
  16  -3  -4  186.68   40.00   1
 -16   3   3  160.38   37.50   1
  16   3  -3  186.58   40.50   1
  16   3  -3   80.39   31.20   1
 -16   3   3  112.39   40.70   1
 -16   3   3  203.98   33.10   1
  16   3  -3  148.89   34.80   1
 -16  -3   3  185.28   41.00   1
  16  -3  -3  104.39   36.30   1
  16  -3  -3  223.38   40.10   1
 -16  -3   3   78.89   37.60   1
 -16   3   2  221.98   34.50   1
  16   3  -2  160.58   33.60   1
  16   3  -2  131.29   30.90   1
 -16   3   2  136.99   40.60   1
  16   3  -2  187.48   42.60   1
 -16   3   2  198.18   37.90   1
  16  -3  -2  163.88   37.80   1
 -16  -3   2  189.28   42.60   1
  16  -3  -2  246.28   42.20   1
 -16  -3   2   90.39   37.70   1
 -16   3   1  107.19   38.60   1
  16   3  -1  106.79   33.80   1
 -16   3   1  113.79   32.10   1
  16   3  -1  151.08   33.90   1
 -16   3   1  174.68   38.00   1
  16   3  -1  140.39   38.80   1
 -16  -3   1  199.08   42.50   1
  16  -3  -1  320.67   53.79   1
  16  -3  -1  191.38   37.70   1
 -16  -3   1  249.28   43.00   1
 -16   3   0  541.05   57.19   1
  16   3   0  420.86   64.29   1
 -16   3   0  408.26   63.29   1
  16   3   0  511.25   53.19   1
 -16   3   0  441.76   48.40   1
  16   3   0  333.27   49.80   1
 -16  -3   0  474.65   63.89   1
  16  -3   0  409.36   58.99   1
 -16  -3   0  403.46   65.29   1
  16   3   1   97.89   32.30   1
  16   3   1   59.49   28.00   1
 -16   3  -1   66.79   25.40   1
 -16   3  -1   42.40   35.30   1
 -16   3  -1   71.49   33.60   1
  16   3   1  102.99   37.80   1
  16  -3   1   80.39   34.70   1
 -16  -3  -1   31.40   37.90   1
 -16  -3  -1   74.19   38.40   1
  16   3   2   23.50   31.90   1
  16   3   2   33.50   35.90   1
 -16   3  -2   76.89   24.50   1
 -16   3  -2   17.00   31.00   1
 -16   3  -2   42.80   53.49   1
 -16   3  -2   60.59   35.40   1
  16   3   2  -10.60   25.70   1
 -16  -3  -2   18.40   36.00   1
  16  -3   2   30.30   30.60   1
 -16  -3  -2   74.19   37.30   1
  16   3   3  140.39   31.90   1
 -16   3  -3  177.18   44.70   1
  16   3   3  113.19   43.60   1
 -16   3  -3  178.08   30.90   1
 -16   3  -3  101.79   36.60   1
 -16   3  -3   89.99   38.00   1
 -16  -3  -3  232.68   47.40   1
 -16  -3  -3   92.49   42.00   1
  16  -3   3  120.09   36.10   1
  16   3   4   19.50   39.60   1
  16   3   4  -59.49   27.00   1
 -16   3  -4  -39.30   34.50   1
 -16   3  -4  -17.90   30.70   1
 -16   3  -4   -6.50   37.40   1
 -16  -3  -4  -35.80   43.80   1
 -16  -3  -4  -53.69   36.60   1
  16  -3   4   22.30   33.40   1
 -16  -3  -4   26.40   31.10   1
 -16   3  -5  300.87   51.79   1
 -16   3  -5  445.96   68.79   1
  16   3   5  398.66   51.99   1
 -16   3  -5  256.97   50.59   1
 -16  -3  -5  336.17   55.09   1
  16  -3   5  232.68   46.10   1
 -16  -3  -5  239.28   71.29   1
 -16   3  -6  103.59   39.50   1
  16   3   6  113.29   32.70   1
 -16   3  -6  150.08   50.49   1
 -16   3  -6  140.29   46.20   1
  16  -3   6  125.69   41.40   1
 -16  -3  -6  158.88   44.70   1
 -16   4   6  136.89   42.10   1
 -16   4   6  -98.79   56.79   1
  16  -4  -6   55.29   38.50   1
  16  -4  -6   93.59   46.80   1
  16   4  -5   17.60   40.40   1
 -16   4   5  -58.19   30.20   1
 -16   4   5   78.19   37.10   1
  16   4  -5   36.90   33.00   1
  16  -4  -5   75.89   37.20   1
 -16  -4   5   21.90   47.40   1
 -16  -4   5    3.80   43.10   1
  16  -4  -5   47.60   40.90   1
 -16  -4   5   34.50   26.10   1
 -16   4   4  -90.29   49.99   1
  16   4  -4   32.40   50.19   1
 -16   4   4   43.30   38.40   1
  16   4  -4   53.19   34.90   1
 -16   4   4  -22.70   31.50   1
 -16  -4   4   46.90   47.50   1
 -16  -4   4   13.90   43.60   1
  16  -4  -4  119.09   45.10   1
  16  -4  -4   46.00   36.70   1
 -16   4   3  -62.39   30.30   1
  16   4  -3  -14.90   38.20   1
  16   4  -3  -17.20   32.80   1
 -16   4   3   56.19   39.90   1
  16   4  -3    5.30   31.50   1
  16  -4  -3   40.50   41.60   1
 -16  -4   3  -25.20   43.80   1
  16  -4  -3    6.90   35.90   1
 -16  -4   3   71.39   46.50   1
  16   4  -2   51.89   40.40   1
 -16   4   2   26.60   46.30   1
  16   4  -2   45.00   33.70   1
  16   4  -2    1.10   29.50   1
 -16   4   2   60.09   38.40   1
 -16   4   2   73.49   33.30   1
  16  -4  -2   91.39   38.70   1
 -16  -4   2   99.39   44.70   1
  16  -4  -2  114.49   47.00   1
  16   4  -1  125.19   35.60   1
 -16   4   1  116.39   38.70   1
  16   4  -1   99.29   36.10   1
 -16   4   1   32.20   52.19   1
 -16   4   1  168.38   59.29   1
  16   4  -1   79.69   44.70   1
  16  -4  -1   47.30   35.20   1
 -16  -4   1  109.39   45.20   1
 -16  -4   1   28.50   43.70   1
 -16   4   0   85.19   38.20   1
  16   4   0  131.99   35.90   1
  16   4   0   90.89   44.00   1
  16   4   0   60.59   32.60   1
 -16  -4   0  145.39   47.40   1
 -16  -4   0  150.78   52.39   1
  16  -4   0   57.09   35.40   1
  16  -4   1  324.27   54.59   1
  17   0 -15   -3.60   38.50   1
 -17   0  15  -16.60   28.10   1
 -17   0  14   16.90   38.80   1
  17   0 -14   58.99   35.10   1
 -17   0  13  -22.80   24.30   1
 -17   0  13  -25.80   41.60   1
  17   0 -13   25.50   31.50   1
  17   0 -13   36.00   33.70   1
 -17   0  12   -3.80   23.00   1
  17   0 -12   51.49   32.30   1
  17   0 -12    8.00   30.80   1
 -17   0  12   -0.50   39.00   1
 -17   0  11  -33.50   34.10   1
 -17   0  11   18.00   24.40   1
  17   0 -11   39.60   30.60   1
  17   0 -11   -6.30   30.00   1
  17   0 -10  -23.20   27.50   1
 -17   0  10  -11.40   20.20   1
  17   0 -10   16.20   28.00   1
 -17   0  10    3.30   35.40   1
 -17   0   9   21.10   21.30   1
  17   0  -9   77.29   30.30   1
  17   0  -9   49.00   27.80   1
 -17   0   9  100.09   35.40   1
  17   0  -8  -23.60   25.10   1
  17   0  -8   20.40   27.90   1
 -17   0   8  -36.20   28.70   1
 -17   0   8  -50.09   19.50   1
 -17   0   7    0.70   19.40   1
  17   0  -7  -17.10   26.50   1
 -17   0   7   14.40   27.80   1
  17   0  -7   -8.80   25.50   1
  17   0  -6    6.80   24.70   1
  17   0  -6    7.20   23.20   1
 -17   0   6  -41.00   24.40   1
 -17   0   6  -31.20   18.90   1
 -17   0   5   29.60   26.90   1
  17   0  -5   44.20   24.80   1
  17   0  -5   31.00   25.50   1
 -17   0   5   35.60   19.40   1
 -17   0   4   27.70   27.80   1
  17   0  -4    5.90   25.10   1
 -17   0   4   17.70   19.60   1
  17   0  -4   -7.50   25.50   1
  17   0  -3   35.00   23.90   1
 -17   0   3    0.40   25.60   1
  17   0  -3   43.50   25.80   1
 -17   0   2   17.10   16.10   1
  17   0  -2   19.80   26.10   1
  17   0  -2   38.90   25.20   1
  17   0  -2   13.00   24.80   1
 -17   0   2  -10.70   25.80   1
 -17   0   1  131.39   33.30   1
  17   0  -1  154.08   28.40   1
  17   0  -1  120.49   34.70   1
 -17   0   1  145.49   23.50   1
  17   0  -1   91.09   28.00   1
 -17   0   0   49.20   29.00   1
  17   0   0   -6.40   22.40   1
 -17   0   0   13.60   19.40   1
  17   0   0   22.70   23.40   1
 -17   0  -1  -33.00   25.50   1
 -17   0  -1   10.70   27.00   1
  17   0   1    4.80   24.40   1
  17   0   1   24.60   25.50   1
 -17   0  -1   29.00   21.30   1
 -17   0  -2  -16.70   25.30   1
  17   0   2  -16.50   22.90   1
 -17   0  -2  -12.00   19.80   1
  17   0   2   -1.80   24.20   1
 -17   0  -2   -4.40   26.30   1
 -17   0  -3   -5.90   26.80   1
  17   0   3   17.90   25.00   1
 -17   0  -3   24.60   20.00   1
  17   0   3   -9.30   24.00   1
 -17   0  -3  -43.70   25.60   1
  17   0   4  -44.80   25.10   1
 -17   0  -4   -2.90   30.00   1
  17   0   4   -0.20   23.10   1
 -17   0  -4    4.30   22.40   1
 -17   0  -4   -0.90   27.80   1
  17   0   5   -3.00   27.40   1
 -17   0  -5   18.60   22.10   1
 -17   0  -5   -6.10   28.70   1
  17   0   5  -30.40   27.10   1
 -17   0  -5  -25.60   28.40   1
 -17   0  -6   -1.90   22.90   1
  17   0   6   13.20   24.90   1
 -17   0  -6   53.69   33.10   1
  17   0   6   -9.10   29.30   1
 -17   0  -6    8.10   32.00   1
 -17   0  -7   36.60   37.70   1
 -17   0  -7   15.00   24.50   1
 -17   0  -7    2.70   33.40   1
  17   0   7    6.90   32.80   1
  17   0   8  -12.20   24.60   1
 -17   0  -8   36.10   35.90   1
  17   0   8    0.70   40.20   1
 -17   0  -8  -31.20   26.00   1
 -17   0  -8   21.80   38.50   1
  17   0   9   -1.10   29.00   1
 -17   0  -9   35.90   28.70   1
  17   1 -14  -64.69   56.09   1
 -17   1  14  -23.50   27.20   1
  17   1 -14   14.40   36.40   1
  17  -1 -14  -26.80   33.70   1
 -17  -1  14  -15.40   24.80   1
 -17   1  13  -17.80   26.10   1
  17   1 -13  -44.70   34.30   1
  17   1 -13   38.80   36.00   1
 -17  -1  13   -9.60   24.20   1
  17  -1 -13   36.10   32.60   1
 -17  -1  13   10.80   45.50   1
  17  -1 -13   13.00   40.20   1
  17   1 -12  -10.30   32.00   1
  17   1 -12    5.30   33.10   1
 -17   1  12  -23.50   37.10   1
 -17   1  12   11.40   26.20   1
 -17  -1  12  -18.60   20.90   1
  17  -1 -12    1.00   30.80   1
  17  -1 -12  -22.90   30.50   1
 -17  -1  12   -7.80   40.00   1
 -17   1  11   32.30   23.90   1
  17   1 -11   48.00   31.80   1
  17   1 -11  -16.80   32.70   1
 -17   1  11   10.70   38.10   1
 -17  -1  11   42.80   25.70   1
 -17  -1  11  -56.99   37.00   1
  17  -1 -11   35.20   29.20   1
  17  -1 -11   24.10   28.30   1
  17   1 -10   75.09   32.20   1
 -17   1  10   81.89   27.80   1
 -17   1  10   31.60   35.20   1
  17   1 -10   84.29   32.90   1
 -17  -1  10   39.10   38.70   1
  17  -1 -10   82.99   31.40   1
  17  -1 -10   73.69   31.40   1
 -17  -1  10   84.69   29.60   1
  17   1  -9   -5.20   27.40   1
  17   1  -9    6.00   27.90   1
 -17   1   9   -8.10   21.60   1
 -17   1   9  -14.80   31.50   1
  17  -1  -9   24.70   27.50   1
  17  -1  -9  -32.50   26.70   1
 -17  -1   9  -21.90   19.40   1
 -17  -1   9   46.60   34.90   1
 -17   1   8   71.69   25.50   1
  17   1  -8   17.40   27.10   1
 -17   1   8   44.10   34.90   1
  17   1  -8   56.99   28.70   1
  17  -1  -8  108.99   30.40   1
 -17  -1   8   24.80   24.00   1
  17  -1  -8   31.10   26.90   1
 -17  -1   8   64.09   32.90   1
 -17   1   7   10.80   30.00   1
 -17   1   7   24.00   23.50   1
  17   1  -7   49.20   25.60   1
  17   1  -7   -8.60   26.10   1
  17  -1  -7   28.90   26.30   1
 -17  -1   7   28.50   21.80   1
 -17  -1   7   25.20   29.10   1
  17  -1  -7   39.60   27.40   1
 -17   1   6   37.10   21.10   1
 -17   1   6   78.39   32.40   1
  17   1  -6   45.20   27.50   1
  17   1  -6   64.19   28.80   1
 -17  -1   6   33.20   21.00   1
 -17  -1   6   33.30   29.40   1
  17  -1  -6   34.50   27.70   1
  17  -1  -6   45.60   26.00   1
 -17   1   5   13.70   18.90   1
  17   1  -5    6.60   22.80   1
 -17   1   5   -6.10   27.00   1
  17   1  -5   -1.30   26.30   1
 -17  -1   5  -14.70   27.90   1
  17  -1  -5   14.20   25.60   1
 -17  -1   5    7.70   19.10   1
  17  -1  -5  -24.70   23.10   1
 -17   1   4  105.89   18.30   1
  17   1  -4  121.39   32.10   1
  17   1  -4   98.79   29.00   1
 -17   1   4  107.49   35.50   1
 -17   1   4  105.19   25.30   1
  17  -1  -4  120.99   25.90   1
 -17  -1   4  153.58   32.90   1
  17  -1  -4  115.29   32.00   1
  17   1  -3   38.60   24.10   1
 -17   1   3   34.40   18.50   1
  17   1  -3    5.80   25.30   1
 -17   1   3   40.40   18.80   1
 -17   1   3   26.20   26.80   1
  17   1  -3   36.70   26.40   1
 -17  -1   3   23.70   16.80   1
 -17  -1   3   30.30   28.20   1
  17  -1  -3    3.00   26.10   1
  17  -1  -3    9.20   22.50   1
 -17   1   2    8.30   18.60   1
  17   1  -2   26.70   25.20   1
 -17   1   2   30.30   22.30   1
 -17   1   2    5.10   26.50   1
  17   1  -2   -5.80   24.80   1
 -17  -1   2  -44.90   18.10   1
  17  -1  -2    8.10   25.80   1
  17  -1  -2   -6.20   24.00   1
 -17  -1   2  -20.20   26.60   1
  17   1  -1   72.69   26.30   1
 -17   1   1   64.69   29.40   1
  17   1  -1    7.40   22.20   1
 -17   1   1   55.09   23.40   1
  17  -1  -1   60.49   26.90   1
  17  -1  -1   56.49   28.60   1
 -17  -1   1   44.70   21.80   1
 -17  -1   1  110.89   31.90   1
  17   1   0   20.00   24.00   1
  17   1   0   14.00   25.10   1
 -17   1   0   31.70   29.00   1
  17  -1   0   -8.50   22.80   1
 -17  -1   0   44.70   29.20   1
  17  -1   0    0.40   25.20   1
 -17  -1   0   -5.40   30.00   1
  17   1   1   69.69   26.10   1
  17   1   1   42.40   25.00   1
 -17   1  -1   57.29   29.80   1
 -17   1  -1   38.80   26.00   1
  17  -1   1   43.30   28.40   1
 -17  -1  -1   36.30   28.40   1
 -17  -1  -1   30.00   31.50   1
  17  -1   1   43.70   27.10   1
 -17  -1  -1   67.89   24.80   1
 -17   1  -2    2.10   28.30   1
 -17   1  -2   22.20   29.20   1
 -17   1  -2  -26.50   26.20   1
  17   1   2   38.60   25.30   1
  17   1   2   56.49   26.30   1
 -17  -1  -2   13.60   30.80   1
  17  -1   2    5.60   26.80   1
  17  -1   2   10.50   26.60   1
 -17  -1  -2   10.50   28.30   1
 -17  -1  -2   16.00   26.70   1
 -17   1  -3   14.30   27.30   1
 -17   1  -3  -12.00   27.80   1
 -17   1  -3   25.10   25.50   1
  17   1   3   62.39   24.90   1
  17   1   3    2.00   25.20   1
 -17  -1  -3    4.00   18.80   1
 -17  -1  -3   -5.60   26.90   1
 -17  -1  -3   17.70   31.20   1
  17  -1   3   79.69   27.90   1
  17  -1   3   25.80   26.70   1
 -17   1  -4   35.40   26.60   1
 -17   1  -4   39.70   32.10   1
  17   1   4   -8.90   26.90   1
  17   1   4    8.40   23.60   1
 -17   1  -4    9.50   29.00   1
 -17  -1  -4   54.89   31.20   1
 -17  -1  -4    0.30   20.00   1
  17  -1   4    9.50   26.90   1
  17  -1   4   26.50   27.90   1
 -17  -1  -4   10.00   30.30   1
 -17   1  -5   10.50   27.60   1
  17   1   5   -9.20   25.00   1
 -17   1  -5   11.40   31.70   1
  17   1   5   63.59   29.10   1
 -17   1  -5   20.60   31.50   1
  17  -1   5   -8.80   29.90   1
 -17  -1  -5  -12.30   31.70   1
  17  -1   5  -33.80   27.20   1
 -17  -1  -5   25.40   22.00   1
 -17  -1  -5  -41.10   28.20   1
 -17   1  -6   -0.30   32.20   1
  17   1   6   -7.50   24.70   1
 -17   1  -6   10.90   31.90   1
  17   1   6   15.10   54.59   1
 -17   1  -6    0.20   27.90   1
 -17  -1  -6   47.20   36.50   1
  17  -1   6  -16.00   31.50   1
 -17  -1  -6  -26.00   34.50   1
 -17  -1  -6   31.90   23.90   1
  17  -1   6  -28.50   25.60   1
 -17   1  -7    6.00   35.00   1
 -17   1  -7   38.10   39.50   1
  17   1   7    1.50   26.80   1
 -17   1  -7   -2.30   29.20   1
  17  -1   7    3.80   34.70   1
 -17  -1  -7  -10.80   24.50   1
 -17  -1  -7  -26.50   37.00   1
  17  -1   7    2.90   27.60   1
 -17  -1  -7    1.60   41.30   1
 -17   1  -8   29.50   41.30   1
 -17   1  -8  -23.90   29.60   1
  17   1   8   19.00   26.40   1
 -17   1  -8  -11.70   36.20   1
  17  -1   8   19.10   28.70   1
  17  -1   8    7.80   37.60   1
 -17  -1  -8   -8.20   27.10   1
  17   1   9   -4.00   27.20   1
 -17   1  -9   35.90   41.20   1
 -17   1  -9   26.80   37.70   1
 -17   1  -9  -28.90   32.70   1
  17  -1   9   -7.60   40.20   1
 -17  -1  -9   -7.30   28.80   1
  17  -1   9   26.50   30.50   1
 -17   2  13  -39.90   28.80   1
  17   2 -13   32.20   35.60   1
  17   2 -13   11.30   41.90   1
  17  -2 -13  -22.50   32.00   1
 -17  -2  13  -34.70   47.30   1
 -17  -2  13   -0.90   26.60   1
 -17   2  12    2.40   29.00   1
  17   2 -12   21.50   36.20   1
 -17  -2  12  -44.40   41.90   1
  17  -2 -12   -9.50   38.10   1
  17  -2 -12    8.80   31.10   1
 -17  -2  12   -1.10   25.50   1
 -17   2  11   -9.20   38.10   1
  17   2 -11  -21.70   34.90   1
 -17   2  11   46.70   31.00   1
  17   2 -11   -2.80   29.60   1
 -17  -2  11   20.50   26.70   1
 -17  -2  11   16.00   42.90   1
  17  -2 -11   14.00   32.90   1
  17  -2 -11   41.00   29.50   1
  17   2 -10  -17.70   30.50   1
 -17   2  10   22.80   37.70   1
 -17   2  10    2.90   22.80   1
  17   2 -10   60.09   36.30   1
  17  -2 -10  -29.00   26.50   1
 -17  -2  10  -24.30   37.00   1
  17  -2 -10    3.50   30.10   1
 -17  -2  10    1.40   23.50   1
  17   2  -9   34.30   31.10   1
 -17   2   9   68.89   25.80   1
  17   2  -9   50.69   35.10   1
  17   2  -9  -17.70   38.70   1
 -17   2   9   55.69   38.10   1
 -17  -2   9   27.20   36.40   1
  17  -2  -9   39.30   32.20   1
 -17  -2   9   61.49   23.30   1
  17  -2  -9   92.89   30.50   1
  17   2  -8    1.10   24.80   1
 -17   2   8  -42.30   32.50   1
  17   2  -8    6.40   29.80   1
 -17   2   8  -42.50   26.30   1
  17   2  -8   -4.40   28.10   1
 -17   2   8   61.19   26.20   1
 -17  -2   8    7.70   32.20   1
  17  -2  -8  -19.90   24.50   1
 -17  -2   8   12.10   23.20   1
  17  -2  -8   48.90   31.40   1
 -17   2   7   15.60   35.90   1
  17   2  -7    6.60   24.80   1
  17   2  -7   -5.80   28.90   1
 -17   2   7    2.10   21.80   1
  17   2  -7  -13.00   28.30   1
 -17   2   7  -14.00   24.60   1
  17  -2  -7   -7.80   26.50   1
 -17  -2   7   13.60   23.40   1
  17  -2  -7   37.20   30.00   1
 -17  -2   7   -5.80   31.80   1
  17   2  -6   18.60   30.60   1
  17   2  -6   -1.60   22.10   1
 -17   2   6   -7.10   32.10   1
 -17   2   6   36.40   25.90   1
  17   2  -6   -9.20   27.50   1
 -17   2   6  -10.40   19.70   1
  17  -2  -6   21.50   29.40   1
 -17  -2   6   30.30   23.60   1
 -17  -2   6    4.90   29.40   1
  17  -2  -6  -18.50   25.50   1
 -17   2   5   17.60   30.20   1
 -17   2   5   51.29   24.50   1
  17   2  -5   37.60   22.50   1
  17   2  -5   23.20   28.80   1
  17   2  -5   35.70   28.40   1
 -17   2   5   35.50   28.50   1
 -17  -2   5   51.79   30.20   1
  17  -2  -5   26.10   28.50   1
  17  -2  -5   19.10   28.10   1
 -17   2   4   20.10   19.70   1
 -17   2   4   52.09   32.30   1
  17   2  -4   17.30   26.40   1
 -17   2   4   21.20   28.60   1
  17   2  -4  -26.10   22.40   1
 -17  -2   4   43.10   31.70   1
  17  -2  -4   15.30   28.70   1
  17  -2  -4   -6.20   28.30   1
 -17   2   3   57.39   23.50   1
 -17   2   3  108.49   36.30   1
 -17   2   3   78.69   33.30   1
  17   2  -3   59.39   27.80   1
  17   2  -3   86.89   30.60   1
  17  -2  -3  108.49   33.50   1
 -17  -2   3   98.99   33.60   1
  17  -2  -3   53.09   29.00   1
  17   2  -2   30.90   25.30   1
 -17   2   2   19.80   28.40   1
 -17   2   2    9.80   18.90   1
 -17   2   2   30.00   30.20   1
  17   2  -2   48.10   28.70   1
 -17  -2   2   18.40   31.40   1
  17  -2  -2   76.39   30.00   1
  17  -2  -2   30.90   29.10   1
 -17   2   1    0.20   19.00   1
 -17   2   1   -9.80   26.60   1
 -17   2   1   32.20   31.00   1
  17   2  -1   15.40   26.80   1
  17   2  -1   13.50   24.80   1
 -17  -2   1  -45.90   28.30   1
 -17  -2   1   50.09   32.40   1
  17  -2  -1    9.00   26.20   1
  17  -2  -1   52.99   32.30   1
  17   2   0   25.20   25.10   1
 -17   2   0   29.70   29.80   1
  17   2   0   48.70   28.70   1
 -17   2   0  -12.10   19.80   1
 -17   2   0   18.00   27.40   1
 -17  -2   0  -52.59   23.70   1
 -17  -2   0   -2.30   29.00   1
  17  -2   0  -20.90   28.90   1
  17  -2   0   10.10   28.70   1
 -17  -2   0    4.90   30.90   1
  17   2   1   93.19   32.20   1
  17   2   1  145.69   35.80   1
 -17   2  -1  170.78   37.00   1
 -17   2  -1  173.98   35.40   1
 -17  -2  -1  114.09   31.00   1
 -17  -2  -1  125.89   38.10   1
  17  -2   1  124.09   34.20   1
 -17  -2  -1  117.59   36.70   1
 -17   2  -2   82.69   34.10   1
 -17   2  -2   62.59   33.50   1
 -17   2  -2   88.49   32.80   1
  17   2   2   87.39   31.20   1
  17   2   2   36.00   26.40   1
 -17  -2  -2   47.70   34.10   1
 -17  -2  -2  121.39   30.10   1
  17  -2   2   51.29   30.30   1
 -17  -2  -2   34.80   32.30   1
 -17   2  -3   39.90   32.50   1
  17   2   3   54.59   32.60   1
  17   2   3   -1.00   26.10   1
 -17   2  -3   73.89   31.40   1
 -17   2  -3  -24.20   32.80   1
  17  -2   3   14.10   30.60   1
 -17  -2  -3   30.10   36.90   1
 -17  -2  -3   58.59   29.10   1
  17  -2   3   23.80   29.80   1
 -17  -2  -3   20.50   33.10   1
  17   2   4  -16.80   24.30   1
 -17   2  -4   48.70   31.30   1
  17   2   4   18.10   30.00   1
 -17   2  -4   60.39   34.30   1
 -17   2  -4   53.29   34.10   1
 -17  -2  -4   35.60   34.80   1
 -17  -2  -4   61.59   35.20   1
 -17  -2  -4   65.39   30.90   1
  17  -2   4   34.70   32.70   1
  17  -2   4   64.99   33.50   1
 -17   2  -5    3.00   36.40   1
 -17   2  -5  -14.60   31.20   1
  17   2   5    8.30   33.40   1
 -17   2  -5   23.90   33.80   1
  17   2   5    9.90   29.40   1
 -17  -2  -5   23.30   32.40   1
 -17  -2  -5   -4.20   36.10   1
  17  -2   5   39.00   33.40   1
 -17  -2  -5   28.00   36.20   1
  17  -2   5  -15.70   28.90   1
  17   2   6  -38.20   31.90   1
 -17   2  -6   -0.60   33.40   1
 -17   2  -6  -33.90   34.50   1
 -17   2  -6   -2.10   40.60   1
 -17  -2  -6   80.49   35.80   1
 -17  -2  -6   72.29   69.59   1
  17  -2   6   24.40   32.30   1
  17  -2   6   56.29   35.90   1
  17   2   7   13.80   26.00   1
 -17   2  -7   96.39   45.60   1
 -17   2  -7   18.70   40.80   1
 -17   2  -7    8.40   32.90   1
 -17  -2  -7  130.39   37.60   1
  17  -2   7   38.40   39.30   1
  17  -2   7   64.89   34.80   1
  17  -2   8   98.09   43.50   1
  17   3 -10  -17.40   37.90   1
  17   3 -10  -65.09   38.40   1
 -17   3  10  -55.69   44.30   1
 -17   3  10   15.60   29.50   1
 -17   3  10  -73.39   38.40   1
 -17  -3  10   22.20   27.30   1
  17  -3 -10   -3.70   31.80   1
  17  -3 -10  -35.00   36.00   1
 -17  -3  10   54.39   46.60   1
 -17   3   9  -65.99   43.70   1
  17   3  -9  -12.00   41.50   1
 -17   3   9    3.80   26.60   1
  17   3  -9   68.99   40.10   1
 -17   3   9    6.50   35.60   1
  17   3  -9   -7.90   46.70   1
 -17  -3   9   50.99   44.00   1
 -17  -3   9   43.10   27.60   1
  17  -3  -9   26.90   37.50   1
  17  -3  -9   46.40   31.90   1
  17   3  -8  -26.00   36.20   1
  17   3  -8   -1.50   33.70   1
 -17   3   8  -44.40   36.30   1
  17   3  -8   20.50   37.60   1
 -17   3   8    6.30   25.00   1
 -17   3   8   22.60   31.60   1
  17  -3  -8   39.60   32.00   1
 -17  -3   8   68.59   27.30   1
 -17  -3   8  -30.10   39.00   1
  17  -3  -8    9.90   35.60   1
 -17   3   7   24.80   32.50   1
  17   3  -7  -26.50   34.00   1
 -17   3   7  -53.59   39.60   1
 -17   3   7  -49.30   21.60   1
  17   3  -7   13.40   31.10   1
 -17  -3   7   30.40   37.00   1
  17  -3  -7  -20.50   33.80   1
  17  -3  -7   15.50   29.50   1
 -17  -3   7   -8.70   22.10   1
 -17   3   6   33.80   25.20   1
 -17   3   6  -10.00   31.70   1
  17   3  -6   28.70   38.60   1
 -17   3   6    3.10   40.50   1
  17   3  -6   17.70   29.90   1
  17  -3  -6   18.20   32.10   1
  17  -3  -6   14.40   34.20   1
 -17  -3   6   89.59   35.90   1
 -17  -3   6   32.90   24.20   1
 -17   3   5    7.50   24.20   1
 -17   3   5   20.10   39.50   1
  17   3  -5   85.09   38.40   1
 -17   3   5   91.79   33.80   1
  17   3  -5   21.50   29.60   1
 -17  -3   5   85.99   37.20   1
  17  -3  -5   58.09   34.00   1
  17  -3  -5  115.79   33.90   1
 -17   3   4  161.58   38.80   1
 -17   3   4   84.69   40.60   1
  17   3  -4   85.69   37.90   1
 -17   3   4  134.69   30.70   1
  17   3  -4  100.99   31.60   1
  17  -3  -4  107.99   34.70   1
 -17  -3   4    7.80   37.80   1
 -17  -3   4  221.98   41.40   1
  17  -3  -4  152.78   39.80   1
  17   3  -3    7.60   34.10   1
 -17   3   3   67.69   37.40   1
 -17   3   3   14.40   37.50   1
  17   3  -3   22.50   27.90   1
  17   3  -3   19.60   27.70   1
 -17   3   3   41.90   24.10   1
 -17  -3   3   94.89   40.90   1
  17  -3  -3  135.19   38.00   1
  17  -3  -3   30.00   32.70   1
 -17  -3   3  -27.50   36.50   1
 -17   3   2   62.99   26.40   1
  17   3  -2   85.49   30.70   1
 -17   3   2   47.50   35.20   1
 -17   3   2   56.49   36.40   1
  17   3  -2   72.39   29.70   1
  17   3  -2   56.59   35.80   1
  17  -3  -2  127.39   36.90   1
 -17  -3   2   48.10   37.50   1
 -17  -3   2   29.10   35.60   1
  17  -3  -2   66.99   33.30   1
  17   3  -1   22.00   28.00   1
 -17   3   1   41.20   37.00   1
 -17   3   1   38.40   33.80   1
  17   3  -1  115.49   32.60   1
  17   3  -1   29.20   35.30   1
 -17   3   1   43.60   26.40   1
 -17  -3   1  116.79   39.20   1
  17  -3  -1   69.69   32.80   1
 -17  -3   1   78.39   40.70   1
  17  -3  -1   95.99   37.80   1
 -17   3   0    8.70   35.50   1
  17   3   0   -6.60   34.60   1
  17   3   0  -27.60   31.90   1
  17   3   0    2.80   27.80   1
 -17   3   0   27.50   31.70   1
 -17   3   0   80.59   25.90   1
  17  -3   0   16.80   31.10   1
 -17  -3   0   31.70   37.40   1
 -17  -3   0  -45.50   35.60   1
 -17   3  -1   25.90   33.50   1
  17   3   1   27.50   38.50   1
  17   3   1   88.39   32.90   1
 -17   3  -1   31.70   25.90   1
  17   3   1   50.69   33.10   1
 -17   3  -1   75.09   37.90   1
 -17  -3  -1   22.50   39.10   1
 -17  -3  -1   29.50   39.00   1
  17  -3   1   27.80   35.60   1
 -17   3  -2   58.79   25.60   1
  17   3   2   75.89   33.80   1
 -17   3  -2   61.89   36.40   1
 -17   3  -2   -0.70   37.70   1
  17   3   2   88.59   41.50   1
 -17   3  -2    2.50   33.10   1
  17  -3   2   39.60   37.40   1
 -17  -3  -2    8.50   38.00   1
 -17  -3  -2   44.50   37.60   1
  17   3   3  -41.90   38.40   1
  17   3   3   28.50   29.30   1
 -17   3  -3  -26.00   38.00   1
 -17   3  -3   67.19   36.60   1
 -17   3  -3    7.70   33.30   1
 -17   3  -3   58.09   25.10   1
  17  -3   3   -5.40   34.50   1
 -17  -3  -3   59.89   43.00   1
 -17  -3  -3   20.30   32.60   1
 -17  -3  -3   41.50   46.50   1
 -17   3  -4    4.90   40.50   1
  17   3   4   61.29   44.00   1
 -17   3  -4   69.69   25.40   1
 -17   3  -4   -7.10   39.60   1
 -17   3  -4  -26.60   34.10   1
 -17  -3  -4   54.19   36.30   1
  17  -3   4    8.90   35.40   1
 -17   3  -5   13.40   43.60   1
 -17   3  -5   17.40   34.10   1
  17   3   5   29.40   29.30   1
 -17   3  -5   88.59   48.90   1
  17  -3   5    3.30   52.99   1
 -17  -3  -5   23.80   33.40   1
 -18   0  14   20.60   27.90   1
  18   0 -14   35.10   37.60   1
  18   0 -13   73.49   36.20   1
 -18   0  13   35.20   30.20   1
  18   0 -12    0.50   33.00   1
  18   0 -12   72.69   32.60   1
 -18   0  12   61.69   27.90   1
 -18   0  12   16.00   38.80   1
  18   0 -11 1772.82  145.89   1
 -18   0  11 1919.21  151.18   1
  18   0 -11 1823.52  144.59   1
 -18   0  11 1722.03  141.49   1
  18   0 -10  418.76   54.59   1
  18   0 -10  368.66   54.09   1
 -18   0  10  415.96   48.30   1
 -18   0  10  418.66   62.69   1
 -18   0   9  438.76   60.39   1
 -18   0   9  408.76   47.60   1
  18   0  -9  415.66   55.89   1
  18   0  -9  397.16   53.99   1
  18   0  -8  389.76   50.59   1
 -18   0   8  255.17   41.40   1
  18   0  -8  362.26   49.10   1
 -18   0   8  335.77   56.19   1
  18   0  -7  412.96   50.99   1
 -18   0   7  369.56   56.19   1
 -18   0   7  407.26   44.80   1
  18   0  -7  353.86   52.09   1
  18   0  -6   27.30   29.90   1
 -18   0   6   -7.90   26.40   1
 -18   0   6    1.10   19.70   1
  18   0  -6   -1.60   26.30   1
 -18   0   5  842.92   75.89   1
  18   0  -5  777.02   70.29   1
  18   0  -5  781.72   75.59   1
 -18   0   5  719.23   67.59   1
  18   0  -4   35.20   30.00   1
 -18   0   4   -0.80   19.70   1
 -18   0   4  -12.10   26.60   1
  18   0  -4   65.69   27.40   1
 -18   0   3  506.65   58.59   1
  18   0  -3  504.45   54.19   1
  18   0  -3  504.25   60.49   1
 -18   0   2  437.46   37.60   1
 -18   0   2  324.87   52.69   1
  18   0  -2  344.37   52.39   1
  18   0  -2  374.96   47.50   1
  18   0  -2  394.26   46.40   1
 -18   0   1  174.18   36.90   1
  18   0  -1  150.38   33.00   1
  18   0  -1  224.98   37.20   1
 -18   0   1  154.08   26.40   1
  18   0   0   76.69   26.40   1
  18   0   0   47.00   26.60   1
 -18   0   0  103.09   24.70   1
 -18   0   0   71.19   32.20   1
 -18   0  -1  -33.20   26.10   1
 -18   0  -1   20.20   23.60   1
 -18   0  -1    7.50   29.20   1
  18   0   1   25.00   26.20   1
  18   0   1   37.30   25.20   1
 -18   0  -2  150.38   35.50   1
 -18   0  -2  137.09   34.80   1
  18   0   2  146.99   29.60   1
 -18   0  -2  151.78   32.40   1
  18   0   2  109.29   32.10   1
 -18   0  -3  178.78   39.20   1
  18   0   3   74.59   29.20   1
  18   0   3  154.88   33.20   1
 -18   0  -3   91.49   28.80   1
 -18   0  -3  110.29   35.30   1
 -18   0  -4  349.27   55.79   1
 -18   0  -4  307.57   50.79   1
  18   0   4  340.57   45.60   1
 -18   0  -4  329.77   43.00   1
  18   0   4  298.37   43.30   1
 -18   0  -5   57.49   33.00   1
 -18   0  -5   22.10   25.30   1
 -18   0  -5   15.90   32.30   1
  18   0   5   33.60   31.90   1
  18   0   5   48.60   28.90   1
  18   0   6   79.79   33.20   1
 -18   0  -6   45.60   33.40   1
 -18   0  -6   -3.00   33.10   1
  18   0   6   64.79   26.90   1
 -18   0  -6   37.70   25.60   1
 -18   0  -7  -10.70   38.70   1
 -18   0  -7   92.49   28.90   1
 -18   0  -7   77.39   39.30   1
  18   0   7   71.49   35.10   1
  18   0   7   35.80   28.10   1
  18   0   8  133.79   44.40   1
 -18   0  -8   77.39   30.30   1
 -18   0  -8  136.89   67.49   1
 -18   1  14  175.68   37.20   1
  18   1 -14  165.38   43.70   1
 -18  -1  14  164.08   37.90   1
  18  -1 -14  193.68   44.40   1
  18   1 -13  363.16   61.49   1
 -18   1  13  302.87   47.60   1
  18   1 -13  239.18   47.70   1
 -18  -1  13  243.08   42.20   1
  18  -1 -13  329.27   49.50   1
  18   1 -12  324.27   61.99   1
 -18   1  12  376.16   49.80   1
  18   1 -12  487.55   59.09   1
  18  -1 -12  450.65   58.49   1
 -18  -1  12  429.26   69.19   1
  18  -1 -12  410.16   58.99   1
 -18  -1  12  404.46   50.89   1
 -18   1  11  125.49   41.00   1
  18   1 -11  116.89   36.90   1
  18   1 -11   53.39   33.40   1
 -18   1  11   78.69   28.80   1
 -18  -1  11   99.19   29.90   1
 -18  -1  11   47.00   42.40   1
  18  -1 -11  126.09   36.80   1
  18  -1 -11  151.78   35.30   1
  18   1 -10  167.88   37.80   1
 -18   1  10  328.07   50.39   1
 -18   1  10  276.17   40.40   1
  18   1 -10  178.68   40.00   1
  18  -1 -10  304.37   49.30   1
 -18  -1  10  201.98   39.20   1
 -18  -1  10  245.08   48.90   1
  18  -1 -10  207.08   40.20   1
  18   1  -9    2.20   28.30   1
  18   1  -9   40.10   31.80   1
 -18   1   9  -22.30   36.00   1
 -18   1   9   38.30   25.20   1
  18  -1  -9   39.80   29.50   1
 -18  -1   9   17.00   21.20   1
  18  -1  -9   54.19   31.30   1
 -18  -1   9   36.40   36.00   1
 -18   1   8   32.80   23.50   1
  18   1  -8   49.99   30.30   1
 -18   1   8   11.30   34.50   1
  18   1  -8   36.70   29.80   1
 -18  -1   8    7.40   23.40   1
  18  -1  -8   75.49   27.60   1
 -18  -1   8   24.00   32.70   1
  18  -1  -8   42.40   29.60   1
  18   1  -7  262.57   48.50   1
 -18   1   7  305.27   39.70   1
 -18   1   7  329.37   53.99   1
  18   1  -7  283.87   46.40   1
  18  -1  -7  270.27   42.70   1
 -18  -1   7  262.37   39.40   1
 -18  -1   7  303.07   51.99   1
  18  -1  -7  289.37   47.20   1
 -18   1   6   80.49   34.20   1
 -18   1   6   28.10   24.90   1
  18   1  -6   77.59   30.90   1
  18   1  -6   51.59   27.80   1
  18  -1  -6   83.29   29.20   1
  18  -1  -6   77.49   26.80   1
 -18  -1   6   48.60   31.10   1
 -18  -1   6   73.39   24.70   1
 -18   1   5  276.57   36.60   1
  18   1  -5  277.17   45.30   1
  18   1  -5  298.77   45.60   1
 -18   1   5  263.47   43.20   1
 -18  -1   5  238.68   37.90   1
  18  -1  -5  262.57   43.00   1
  18  -1  -5  226.48   40.30   1
 -18  -1   5  294.87   44.10   1
 -18   1   4   66.49   32.40   1
  18   1  -4  106.99   30.20   1
  18   1  -4   82.19   33.30   1
 -18   1   4   54.89   21.40   1
  18  -1  -4   31.90   28.80   1
  18  -1  -4   68.79   26.70   1
 -18  -1   4   37.70   29.00   1
 -18   1   3   53.09   21.00   1
  18   1  -3  -27.50   27.00   1
  18   1  -3   11.50   26.70   1
  18   1  -3   28.30   25.20   1
 -18   1   3   11.70   27.90   1
 -18   1   3   -7.50   18.80   1
 -18  -1   3  -39.90   14.70   1
  18  -1  -3   34.70   23.70   1
  18  -1  -3    3.80   26.70   1
 -18  -1   3  -18.70   28.40   1
  18   1  -2   52.59   26.00   1
 -18   1   2   66.69   24.40   1
 -18   1   2   38.30   20.30   1
 -18   1   2   47.60   29.20   1
  18   1  -2   35.70   26.70   1
  18  -1  -2   79.39   32.70   1
 -18  -1   2   -6.60   16.70   1
  18  -1  -2   19.10   26.30   1
 -18  -1   2   61.39   30.60   1
  18   1  -1  106.59   29.60   1
 -18   1   1  191.88   30.00   1
  18   1  -1  105.69   28.30   1
 -18   1   1  185.98   37.40   1
  18  -1  -1  158.38   35.20   1
 -18  -1   1  163.98   26.80   1
  18  -1  -1  128.69   29.80   1
 -18  -1   1  197.38   39.00   1
 -18   1   0   32.30   26.20   1
  18   1   0   21.90   25.40   1
 -18   1   0   39.90   31.60   1
  18   1   0   80.19   26.90   1
 -18  -1   0   42.80   30.50   1
 -18  -1   0  -25.90   27.00   1
  18  -1   0   91.79   28.30   1
  18  -1   0   40.80   26.20   1
 -18  -1   0   12.80   18.00   1
  18   1   1  669.63   65.09   1
 -18   1  -1  742.63   64.29   1
  18   1   1  628.44   64.59   1
 -18   1  -1  693.93   72.09   1
 -18   1  -1  677.23   72.99   1
 -18  -1  -1  636.34   71.09   1
  18  -1   1  626.34   63.59   1
 -18  -1  -1  765.12   58.79   1
 -18  -1  -1  618.94   71.59   1
  18  -1   1  613.84   65.99   1
 -18   1  -2  649.54   60.09   1
  18   1   2  693.63   62.89   1
  18   1   2  603.94   62.99   1
 -18   1  -2  621.94   69.59   1
 -18   1  -2  650.13   70.69   1
  18  -1   2  544.05   62.19   1
 -18  -1  -2  535.95   70.09   1
 -18  -1  -2  641.84   56.79   1
 -18  -1  -2  644.04   70.49   1
  18  -1   2  620.34   61.49   1
  18   1   3  485.85   52.19   1
 -18   1  -3  404.76   58.89   1
  18   1   3  485.95   53.39   1
 -18   1  -3  401.86   58.99   1
 -18   1  -3  431.26   51.19   1
 -18  -1  -3  416.16   45.90   1
  18  -1   3  401.06   52.99   1
 -18  -1  -3  492.05   60.39   1
 -18  -1  -3  435.26   60.79   1
 -18   1  -4  377.06   56.69   1
 -18   1  -4  365.36   55.89   1
  18   1   4  358.06   51.09   1
  18   1   4  347.07   46.10   1
 -18   1  -4  357.06   46.70   1
  18  -1   4  352.26   48.50   1
 -18  -1  -4  381.16   55.89   1
 -18  -1  -4  339.07   57.89   1
  18  -1   4  355.36   49.80   1
 -18  -1  -4  261.37   41.50   1
 -18   1  -5   -6.70   31.90   1
 -18   1  -5   13.30   28.80   1
 -18   1  -5  -11.70   32.80   1
  18   1   5   41.30   32.10   1
  18   1   5   25.50   25.90   1
 -18  -1  -5   30.30   34.60   1
  18  -1   5  -33.10   28.60   1
  18  -1   5   39.90   30.00   1
 -18  -1  -5   10.90   23.30   1
 -18  -1  -5  -22.10   31.10   1
  18   1   6   54.09   34.80   1
 -18   1  -6   68.89   37.90   1
 -18   1  -6   16.80   35.90   1
 -18   1  -6   55.49   31.70   1
  18   1   6   54.19   29.70   1
  18  -1   6   38.10   30.40   1
 -18  -1  -6  122.99   41.70   1
 -18  -1  -6   35.50   26.40   1
  18  -1   6   -9.70   32.00   1
 -18   1  -7  107.19   35.30   1
  18   1   7   81.29   32.00   1
 -18   1  -7  162.88   43.30   1
 -18   1  -7   52.39   38.40   1
 -18  -1  -7   28.40   28.30   1
  18  -1   7   34.20   36.70   1
  18  -1   7   33.70   30.30   1
 -18   1  -8   21.30   41.40   1
 -18   1  -8  -10.50   30.40   1
  18   1   8    7.90   28.90   1
 -18   1  -8  115.79   48.80   1
  18  -1   8  -71.89   36.90   1
 -18  -1  -8   -2.00   29.30   1
  18  -1   8   27.20   29.30   1
  18   2 -12   50.19   40.60   1
  18   2 -12   47.40   35.30   1
 -18   2  12   66.89   30.50   1
 -18  -2  12    9.50   44.50   1
  18  -2 -12   76.99   33.60   1
 -18  -2  12   59.29   31.20   1
  18   2 -11  304.07   51.69   1
 -18   2  11  306.97   45.10   1
 -18  -2  11  239.08   39.80   1
  18  -2 -11  313.77   50.49   1
  18  -2 -11  275.87   47.20   1
 -18  -2  11  276.17   53.49   1
  18   2 -10  280.37   45.80   1
 -18   2  10  239.38   37.70   1
 -18   2  10  210.48   49.20   1
  18   2 -10  338.67   58.99   1
 -18  -2  10  240.18   39.20   1
  18  -2 -10  356.26   56.99   1
 -18  -2  10  208.48   47.90   1
  18  -2 -10  268.97   44.90   1
  18   2  -9  440.16   64.49   1
 -18   2   9  456.85   53.79   1
 -18   2   9  504.15   74.09   1
  18   2  -9  430.46   61.39   1
  18  -2  -9  555.94   56.79   1
 -18  -2   9  494.55   52.99   1
 -18  -2   9  463.05   69.49   1
  18  -2  -9  583.54   64.89   1
 -18   2   8  218.08   33.60   1
  18   2  -8  102.59   33.40   1
  18   2  -8  145.99   38.60   1
 -18   2   8  205.98   44.20   1
  18  -2  -8  156.78   32.30   1
 -18  -2   8  100.19   39.90   1
  18  -2  -8  170.08   38.30   1
 -18  -2   8  174.88   33.10   1
  18   2  -7   76.69   33.80   1
 -18   2   7   32.30   25.70   1
 -18   2   7   20.60   36.90   1
 -18   2   7   99.99   27.20   1
  18   2  -7   39.30   30.10   1
 -18  -2   7   67.89   37.90   1
 -18  -2   7   57.09   23.50   1
  18  -2  -7   88.89   31.00   1
  18  -2  -7   60.39   32.80   1
 -18   2   6    8.40   21.60   1
  18   2  -6   41.20   30.10   1
 -18   2   6   51.39   37.10   1
  18   2  -6   32.80   24.60   1
 -18   2   6    4.80   27.80   1
  18   2  -6   62.79   34.50   1
 -18  -2   6   63.09   32.80   1
 -18  -2   6   70.09   26.80   1
  18  -2  -6   33.60   29.80   1
  18  -2  -6   57.79   28.50   1
 -18   2   5   49.90   34.50   1
 -18   2   5   42.70   28.30   1
  18   2  -5   22.50   25.40   1
  18   2  -5   51.09   33.70   1
 -18   2   5   12.60   22.10   1
  18   2  -5   -5.20   27.10   1
  18  -2  -5   -9.30   25.70   1
 -18  -2   5   27.60   32.70   1
  18  -2  -5   -7.80   30.10   1
 -18   2   4   64.99   25.60   1
 -18   2   4   79.69   31.00   1
  18   2  -4   30.20   27.10   1
  18   2  -4   72.39   32.50   1
 -18   2   4  104.59   37.10   1
 -18  -2   4   91.99   35.30   1
  18  -2  -4   57.49   33.00   1
  18  -2  -4   64.69   28.80   1
 -18   2   3  481.15   51.49   1
  18   2  -3  560.84   56.69   1
 -18   2   3  643.14   57.29   1
 -18   2   3  521.25   64.09   1
  18   2  -3  472.75   60.09   1
  18  -2  -3  510.45   56.39   1
  18  -2  -3  449.46   62.89   1
 -18  -2   3  497.05   64.69   1
 -18   2   2  335.77   43.60   1
 -18   2   2  454.25   60.29   1
  18   2  -2  338.97   53.49   1
 -18   2   2  529.95   52.89   1
  18   2  -2  330.07   50.89   1
  18  -2  -2  541.65   59.89   1
 -18  -2   2  382.76   59.79   1
 -18  -2   2  361.16   61.09   1
  18  -2  -2  457.95   50.79   1
 -18   2   1  300.97   47.70   1
  18   2  -1  360.26   50.49   1
 -18   2   1  311.37   40.90   1
 -18   2   1  329.27   54.89   1
  18   2  -1  337.67   46.50   1
  18  -2  -1  303.17   55.09   1
 -18  -2   1  331.77   58.79   1
 -18  -2   1  398.56   47.80   1
 -18  -2   1  331.37   56.99   1
  18  -2  -1  400.16   48.30   1
 -18   2   0  279.87   38.90   1
 -18   2   0  340.97   45.70   1
  18   2   0  287.37   42.30   1
  18   2   0  311.57   48.70   1
 -18   2   0  232.88   42.80   1
  18  -2   0  284.37   46.50   1
 -18  -2   0  331.37   55.59   1
 -18  -2   0  273.47   48.00   1
 -18  -2   0  259.77   37.70   1
  18   2   1  252.17   40.50   1
 -18   2  -1  326.67   53.69   1
 -18   2  -1  322.97   47.80   1
  18   2   1  318.17   51.39   1
 -18  -2  -1  285.37   43.50   1
 -18  -2  -1  243.88   48.40   1
 -18  -2  -1  182.88   44.10   1
  18  -2   1  400.06   48.20   1
  18   2   2  143.39   36.20   1
 -18   2  -2  179.98   38.10   1
  18   2   2  163.28   32.80   1
 -18   2  -2  142.89   40.30   1
 -18   2  -2  117.69   40.50   1
 -18  -2  -2  288.07   41.80   1
 -18  -2  -2  118.79   38.10   1
 -18  -2  -2  164.88   40.30   1
  18  -2   2  154.08   37.70   1
  18   2   3  201.18   36.00   1
 -18   2  -3  216.28   41.10   1
 -18   2  -3  239.58   43.40   1
  18   2   3  267.57   42.80   1
 -18   2  -3  177.58   43.90   1
  18  -2   3  170.78   39.60   1
 -18  -2  -3  275.67   47.90   1
 -18  -2  -3  189.38   37.40   1
  18  -2   3  247.68   41.00   1
 -18  -2  -3  200.28   44.80   1
 -18   2  -4  350.36   60.59   1
  18   2   4  354.46   57.99   1
 -18   2  -4  449.36   55.99   1
  18   2   4  318.37   49.30   1
 -18   2  -4  400.36   60.79   1
 -18  -2  -4  373.16   49.50   1
 -18  -2  -4  289.87   57.89   1
  18  -2   4  338.87   51.49   1
  18  -2   4  235.68   45.60   1
 -18  -2  -4  384.86   60.59   1
 -18   2  -5  251.87   46.90   1
  18   2   5  313.87   60.49   1
 -18   2  -5  385.16   64.09   1
 -18   2  -5  404.56   63.89   1
  18  -2   5  391.96   60.09   1
 -18  -2  -5  348.07   52.19   1
  18  -2   5  316.07   50.49   1
 -18   2  -6  426.06   62.19   1
 -18   2  -6  494.15   72.59   1
 -18   2  -6  305.77   54.69   1
  18   2   6  429.36   52.69   1
  18  -2   6  455.65   64.29   1
 -18  -2  -6  546.25   58.09   1
  18  -2   6  351.66   57.39   1
  18  -2   7  314.37   53.09   1
  18  -3 -10  188.38   48.20   1
 -18   3   9   91.89   40.60   1
  18   3  -9   22.80   40.20   1
  18   3  -9   93.79   45.30   1
 -18   3   9   33.30   44.90   1
 -18   3   9   90.29   33.80   1
  18  -3  -9   92.59   40.40   1
 -18  -3   9   69.79   29.70   1
 -18  -3   9  103.79   47.70   1
 -18   3   8  274.97   45.90   1
  18   3  -8  235.88   52.69   1
  18   3  -8  165.08   47.70   1
 -18   3   8  201.28   51.29   1
 -18  -3   8  277.87   42.60   1
  18  -3  -8  358.46   58.49   1
  18  -3  -8  315.37   50.79   1
 -18  -3   8  369.26   63.79   1
 -18   3   7   36.60   27.70   1
  18   3  -7   24.90   38.40   1
 -18   3   7   35.50   44.40   1
 -18  -3   7  -33.80   21.70   1
  18  -3  -7  -14.40   31.20   1
 -18  -3   7   13.90   40.50   1
  18  -3  -7   20.30   36.40   1
 -18   3   6   87.79   30.60   1
  18   3  -6   65.69   37.50   1
 -18   3   6   76.79   38.40   1
 -18   3   6   47.40   44.00   1
 -18  -3   6  118.19   40.50   1
  18  -3  -6   84.49   38.00   1
  18  -3  -6   14.40   31.70   1
 -18  -3   6  136.99   31.30   1
 -18   3   5  361.36   51.69   1
  18   3  -5  429.96   52.69   1
 -18   3   5  400.76   72.59   1
 -18   3   5  597.74   59.49   1
  18   3  -5  446.66   63.09   1
  18  -3  -5  444.96   64.69   1
 -18  -3   5  552.24   68.39   1
  18  -3  -5  408.36   56.69   1
 -18   3   4   27.70   41.00   1
  18   3  -4  101.09   35.10   1
 -18   3   4   56.59   37.60   1
 -18   3   4   30.60   23.50   1
  18   3  -4   67.49   30.50   1
 -18  -3   4   71.59   40.30   1
  18  -3  -4   82.89   32.70   1
 -18  -3   4   99.79   40.10   1
  18  -3  -4   56.19   39.20   1
  18   3  -3  155.38   38.10   1
 -18   3   3  155.88   32.20   1
  18   3  -3   90.69   33.90   1
 -18   3   3  115.59   44.80   1
  18   3  -3  187.08   41.50   1
 -18   3   3  184.88   43.70   1
  18  -3  -3  239.08   44.90   1
  18  -3  -3  158.78   37.80   1
 -18  -3   3   63.39   42.10   1
 -18  -3   3  174.98   44.40   1
 -18   3   2   94.19   38.60   1
  18   3  -2   98.69   33.80   1
 -18   3   2   44.50   26.90   1
  18   3  -2   51.39   32.20   1
  18   3  -2   30.50   34.10   1
 -18   3   2   29.70   38.60   1
 -18  -3   2   19.80   38.10   1
  18  -3  -2   98.69   40.80   1
 -18  -3   2   12.80   37.20   1
  18  -3  -2   32.00   33.20   1
 -18   3   1  109.09   40.90   1
  18   3  -1   50.19   36.10   1
  18   3  -1   73.89   37.60   1
 -18   3   1   75.89   28.00   1
  18   3  -1   41.70   31.30   1
 -18   3   1   85.79   36.90   1
  18  -3  -1   88.89   40.40   1
  18  -3  -1   39.90   33.70   1
 -18  -3   1   94.79   42.10   1
 -18  -3   1   27.50   40.20   1
  18   3   0   16.00   36.50   1
 -18   3   0   40.90   40.90   1
  18   3   0   16.80   33.80   1
 -18   3   0  -14.90   33.60   1
 -18   3   0   12.10   24.60   1
  18   3   0  -35.10   26.00   1
 -18  -3   0   43.30   39.50   1
 -18  -3   0   55.19   39.00   1
  18  -3   0  -49.70   30.00   1
 -18   3  -1  210.08   45.70   1
  18   3   1  240.48   46.90   1
  18   3   1  192.78   39.00   1
 -18   3  -1  238.28   48.30   1
 -18   3  -1  242.28   38.30   1
 -18   3  -1  266.37   50.89   1
 -18  -3  -1  174.78   47.20   1
  18  -3   1  165.38   39.90   1
 -18  -3  -1  246.18   53.79   1
  18   3   2   14.10   42.00   1
 -18   3  -2   93.69   39.40   1
  18   3   2   -2.90   28.20   1
 -18   3  -2   48.40   36.50   1
 -18   3  -2   -0.40   40.60   1
 -18   3  -2   65.99   24.70   1
  18  -3   2   25.90   40.30   1
 -18  -3  -2    4.10   41.90   1
  18   3   3  -66.99   40.50   1
 -18   3  -3    5.40   32.30   1
 -18   3  -3   64.19   42.40   1
  18   3   3   -1.60   35.50   1
 -18   3  -3   52.79   45.10   1
 -18   3  -3   35.40   24.30   1
 -18  -3  -3   90.89   36.80   1
 -18   3  -4   90.29   44.50   1
  18  -3   4   28.70   40.00   1
 -19   0  14   -3.40   27.60   1
  19   0 -14   24.20   41.40   1
 -19   0  13    8.90   25.80   1
  19   0 -13  -12.30   31.60   1
  19   0 -12    6.60   35.40   1
 -19   0  12   32.50   25.90   1
  19   0 -12   17.60   32.50   1
 -19   0  11   -9.10   22.90   1
  19   0 -11   20.20   30.50   1
 -19   0  11   13.10   37.10   1
  19   0 -11   10.90   31.20   1
 -19   0  10    6.20   22.20   1
  19   0 -10   29.80   29.10   1
  19   0 -10   47.10   33.60   1
 -19   0  10    2.20   36.10   1
 -19   0   9   39.00   33.90   1
  19   0  -9  -25.00   28.00   1
 -19   0   9  -24.20   20.60   1
  19   0  -9  -34.10   27.10   1
 -19   0   8   37.10   22.70   1
  19   0  -8   29.50   29.60   1
 -19   0   8   28.00   34.00   1
  19   0  -8   43.40   29.90   1
  19   0  -7   53.99   28.90   1
 -19   0   7    7.60   22.20   1
  19   0  -7   11.20   27.50   1
 -19   0   7   41.20   31.90   1
  19   0  -6  -36.10   28.00   1
 -19   0   6   65.89   32.10   1
  19   0  -6   30.50   26.50   1
 -19   0   6   32.60   23.50   1
 -19   0   5   44.10   26.40   1
  19   0  -5   31.80   25.80   1
 -19   0   5   39.70   31.70   1
  19   0  -5   15.90   28.20   1
 -19   0   4   38.00   31.90   1
  19   0  -4   37.00   29.30   1
 -19   0   4   21.10   22.50   1
  19   0  -4   31.10   27.10   1
  19   0  -3   24.60   26.90   1
 -19   0   3   78.49   32.20   1
  19   0  -3   14.00   31.40   1
 -19   0   2   34.70   31.30   1
  19   0  -2   -9.50   28.00   1
  19   0  -2    7.30   25.60   1
 -19   0   2   56.69   19.90   1
  19   0  -1   90.89   27.20   1
 -19   0   1   59.29   33.10   1
  19   0  -1   38.80   29.90   1
 -19   0   1   57.59   22.40   1
 -19   0   0   28.50   25.20   1
  19   0   0  -11.90   25.30   1
 -19   0   0   11.30   30.20   1
  19   0   0   -4.30   26.70   1
  19   0   1   -9.50   27.50   1
 -19   0  -1   -4.20   29.90   1
  19   0   1   42.20   26.20   1
 -19   0  -1   33.20   24.70   1
 -19   0  -1   13.20   29.70   1
 -19   0  -2   39.10   29.60   1
  19   0   2   39.30   26.20   1
 -19   0  -2    6.60   32.10   1
  19   0   2   21.10   27.30   1
 -19   0  -2   30.70   30.70   1
 -19   0  -3    8.90   30.60   1
 -19   0  -3   22.20   27.30   1
 -19   0  -3  -15.40   31.50   1
  19   0   3    9.40   25.20   1
  19   0   3   -2.90   27.10   1
 -19   0  -4   18.10   31.30   1
 -19   0  -4   -4.90   27.40   1
  19   0   4  -25.60   27.70   1
  19   0   4   14.90   28.20   1
 -19   0  -4   14.60   33.00   1
 -19   0  -5   -0.10   27.00   1
 -19   0  -5   21.80   33.50   1
  19   0   5  -13.30   29.30   1
 -19   0  -5  -24.10   32.50   1
  19   0   5   -6.10   26.90   1
 -19   0  -6   19.90   39.50   1
 -19   0  -6   62.79   36.20   1
  19   0   6  -25.10   26.70   1
 -19   0  -6   44.90   29.30   1
  19   0   6  -25.20   32.30   1
 -19   0  -7    2.00   28.20   1
  19   0   7  -32.40   36.20   1
 -19   1  13   51.09   27.80   1
  19   1 -13   -0.40   34.70   1
 -19  -1  13   32.80   32.90   1
  19  -1 -13   59.39   36.20   1
 -19   1  12   54.49   40.80   1
  19   1 -12   27.20   36.10   1
  19   1 -12   16.60   36.20   1
 -19  -1  12   -3.30   26.20   1
  19  -1 -12   12.80   33.00   1
 -19   1  11  -24.80   26.30   1
  19   1 -11   44.20   34.20   1
 -19   1  11  -57.79   39.80   1
  19   1 -11   16.10   34.20   1
 -19  -1  11  -47.90   39.10   1
  19  -1 -11   -4.20   29.20   1
  19  -1 -11  -42.50   31.70   1
 -19  -1  11  -35.10   23.90   1
 -19   1  10   12.50   23.50   1
  19   1 -10   53.39   34.40   1
  19   1 -10  -17.50   27.40   1
 -19   1  10   19.00   37.50   1
 -19  -1  10   20.70   25.80   1
 -19  -1  10    6.00   36.20   1
  19  -1 -10   34.70   32.60   1
  19  -1 -10   -6.00   27.70   1
 -19   1   9   65.39   26.70   1
 -19   1   9   49.50   38.90   1
  19   1  -9   38.90   29.70   1
  19   1  -9   55.49   33.30   1
 -19  -1   9   54.29   37.30   1
  19  -1  -9   66.79   31.80   1
  19  -1  -9   63.09   29.70   1
 -19  -1   9   52.09   25.40   1
  19   1  -8    5.40   30.40   1
  19   1  -8    3.50   26.20   1
 -19   1   8   49.70   36.00   1
 -19   1   8   23.10   25.20   1
  19  -1  -8   39.90   27.80   1
 -19  -1   8    9.20   34.50   1
  19  -1  -8  -28.60   26.80   1
 -19  -1   8   45.60   24.20   1
  19   1  -7    2.70   26.50   1
  19   1  -7   34.60   29.10   1
 -19   1   7   -2.50   19.70   1
 -19   1   7   17.70   32.50   1
  19  -1  -7  -14.00   26.10   1
 -19  -1   7   19.90   31.70   1
  19  -1  -7  -20.10   27.10   1
 -19  -1   7    6.10   22.40   1
 -19   1   6    1.20   21.00   1
  19   1  -6   -4.80   25.30   1
  19   1  -6   -5.60   28.80   1
 -19   1   6   21.90   31.40   1
 -19  -1   6   13.80   30.30   1
  19  -1  -6  -19.70   28.30   1
 -19  -1   6   23.40   25.50   1
  19  -1  -6  -10.00   27.10   1
 -19   1   5   19.00   21.90   1
  19   1  -5   10.50   26.30   1
  19   1  -5  -24.20   28.00   1
 -19   1   5   15.40   30.80   1
 -19  -1   5  -10.00   30.00   1
  19  -1  -5   25.70   25.50   1
 -19  -1   5   26.20   22.30   1
  19  -1  -5    0.70   28.20   1
  19   1  -4   42.40   28.30   1
 -19   1   4  -30.10   29.70   1
 -19   1   4   17.50   19.90   1
  19   1  -4   23.20   29.10   1
  19  -1  -4   65.69   30.80   1
  19  -1  -4  -14.20   25.40   1
 -19  -1   4   36.70   30.10   1
 -19   1   3   71.49   36.50   1
  19   1  -3   11.00   29.90   1
  19   1  -3   14.60   28.40   1
 -19   1   3    4.90   27.60   1
  19   1  -3   54.89   26.90   1
 -19   1   3   44.90   21.90   1
  19  -1  -3  -24.70   28.00   1
  19  -1  -3   38.50   25.50   1
 -19  -1   3   25.30   37.40   1
 -19  -1   3  -23.50   28.40   1
 -19   1   2    3.90   21.40   1
 -19   1   2  -16.80   24.00   1
  19   1  -2   -8.20   23.20   1
 -19   1   2   31.70   29.90   1
  19   1  -2    3.00   27.20   1
 -19  -1   2    3.10   30.20   1
  19  -1  -2   14.70   24.20   1
  19  -1  -2   17.60   30.70   1
 -19  -1   2   13.10   20.00   1
 -19   1   1   -4.70   26.70   1
  19   1  -1   12.70   26.90   1
  19   1  -1   19.30   26.50   1
 -19   1   1   56.89   30.30   1
 -19  -1   1   27.90   20.50   1
  19  -1  -1   23.80   26.60   1
  19  -1  -1   35.00   32.40   1
 -19  -1   1    5.20   33.10   1
  19   1   0    2.00   28.50   1
 -19   1   0  -10.10   29.60   1
 -19   1   0   39.50   27.50   1
  19   1   0   14.40   26.60   1
 -19  -1   0   52.79   32.80   1
 -19  -1   0   19.70   21.90   1
  19  -1   0   22.90   27.70   1
  19  -1   0    7.60   28.10   1
 -19  -1   0  -20.90   30.00   1
  19   1   1   18.60   26.10   1
 -19   1  -1   37.10   31.90   1
 -19   1  -1    6.70   30.50   1
  19   1   1   57.59   27.50   1
 -19   1  -1   10.80   27.30   1
  19  -1   1    9.50   27.70   1
  19  -1   1   10.60   26.90   1
 -19  -1  -1   71.19   22.80   1
 -19  -1  -1   48.10   34.00   1
 -19  -1  -1   33.80   30.20   1
  19   1   2   21.60   27.70   1
 -19   1  -2  -23.30   31.30   1
  19   1   2   -1.30   27.70   1
 -19   1  -2   38.30   28.70   1
 -19   1  -2   36.00   31.80   1
 -19  -1  -2  -14.50   33.80   1
  19  -1   2   15.50   29.40   1
 -19  -1  -2   37.70   23.50   1
 -19  -1  -2  -23.60   30.70   1
  19  -1   2   56.39   31.10   1
  19   1   3   66.49   29.70   1
 -19   1  -3   54.79   34.40   1
  19   1   3   23.50   30.40   1
 -19   1  -3   37.50   29.40   1
 -19   1  -3  129.89   37.50   1
  19  -1   3   93.49   34.30   1
 -19  -1  -3   82.89   27.30   1
  19  -1   3   70.39   30.70   1
 -19  -1  -3   64.39   34.10   1
 -19  -1  -3  105.89   40.00   1
  19   1   4   -4.80   32.10   1
 -19   1  -4   48.50   29.50   1
  19   1   4   49.60   26.10   1
 -19   1  -4   59.39   34.80   1
 -19   1  -4   79.89   37.40   1
 -19  -1  -4   73.29   33.90   1
 -19  -1  -4   54.79   35.00   1
  19  -1   4   30.50   29.60   1
 -19  -1  -4   39.20   26.10   1
  19  -1   4   41.20   30.70   1
  19   1   5   35.50   28.60   1
 -19   1  -5  -38.40   29.00   1
  19   1   5   34.20   35.20   1
 -19   1  -5   29.70   34.50   1
 -19   1  -5  -52.09   34.10   1
 -19  -1  -5   -4.00   25.50   1
 -19  -1  -5  -29.00   34.20   1
  19  -1   5   19.90   32.80   1
  19  -1   5   27.70   31.20   1
 -19   1  -6  -64.79   34.90   1
 -19   1  -6   24.40   32.20   1
  19   1   6   39.70   30.30   1
  19   1   6  -88.69   35.10   1
 -19   1  -6  -18.80   37.20   1
  19  -1   6  -35.70   31.80   1
 -19  -1  -6   18.60   28.00   1
  19  -1   6  -20.60   27.10   1
 -19   1  -7   62.59   45.70   1
 -19   1  -7   35.90   42.60   1
  19   1   7  -30.80   27.60   1
 -19   1  -7   29.30   32.80   1
  19  -1   7   18.10   32.20   1
  19  -1   7   77.99   37.20   1
 -19  -1  -7   27.00   30.50   1
  19   2 -12  -21.20   31.50   1
 -19   2  12   -2.70   27.40   1
 -19  -2  12   15.90   26.20   1
 -19   2  11  -18.20   39.70   1
  19   2 -11   24.70   34.90   1
  19   2 -11   30.40   39.50   1
 -19  -2  11  -39.10   46.50   1
  19  -2 -11  -21.10   31.30   1
 -19  -2  11   43.10   24.50   1
 -19   2  10   39.90   47.40   1
 -19   2  10   10.40   26.70   1
  19   2 -10   39.50   36.70   1
  19   2 -10   -8.60   64.39   1
  19  -2 -10    3.00   35.60   1
  19  -2 -10   71.09   34.10   1
 -19  -2  10  -62.89   39.20   1
 -19  -2  10   32.50   25.80   1
  19   2  -9   34.80   32.70   1
  19   2  -9  122.19   37.20   1
 -19   2   9   24.00   27.30   1
 -19   2   9  -18.60   40.30   1
  19  -2  -9   83.79   31.50   1
 -19  -2   9   54.59   42.40   1
 -19  -2   9   45.30   27.10   1
  19  -2  -9   17.40   34.00   1
  19   2  -8    3.30   30.90   1
 -19   2   8    8.30   23.70   1
 -19   2   8   12.00   39.00   1
  19   2  -8   -0.60   30.20   1
  19  -2  -8   -1.60   32.60   1
 -19  -2   8  -22.70   20.90   1
  19  -2  -8   41.70   28.50   1
 -19  -2   8  -39.20   36.20   1
  19   2  -7   59.39   34.80   1
 -19   2   7   54.49   28.70   1
 -19   2   7    1.70   37.30   1
  19   2  -7  -11.00   27.80   1
 -19  -2   7   19.40   24.00   1
 -19  -2   7   35.50   38.00   1
  19  -2  -7   19.50   28.30   1
  19  -2  -7   49.30   33.10   1
  19   2  -6   -5.30   32.90   1
 -19   2   6   41.00   36.60   1
 -19   2   6  -25.30   18.80   1
  19   2  -6    7.90   30.60   1
 -19  -2   6    1.80   23.00   1
 -19  -2   6    7.20   33.70   1
  19  -2  -6   -9.30   26.30   1
  19   2  -5   38.00   31.40   1
 -19   2   5   -2.60   29.10   1
 -19   2   5   34.40   25.70   1
 -19   2   5  -41.10   34.10   1
  19   2  -5   73.89   34.20   1
 -19  -2   5  -10.90   33.40   1
 -19  -2   5    5.20   22.80   1
  19  -2  -5   21.20   28.20   1
  19  -2  -5  -16.10   32.40   1
 -19   2   4  -54.49   29.50   1
  19   2  -4    6.10   27.50   1
 -19   2   4   22.70   34.50   1
 -19   2   4   11.90   22.50   1
  19  -2  -4   13.20   32.70   1
  19  -2  -4   10.20   27.90   1
 -19  -2   4    8.70   34.80   1
 -19   2   3   16.10   20.80   1
  19   2  -3   37.70   31.00   1
 -19   2   3   -3.90   32.60   1
  19   2  -3   43.20   29.10   1
 -19   2   3   65.19   33.40   1
  19  -2  -3   68.79   34.50   1
  19  -2  -3   26.70   27.60   1
 -19  -2   3   84.49   33.00   1
 -19  -2   3   27.40   35.50   1
  19   2  -2  -25.20   27.90   1
 -19   2   2   45.60   31.80   1
 -19   2   2   17.30   21.20   1
  19   2  -2   -0.90   29.60   1
 -19   2   2  -38.70   32.80   1
  19  -2  -2   32.00   28.80   1
 -19  -2   2   14.30   36.40   1
  19  -2  -2   43.20   33.70   1
 -19  -2   2   59.39   28.10   1
 -19  -2   2   -3.70   33.60   1
 -19   2   1   13.30   22.70   1
  19   2  -1  -12.10   26.50   1
  19   2  -1    9.80   29.50   1
 -19   2   1    3.80   33.20   1
  19  -2  -1   41.30   34.30   1
 -19  -2   1   38.80   34.40   1
 -19  -2   1   52.09   35.20   1
  19  -2  -1   24.30   28.10   1
 -19   2   0   47.70   31.30   1
  19   2   0  116.29   32.90   1
  19   2   0   84.29   31.80   1
 -19   2   0   13.90   20.50   1
 -19   2   0  -26.20   31.30   1
 -19  -2   0   35.80   27.70   1
 -19  -2   0   10.30   32.50   1
 -19  -2   0   67.59   37.20   1
  19  -2   0   49.60   30.70   1
 -19   2  -1    7.30   33.40   1
  19   2   1   69.39   32.20   1
 -19   2  -1   -0.30   32.70   1
  19   2   1  -18.90   26.00   1
 -19   2  -1   13.70   35.90   1
 -19  -2  -1  -30.60   28.90   1
  19  -2   1  -38.10   28.50   1
 -19  -2  -1  -16.90   36.40   1
 -19  -2  -1   65.49   39.00   1
  19   2   2   27.20   30.10   1
 -19   2  -2   32.90   32.40   1
 -19   2  -2   30.20   36.10   1
  19   2   2   -9.50   31.00   1
 -19   2  -2   90.19   37.10   1
 -19  -2  -2   19.60   37.20   1
  19  -2   2    3.60   30.60   1
 -19  -2  -2   -3.60   33.90   1
 -19  -2  -2   90.19   31.50   1
 -19   2  -3   40.10   39.60   1
 -19   2  -3  -26.60   32.10   1
 -19   2  -3   25.20   37.00   1
  19   2   3   57.69   36.30   1
  19   2   3    5.20   27.60   1
 -19  -2  -3   48.50   33.40   1
  19  -2   3   32.20   33.20   1
  19  -2   3   39.80   31.80   1
 -19  -2  -3   47.90   36.90   1
 -19   2  -4   15.20   38.90   1
 -19   2  -4   -2.60   39.30   1
  19   2   4  120.89   38.10   1
  19   2   4   40.70   33.40   1
 -19   2  -4   41.70   34.10   1
  19  -2   4   83.59   36.50   1
 -19  -2  -4   60.49   36.90   1
  19  -2   4   12.50   33.30   1
 -19   2  -5    5.80   33.40   1
  19   2   5   35.70   60.99   1
 -19   2  -5   35.10   42.00   1
  19   2   5   50.69   30.40   1
 -19   2  -5  -25.00   40.20   1
  19  -2   5   32.10   36.00   1
  19  -2   5   69.89   36.10   1
 -19  -2  -5   99.59   36.80   1
  19  -2   6   22.70   37.00   1
  19   3  -8   -3.30   36.30   1
  19   3  -8   23.10   40.90   1
 -19   3   8  -45.20   45.70   1
 -19   3   8   26.10   27.00   1
 -19  -3   8  119.89   48.10   1
  19  -3  -8    4.30   32.70   1
 -19  -3   8   29.00   26.60   1
  19  -3  -8   83.19   40.20   1
 -19   3   7   96.69   49.20   1
  19   3  -7  109.89   39.90   1
 -19   3   7  126.79   32.10   1
 -19  -3   7   83.69   30.70   1
  19  -3  -7   86.79   36.20   1
  19  -3  -7  118.69   41.20   1
 -19  -3   7  163.18   47.60   1
 -19   3   6   18.20   24.50   1
 -19   3   6  -23.10   41.30   1
  19  -3  -6  -13.60   37.50   1
 -19  -3   6   42.10   39.20   1
  19  -3  -6    1.70   35.30   1
 -19  -3   6   20.20   24.30   1
 -19   3   5  -20.70   42.30   1
  19   3  -5   39.40   37.10   1
 -19   3   5   -0.50   25.70   1
  19  -3  -5  -39.10   39.50   1
  19  -3  -5   52.69   44.40   1
 -19  -3   5   62.69   40.50   1
 -19  -3   5   33.90   24.90   1
 -19   3   4    4.30   42.90   1
  19   3  -4   29.80   36.60   1
 -19   3   4  -31.60   36.80   1
 -19   3   4    9.00   25.20   1
  19   3  -4   39.30   32.60   1
  19  -3  -4   -9.60   47.60   1
 -19  -3   4  -18.20   39.30   1
 -19  -3   4    1.40   38.80   1
  19  -3  -4  -19.80   37.50   1
  19   3  -3   27.00   29.50   1
 -19   3   3    9.70   24.70   1
  19   3  -3   72.89   37.50   1
 -19   3   3   38.10   42.50   1
  19   3  -3   26.00   35.60   1
 -19   3   3   84.99   39.90   1
  19  -3  -3   95.69   38.90   1
 -19  -3   3  -14.80   38.30   1
 -19  -3   3   36.00   40.70   1
  19   3  -2   41.10   35.30   1
  19   3  -2   32.90   35.70   1
 -19   3   2   44.20   27.00   1
 -19   3   2   49.60   40.00   1
  19   3  -2   14.40   32.80   1
 -19   3   2   39.20   37.40   1
  19  -3  -2   31.50   42.20   1
 -19  -3   2   31.50   41.80   1
 -19  -3   2  -22.10   39.40   1
  19   3  -1    0.00   35.20   1
 -19   3   1   32.70   43.70   1
  19   3  -1   14.60   32.00   1
  19   3  -1   34.20   36.30   1
 -19   3   1   44.50   27.10   1
  19  -3  -1   76.99   43.10   1
  19  -3  -1   51.69   52.09   1
 -19  -3   1  -21.30   39.20   1
 -19  -3   1   23.30   40.60   1
 -19   3   0   10.00   39.20   1
 -19   3   0   -6.20   35.40   1
 -19   3   0    1.20   26.00   1
  19   3   0   19.50   38.50   1
  19   3   0  -30.40   29.30   1
 -19  -3   0   54.29   41.00   1
  19  -3   0   -6.40   33.80   1
 -19   3  -1   75.19   47.10   1
  19   3   1   66.89   40.90   1
  19   3   1   78.39   39.80   1
 -19   3  -1   84.79   28.10   1
 -19   3  -1  102.79   43.10   1
 -19   3  -1  111.29   40.00   1
 -19  -3  -1   60.89   71.79   1
  19  -3   1   36.80   33.10   1
  19   3   2   53.59   34.80   1
 -19   3  -2   73.39   42.30   1
  19   3   2   69.69   45.00   1
 -19   3  -2   57.09   40.40   1
 -19   3  -2   85.09   27.70   1
 -19   3  -2   11.40   44.10   1
 -19  -3  -2   41.60   37.10   1
  19  -3   2   70.09   38.60   1
  20   0 -13  199.98   44.00   1
 -20   0  13  190.28   35.70   1
 -20   0  12    9.80   27.80   1
  20   0 -12   19.70   40.10   1
  20   0 -11  205.88   45.60   1
  20   0 -11  186.18   39.90   1
 -20   0  11  125.79   31.40   1
 -20   0  10    5.30   21.80   1
 -20   0  10   49.80   40.70   1
  20   0 -10    1.10   30.60   1
  20   0 -10   48.50   31.20   1
 -20   0   9 1111.19   94.09   1
 -20   0   9 1087.89  104.89   1
  20   0  -9 1211.08   97.99   1
  20   0  -9 1063.69   99.29   1
  20   0  -8  -15.30   28.40   1
 -20   0   8  -31.60   21.30   1
 -20   0   8   15.20   37.90   1
  20   0  -8  -11.80   29.10   1
 -20   0   7   62.79   26.90   1
  20   0  -7   64.99   30.50   1
  20   0  -7   51.39   33.80   1
 -20   0   7   65.59   35.40   1
 -20   0   6  -38.20   21.70   1
  20   0  -6   30.80   27.40   1
  20   0  -6   49.10   31.50   1
 -20   0   6   11.00   34.70   1
  20   0  -5   25.80   26.30   1
  20   0  -5   43.70   31.60   1
 -20   0   5   11.50   32.10   1
 -20   0   5    7.20   24.00   1
  20   0  -4  285.27   47.00   1
 -20   0   4  259.87   40.60   1
  20   0  -4  334.87   53.39   1
 -20   0   4  329.97   53.89   1
  20   0  -3   48.20   29.60   1
 -20   0   3   79.79   33.40   1
  20   0  -3  118.89   35.00   1
  20   0  -2  278.77   48.90   1
  20   0  -2  352.16   57.79   1
 -20   0   2  504.85   59.29   1
  20   0  -1  142.59   31.80   1
  20   0  -1  115.79   32.60   1
 -20   0   1   80.19   25.50   1
 -20   0   1  104.49   37.70   1
  20   0   0   29.50   29.50   1
 -20   0   0   80.49   39.90   1
 -20   0   0   59.29   36.10   1
 -20   0   0   57.49   33.90   1
  20   0   0   33.90   28.10   1
 -20   0  -1  525.85   65.29   1
 -20   0  -1  588.24   56.29   1
 -20   0  -1  467.25   66.39   1
  20   0   1  558.94   57.39   1
  20   0   1  437.86   56.19   1
  20   0   2   71.79   30.50   1
 -20   0  -2   -1.70   25.60   1
 -20   0  -2   -5.60   33.10   1
 -20   0  -2    8.30   29.50   1
  20   0   2  -34.20   27.00   1
 -20   0  -3   74.29   30.00   1
  20   0   3   17.50   29.50   1
  20   0   3   31.70   27.90   1
 -20   0  -3  -15.70   33.20   1
 -20   0  -3   13.50   34.10   1
  20   0   4  -16.20   25.30   1
  20   0   4   -4.70   31.00   1
 -20   0  -4  -21.10   31.90   1
 -20   0  -4    1.60   35.50   1
 -20   0  -4  -17.30   29.10   1
 -20   0  -5  -21.80   28.20   1
  20   0   5  -25.90   33.60   1
 -20   0  -5  -10.50   34.80   1
  20   0   5   11.00   29.80   1
  20   0   6  -20.00   36.00   1
  20   0   6   77.19   50.49   1
 -20   0  -6   59.79   31.40   1
  20   1 -12  127.69   38.40   1
 -20   1  12  150.68   33.10   1
 -20  -1  12  144.29   37.30   1
  20   1 -11   55.09   37.70   1
 -20  -1  11   43.10   27.30   1
  20  -1 -11    4.70   31.20   1
  20   1 -10  930.31   94.29   1
  20   1 -10  910.51   97.09   1
 -20   1  10 1056.59   90.59   1
 -20   1  10 1035.60  122.59   1
  20  -1 -10 1246.48   93.29   1
 -20  -1  10 1053.89  101.89   1
 -20  -1  10  992.40   90.19   1
  20  -1 -10 1175.48   98.79   1
  20   1  -9  148.09   38.00   1
 -20   1   9  125.29   44.90   1
 -20   1   9  167.98   34.30   1
  20   1  -9  129.69   37.90   1
 -20  -1   9  118.49   42.00   1
  20  -1  -9  149.29   35.40   1
  20  -1  -9  145.79   39.90   1
 -20  -1   9   97.59   29.50   1
  20   1  -8  888.41   84.39   1
 -20   1   8  978.30   91.49   1
 -20   1   8  907.31   80.59   1
  20   1  -8  896.01   88.09   1
 -20  -1   8  888.71   91.99   1
  20  -1  -8  994.20   81.79   1
 -20  -1   8  843.82   80.79   1
  20  -1  -8  968.80   87.69   1
 -20   1   7  191.68   43.00   1
 -20   1   7  137.19   28.40   1
  20   1  -7  139.29   36.60   1
  20   1  -7  154.68   35.60   1
 -20  -1   7  123.59   32.70   1
  20  -1  -7  262.97   41.60   1
 -20  -1   7  167.98   42.30   1
  20  -1  -7  104.09   36.40   1
 -20   1   6  111.09   38.20   1
  20   1  -6   72.99   29.20   1
  20   1  -6  121.79   35.70   1
 -20   1   6   53.79   26.80   1
 -20  -1   6   93.69   29.00   1
 -20  -1   6   91.79   38.30   1
  20  -1  -6   41.80   32.60   1
  20  -1  -6  120.29   31.80   1
  20   1  -5  854.21   78.29   1
 -20   1   5  781.72   83.59   1
  20   1  -5  863.71   82.99   1
 -20   1   5  750.12   72.89   1
  20  -1  -5  877.21   82.09   1
  20  -1  -5  807.82   74.49   1
 -20  -1   5  881.51   83.69   1
 -20  -1   5  874.01   75.49   1
 -20   1   4 1173.68  102.79   1
  20   1  -4 1035.70   99.49   1
 -20   1   4 1127.79   92.99   1
  20   1  -4 1134.39   96.69   1
 -20  -1   4 1113.79  101.69   1
  20  -1  -4 1086.09   93.19   1
  20  -1  -4 1231.18  102.69   1
  20   1  -3  567.84   64.09   1
 -20   1   3  573.04   67.49   1
 -20   1   3  576.74   58.09   1
  20  -1  -3  688.33   61.39   1
  20  -1  -3  664.83   71.69   1
 -20  -1   3  551.34   70.59   1
 -20   1   2   86.69   29.30   1
  20   1  -2  111.09   32.50   1
 -20   1   2  141.09   37.00   1
 -20   1   2  114.99   29.70   1
  20   1  -2   84.69   35.10   1
 -20  -1   2   80.29   36.90   1
 -20  -1   2  109.89   24.80   1
  20  -1  -2  163.98   30.80   1
  20  -1  -2  170.88   38.70   1
 -20   1   1    2.60   29.40   1
 -20   1   1   59.99   33.30   1
  20   1  -1   52.99   30.00   1
  20   1  -1   20.10   28.70   1
 -20  -1   1   66.49   36.50   1
  20  -1  -1   56.09   33.80   1
 -20  -1   1   80.49   36.20   1
 -20  -1   1   63.59   25.20   1
  20  -1  -1   47.50   26.60   1
  20   1   0   53.49   28.90   1
 -20   1   0   34.90   31.90   1
 -20   1   0   27.10   33.90   1
  20   1   0   34.30   29.30   1
 -20  -1   0   38.90   33.00   1
 -20  -1   0   73.49   26.40   1
  20  -1   0   62.09   27.80   1
 -20  -1   0   33.00   32.90   1
 -20   1  -1  402.26   62.89   1
  20   1   1  339.57   49.60   1
 -20   1  -1  442.96   61.99   1
  20   1   1  457.15   53.49   1
  20  -1   1  334.57   51.79   1
 -20  -1  -1  289.97   56.69   1
 -20  -1  -1  411.46   60.99   1
  20  -1   1  402.96   50.99   1
 -20   1  -2  -17.10   32.00   1
  20   1   2   -5.00   28.80   1
  20   1   2    9.60   27.70   1
 -20   1  -2   19.50   31.10   1
 -20   1  -2  -34.70   33.10   1
  20  -1   2    9.40   29.50   1
 -20  -1  -2   20.10   26.10   1
 -20  -1  -2  -11.60   37.50   1
  20  -1   2   17.00   29.90   1
 -20  -1  -2   26.30   35.30   1
 -20   1  -3  115.09   41.00   1
 -20   1  -3  199.28   41.40   1
 -20   1  -3  155.58   34.00   1
  20   1   3   78.09   34.30   1
  20   1   3  125.09   34.00   1
  20  -1   3   92.29   32.60   1
  20  -1   3  164.98   35.60   1
 -20  -1  -3  104.39   38.60   1
 -20  -1  -3  109.39   31.50   1
 -20  -1  -3  134.89   43.80   1
 -20   1  -4   58.19   36.70   1
 -20   1  -4   27.40   30.40   1
  20   1   4   16.50   34.70   1
  20   1   4   73.09   31.90   1
 -20   1  -4    4.00   34.10   1
 -20  -1  -4   57.39   53.99   1
  20  -1   4   44.80   32.80   1
 -20  -1  -4   22.50   28.40   1
  20  -1   4   -8.80   30.30   1
  20   1   5   25.90   37.50   1
 -20   1  -5  144.99   43.90   1
 -20   1  -5  121.19   41.00   1
 -20   1  -5  122.89   33.30   1
  20   1   5   92.19   36.50   1
 -20  -1  -5  105.79   32.80   1
  20  -1   5   54.09   34.30   1
  20  -1   5   55.39   33.90   1
 -20   1  -6   21.60   32.70   1
 -20   1  -6  135.29   43.60   1
 -20   1  -6  104.79   46.90   1
  20   1   6  164.18   39.10   1
  20  -1   6  109.29   38.30   1
 -20  -1  -6   94.39   33.80   1
  20  -1   6  159.78   38.30   1
 -20   2  11  398.06   52.79   1
  20   2 -11  417.76   63.59   1
  20  -2 -11  491.95   57.89   1
 -20  -2  11  456.05   66.09   1
  20   2 -10  599.54   72.09   1
  20   2 -10  683.03   77.29   1
 -20  -2  10  634.44   64.89   1
  20   2  -9  577.14   77.29   1
 -20   2   9  654.13   88.29   1
 -20   2   9  680.73   64.89   1
  20   2  -9  716.93   81.29   1
 -20  -2   9  582.34   64.19   1
  20  -2  -9  662.63   71.29   1
  20  -2  -9  749.03   75.89   1
 -20  -2   9  615.04   80.99   1
 -20   2   8  135.09   31.60   1
  20   2  -8  107.19   41.40   1
 -20   2   8   68.49   42.70   1
  20   2  -8   70.99   33.60   1
 -20  -2   8   91.39   42.00   1
 -20  -2   8  104.99   29.90   1
  20  -2  -8  164.88   40.50   1
  20  -2  -8  116.09   34.10   1
 -20   2   7  150.08   47.10   1
 -20   2   7  300.27   41.30   1
  20   2  -7  332.17   55.09   1
  20   2  -7  194.68   41.70   1
 -20  -2   7  258.67   44.30   1
  20  -2  -7  286.67   45.00   1
 -20  -2   7  236.38   49.90   1
  20  -2  -7  296.97   49.20   1
 -20   2   6   35.90   26.60   1
  20   2  -6   22.60   33.80   1
  20   2  -6   33.30   30.00   1
 -20   2   6   67.39   39.80   1
  20  -2  -6  -11.50   32.60   1
 -20  -2   6   31.80   25.80   1
  20  -2  -6  -20.30   26.80   1
 -20  -2   6   10.90   35.40   1
 -20   2   5  140.29   41.20   1
  20   2  -5  136.09   35.50   1
 -20   2   5  126.39   29.20   1
  20  -2  -5  138.59   33.70   1
 -20  -2   5  224.08   46.40   1
  20  -2  -5  239.38   45.80   1
 -20  -2   5  144.69   31.50   1
 -20   2   4  459.05   65.69   1
 -20   2   4  586.74   62.89   1
 -20   2   4  393.36   50.29   1
  20   2  -4  436.06   58.79   1
 -20  -2   4  486.95   69.49   1
  20  -2  -4  333.47   54.29   1
 -20  -2   4  524.55   54.39   1
  20  -2  -4  548.05   64.69   1
 -20   2   3   75.49   26.70   1
  20   2  -3  104.09   31.20   1
 -20   2   3  130.69   44.80   1
 -20   2   3  108.99   38.80   1
  20   2  -3  123.99   36.50   1
 -20  -2   3  153.68   39.40   1
  20  -2  -3  133.49   33.00   1
 -20  -2   3  111.79   41.70   1
  20  -2  -3  143.09   39.00   1
 -20   2   2   58.29   25.20   1
 -20   2   2   29.60   34.20   1
 -20   2   2   92.59   39.50   1
  20   2  -2   68.59   33.30   1
  20   2  -2   35.80   31.60   1
 -20  -2   2   26.00   34.90   1
  20  -2  -2  114.59   31.70   1
 -20  -2   2   92.19   40.90   1
  20  -2  -2  118.49   39.30   1
 -20  -2   2  150.28   30.50   1
 -20   2   1   98.89   27.70   1
  20   2  -1   94.19   33.20   1
  20   2  -1  130.59   32.70   1
 -20   2   1   98.29   40.90   1
 -20  -2   1   94.39   39.90   1
  20  -2  -1  136.99   41.70   1
 -20  -2   1  209.58   47.40   1
  20  -2  -1  142.59   33.60   1
  20   2   0   63.89   31.50   1
 -20   2   0  169.18   39.40   1
  20   2   0   97.29   34.30   1
 -20   2   0   61.79   37.90   1
 -20   2   0   95.99   26.80   1
 -20  -2   0   64.49   36.90   1
 -20  -2   0   54.49   37.90   1
 -20  -2   0  101.19   32.90   1
  20  -2   0  188.18   37.40   1
  20   2   1  198.58   39.80   1
  20   2   1  201.68   39.20   1
 -20   2  -1  207.98   44.30   1
 -20   2  -1  207.28   48.00   1
 -20   2  -1  130.99   41.70   1
  20  -2   1  351.36   49.40   1
 -20  -2  -1  197.38   45.10   1
  20   2   2  181.58   52.59   1
  20   2   2   96.29   37.40   1
 -20   2  -2  180.28   42.30   1
 -20   2  -2  220.98   47.10   1
 -20   2  -2  173.48   43.10   1
 -20  -2  -2  178.78   37.40   1
 -20  -2  -2  257.87   74.89   1
  20  -2   2   99.59   35.40   1
 -20   2  -3  128.09   40.60   1
 -20   2  -3  180.48   46.20   1
  20   2   3  198.08   42.50   1
  20   2   3  152.08   39.40   1
 -20   2  -3  215.98   49.40   1
 -20  -2  -3  254.37   41.80   1
  20  -2   3  201.38   41.00   1
  20   2   4  125.59   39.20   1
 -20   2  -4   99.39   45.80   1
 -20   2  -4   22.90   36.40   1
 -20   2  -4   23.00   40.50   1
  20   2   4   74.59   30.30   1
  20  -2   4   37.30   37.10   1
  20  -2   4   53.59   35.00   1
 -20  -2  -4  129.29   38.00   1
 -20   3   7   65.39   50.49   1
  20  -3  -7  119.79   36.80   1
  20  -3  -7  242.28   49.70   1
  20   3  -6  223.58   48.20   1
 -20   3   6  269.37   42.50   1
 -20  -3   6  287.77   45.50   1
  20  -3  -6  322.47   54.79   1
  20  -3  -6  333.97   51.79   1
 -20  -3   6  390.56   68.89   1
 -20   3   5  182.58   54.39   1
 -20   3   5  260.17   41.50   1
  20  -3  -5  365.46   51.19   1
 -20  -3   5  184.18   52.59   1
 -20  -3   5  406.46   47.00   1
  20  -3  -5  257.17   51.69   1
 -20  -3   5  433.06   74.89   1
  20   3  -4  252.57   50.29   1
 -20   3   4  386.36   63.39   1
 -20   3   4  370.06   47.70   1
 -20   3   4  217.58   53.39   1
  20  -3  -4  394.96   52.49   1
  20  -3  -4  470.95   68.39   1
 -20  -3   4  355.46   63.19   1
 -20  -3   4  288.97   59.69   1
 -20   3   3   52.99   27.50   1
  20   3  -3   52.99   31.80   1
 -20   3   3   32.50   45.40   1
  20   3  -3   58.89   39.40   1
 -20   3   3  103.69   43.40   1
  20   3  -3   76.99   38.70   1
  20  -3  -3   60.69   32.10   1
 -20  -3   3  -33.70   39.40   1
  20  -3  -3  135.29   44.10   1
 -20   3   2   70.49   41.30   1
  20   3  -2   61.39   34.70   1
  20   3  -2   57.09   37.80   1
 -20   3   2   40.60   45.30   1
 -20   3   2   61.59   29.20   1
  20  -3  -2  115.99   47.40   1
 -20  -3   2   89.99   47.40   1
  20  -3  -2   43.90   35.50   1
 -20   3   1   -0.70   40.70   1
 -20   3   1  148.69   48.60   1
 -20   3   1   91.59   30.30   1
  20   3  -1   62.49   38.70   1
  20  -3  -1   89.19   37.20   1
  20   3   0   -7.40   30.70   1
 -20   3   0   33.50   28.80   1
 -20   3   0   31.60   43.60   1
  20  -3   0   55.69   35.50   1
 -21   0  12   -0.10   27.70   1
  21   0 -12    7.30   33.50   1
 -21   0  11   13.80   24.90   1
  21   0 -11   30.90   42.80   1
  21   0 -10   59.19   30.40   1
 -21   0  10   47.80   26.50   1
  21   0  -9    5.40   32.40   1
  21   0  -9   14.70   30.00   1
 -21   0   9    8.60   45.60   1
 -21   0   9   -7.20   25.50   1
 -21   0   8   37.30   36.50   1
 -21   0   8   28.70   23.50   1
  21   0  -8   23.10   31.40   1
  21   0  -8   48.50   36.00   1
 -21   0   7   29.00   36.40   1
  21   0  -7  -15.60   28.40   1
 -21   0   7    9.30   22.50   1
  21   0  -7   63.29   36.50   1
 -21   0   6   33.90   24.30   1
 -21   0   6   19.50   37.60   1
  21   0  -6   26.70   30.60   1
  21   0  -6   19.30   29.30   1
  21   0  -5    4.50   27.80   1
 -21   0   5   25.20   34.10   1
 -21   0   5   15.50   25.50   1
  21   0  -5    9.30   29.90   1
 -21   0   4   18.10   32.50   1
  21   0  -4   14.50   32.90   1
 -21   0   4   -4.40   22.60   1
  21   0  -4   31.60   25.90   1
  21   0  -3   11.80   29.80   1
  21   0  -3   16.10   32.90   1
 -21   0   3   15.10   31.90   1
 -21   0   2    1.20   35.00   1
  21   0  -2  -38.70   26.80   1
  21   0  -1   10.20   28.80   1
 -21   0   1  -55.29   28.50   1
  21   0  -1    4.70   28.00   1
 -21   0   1    2.10   33.20   1
  21   0   0   32.20   29.20   1
 -21   0   0  -18.10   33.50   1
 -21   0   0  -38.10   33.40   1
  21   0   0  -11.60   28.10   1
 -21   0  -1  -15.60   29.70   1
 -21   0  -1   37.60   37.50   1
  21   0   1    1.90   28.70   1
  21   0   1  -41.40   26.20   1
 -21   0  -1   22.80   36.30   1
 -21   0  -2   49.20   34.10   1
  21   0   2   61.59   31.80   1
 -21   0  -2  -27.30   30.20   1
 -21   0  -2   12.60   35.20   1
  21   0   2   27.90   32.30   1
 -21   0  -3   -9.20   34.80   1
  21   0   3   14.50   31.50   1
  21   0   3   -2.30   30.10   1
 -21   0  -3    5.60   39.10   1
 -21   0  -3  -17.60   28.10   1
  21   0   4  -15.60   29.80   1
  21   0   4    3.80   32.90   1
 -21   0  -4   22.30   55.29   1
 -21   0  -4   64.19   42.70   1
 -21   0  -5   27.70   32.80   1
  21   0   5    7.10   37.30   1
  21   0   5    1.60   31.80   1
  21  -1 -12  -41.10   33.00   1
 -21   1  11   25.90   28.40   1
  21   1 -11   38.10   35.60   1
 -21  -1  11  -17.50   24.10   1
  21  -1 -11   74.89   37.20   1
  21   1 -10   41.70   35.80   1
 -21   1  10   27.70   26.00   1
 -21  -1  10   77.99   30.90   1
  21  -1 -10   20.60   46.10   1
  21   1  -9   50.49   35.40   1
  21   1  -9   -9.10   31.60   1
 -21   1   9    4.20   25.20   1
  21  -1  -9   -5.30   32.50   1
  21  -1  -9   -9.60   31.30   1
 -21  -1   9    1.40   23.40   1
 -21   1   8    4.30   36.00   1
 -21   1   8   11.50   24.50   1
  21   1  -8   36.20   29.90   1
  21   1  -8   44.00   33.60   1
  21  -1  -8  -17.60   30.10   1
 -21  -1   8   -7.50   38.60   1
  21  -1  -8   21.80   28.80   1
 -21  -1   8   11.00   23.60   1
  21   1  -7   25.30   31.90   1
  21   1  -7   33.10   29.50   1
 -21   1   7   50.79   38.30   1
 -21   1   7   38.20   26.30   1
  21  -1  -7   83.49   30.60   1
 -21  -1   7   17.60   23.80   1
 -21  -1   7   50.99   38.40   1
  21  -1  -7   14.50   32.10   1
 -21   1   6   37.90   24.20   1
  21   1  -6    8.90   27.70   1
  21   1  -6   20.70   33.70   1
 -21   1   6   58.49   36.40   1
  21  -1  -6   38.40   32.20   1
 -21  -1   6   21.80   36.10   1
 -21  -1   6   -3.80   23.00   1
  21  -1  -6   32.10   28.30   1
  21   1  -5   23.20   33.00   1
  21   1  -5   34.70   27.50   1
 -21   1   5   42.60   36.60   1
 -21   1   5   28.20   24.90   1
  21  -1  -5   64.99   33.30   1
  21  -1  -5   54.29   30.10   1
 -21  -1   5  -22.80   25.10   1
 -21  -1   5   26.50   35.70   1
 -21   1   4   19.70   23.60   1
  21   1  -4   17.10   28.80   1
 -21   1   4    1.20   33.40   1
  21   1  -4   39.40   33.10   1
 -21  -1   4  -17.80   33.00   1
  21  -1  -4   -6.30   26.50   1
  21  -1  -4   33.30   34.30   1
  21   1  -3   26.20   28.70   1
 -21   1   3  -14.50   21.60   1
 -21   1   3    0.80   33.30   1
  21  -1  -3   28.30   27.90   1
 -21  -1   3   -3.40   33.80   1
  21  -1  -3   44.30   36.50   1
  21   1  -2   31.30   31.70   1
  21   1  -2   -0.50   29.70   1
 -21   1   2   19.30   33.90   1
 -21   1   2    1.00   22.30   1
  21  -1  -2   -2.40   27.70   1
 -21  -1   2   -5.10   36.50   1
  21  -1  -2  -34.40   33.80   1
 -21   1   1   11.70   32.50   1
  21   1  -1  -31.70   27.70   1
  21   1  -1   -8.40   28.10   1
 -21   1   1  -30.40   34.50   1
 -21  -1   1  -15.00   26.20   1
 -21  -1   1   24.10   36.70   1
 -21  -1   1   40.20   36.00   1
  21  -1  -1   26.00   28.00   1
 -21   1   0   63.49   38.70   1
  21   1   0   64.89   29.50   1
  21   1   0   40.30   30.50   1
 -21   1   0   94.09   34.70   1
 -21  -1   0   49.00   27.50   1
 -21  -1   0   80.79   37.60   1
 -21  -1   0   98.89   41.70   1
  21  -1   0   75.59   27.80   1
 -21   1  -1   43.30   37.70   1
  21   1   1   53.29   31.40   1
 -21   1  -1   20.10   36.00   1
  21   1   1  -17.10   29.80   1
 -21   1  -1   36.30   36.70   1
 -21  -1  -1  -43.90   27.60   1
  21  -1   1  -11.60   28.90   1
  21  -1   1   53.09   29.10   1
 -21  -1  -1   13.40   39.40   1
 -21  -1  -1  -39.80   32.10   1
  21   1   2  -13.60   31.70   1
  21   1   2   45.50   30.60   1
 -21   1  -2  -47.80   31.20   1
 -21   1  -2   -9.30   37.60   1
 -21   1  -2   12.30   33.40   1
 -21  -1  -2  -24.10   36.70   1
  21  -1   2   21.10   31.40   1
  21  -1   2   68.09   31.80   1
 -21  -1  -2   -6.60   29.20   1
  21   1   3   60.99   35.70   1
 -21   1  -3   12.20   40.80   1
  21   1   3  101.69   34.00   1
 -21   1  -3  106.49   35.20   1
 -21   1  -3   74.29   38.40   1
 -21  -1  -3  130.39   32.80   1
  21  -1   3   21.40   33.00   1
  21  -1   3   75.79   33.10   1
  21   1   4   23.50   31.70   1
 -21   1  -4  -68.79   44.60   1
 -21   1  -4  -41.80   37.20   1
 -21   1  -4   64.69   40.00   1
  21   1   4  -26.40   36.00   1
 -21  -1  -4   61.59   39.90   1
  21  -1   4  -13.90   31.20   1
  21  -1   4  -31.90   31.30   1
  21   1   5   36.60   38.80   1
  21   1   5   52.99   34.20   1
 -21   1  -5  -16.20   39.10   1
  21  -1   5   45.30   35.10   1
  21  -1   5   15.20   33.30   1
 -21   2  10    8.50   28.60   1
  21  -2 -10   22.40   29.90   1
  21   2  -9   53.99   65.49   1
  21   2  -9    3.50   33.40   1
 -21  -2   9    2.80   33.90   1
  21  -2  -9   -5.70   29.40   1
  21   2  -8    3.60   32.20   1
  21   2  -8   -9.50   37.80   1
 -21   2   8   -5.60   23.20   1
  21  -2  -8   64.99   31.60   1
  21  -2  -8  -13.50   35.80   1
 -21  -2   8   17.40   27.60   1
  21   2  -7   42.60   37.70   1
 -21   2   7   -5.00   23.20   1
 -21   2   7  -16.30   41.30   1
  21  -2  -7  -71.79   34.00   1
 -21  -2   7   25.60   54.29   1
 -21  -2   7    4.90   24.50   1
  21   2  -6   30.20   38.30   1
 -21   2   6   10.60   25.10   1
  21   2  -6    3.30   32.60   1
 -21   2   6   41.50   40.30   1
  21  -2  -6   -9.10   36.00   1
  21  -2  -6   48.60   35.60   1
 -21  -2   6   31.20   28.80   1
 -21  -2   6  -10.30   36.90   1
 -21   2   5   13.70   24.00   1
  21   2  -5  -17.20   30.00   1
 -21   2   5   -5.80   38.80   1
 -21  -2   5  -12.80   37.90   1
  21  -2  -5   14.30   29.50   1
 -21  -2   5    7.90   27.40   1
  21  -2  -5   22.80   36.20   1
 -21   2   4   53.89   39.50   1
 -21   2   4   31.80   23.80   1
  21   2  -4   84.69   34.00   1
  21  -2  -4    9.20   35.80   1
  21  -2  -4  -17.00   29.80   1
 -21  -2   4   40.90   40.40   1
  21   2  -3  110.59   34.20   1
 -21   2   3   49.60   27.10   1
  21   2  -3   -9.50   29.70   1
 -21   2   3  102.89   41.60   1
 -21  -2   3   38.90   43.10   1
  21  -2  -3   13.30   29.40   1
  21  -2  -3   54.79   39.10   1
 -21   2   2  -24.50   37.00   1
 -21   2   2  -13.50   20.60   1
 -21   2   2    5.70   36.40   1
  21   2  -2   49.80   34.80   1
  21   2  -2    4.50   31.60   1
  21  -2  -2  -42.30   35.20   1
  21  -2  -2   22.70   29.80   1
 -21  -2   2   20.30   30.90   1
 -21  -2   2   23.60   38.10   1
  21   2  -1   50.79   33.70   1
  21   2  -1   18.00   30.60   1
 -21   2   1   38.20   37.00   1
 -21   2   1   51.39   25.00   1
 -21  -2   1   41.20   38.50   1
  21  -2  -1   52.09   32.60   1
 -21   2   0   36.90   39.50   1
  21   2   0   11.40   58.59   1
  21   2   0   28.00   33.40   1
 -21   2   0   42.30   39.40   1
 -21   2   0   28.60   25.50   1
 -21  -2   0   -1.40   36.00   1
  21  -2   0   59.79   33.70   1
 -21   2  -1  -54.19   37.20   1
 -21   2  -1   62.29   41.40   1
  21   2   1   35.00   35.60   1
 -21   2  -1   27.00   39.10   1
  21   2   1   -3.30   30.60   1
  21  -2   1   21.60   33.60   1
 -21  -2  -1  136.09   36.60   1
  21   2   2   35.50   30.00   1
 -21   2  -2    0.30   37.60   1
  21   2   2   -0.80   36.40   1
 -21   2  -2  -12.10   39.10   1
  21  -2   2   20.90   31.80   1
 -21   2  -3   68.19   44.00   1
  21   2   3   11.20   30.90   1
  21   2   3   26.60   37.80   1
 -21   2  -3  -19.70   43.30   1
  21  -2   3   60.79   36.00   1
  22   0 -11  -40.40   31.40   1
 -22   0  11   27.00   24.90   1
  22   0 -10   21.60   31.80   1
 -22   0  10  -31.10   24.70   1
 -22   0   9  154.38   31.60   1
  22   0  -8   45.70   32.70   1
 -22   0   8  -12.40   25.00   1
  22   0  -8   52.59   37.00   1
 -22   0   7   21.50   50.59   1
  22   0  -7  -58.89   32.20   1
 -22   0   7   -6.40   24.20   1
  22   0  -7   11.50   29.60   1
 -22   0   6   72.29   27.60   1
  22   0  -6   64.99   32.80   1
  22   0  -6  157.18   39.90   1
 -22   0   6    5.00   39.00   1
 -22   0   5  123.99   32.60   1
  22   0  -5   94.49   31.20   1
 -22   0   5  133.29   40.10   1
  22   0  -5  152.38   38.50   1
 -22   0   4  174.08   32.10   1
  22   0  -4  161.78   33.50   1
 -22   0   4  211.58   44.20   1
  22   0  -4  203.98   44.90   1
  22   0  -3   15.60   34.60   1
  22   0  -3  -14.60   28.40   1
 -22   0   3   60.09   36.50   1
  22   0  -2   15.10   29.40   1
 -22   0   2   42.20   37.60   1
  22   0  -1  315.87   50.89   1
 -22   0   1  423.66   63.29   1
 -22   0   0   13.70   38.60   1
 -22   0   0   47.80   41.80   1
  22   0   0   47.00   31.40   1
 -22   0   0   32.80   37.60   1
  22   0   0    7.90   31.20   1
  22   0   1   41.40   32.40   1
 -22   0  -1   68.19   36.90   1
 -22   0  -1   68.79   41.30   1
  22   0   1    2.00   31.40   1
 -22   0  -2   32.30   41.90   1
 -22   0  -2  147.19   54.19   1
  22   0   2   56.49   33.60   1
  22   0   2  116.59   35.00   1
 -22   0  -3   30.40   33.10   1
  22   0   3   19.30   33.00   1
  22   0   3   29.90   34.50   1
  22   0   4    8.40   32.20   1
  22   0   4  -59.29   33.10   1
 -22   1  10  152.48   36.20   1
  22   1 -10   39.90   33.70   1
  22  -1 -10  103.09   35.40   1
 -22  -1  10   38.60   31.80   1
 -22   1   9   16.50   23.50   1
  22   1  -9   -5.80   31.10   1
  22  -1  -9  -15.80   32.30   1
 -22  -1   9    9.10   24.50   1
 -22   1   8  285.37   45.10   1
 -22  -1   8  431.96   61.99   1
  22  -1  -8  199.28   51.89   1
 -22   1   7  714.23  100.29   1
  22   1  -7  626.74   70.29   1
  22   1  -7  682.93   77.99   1
 -22   1   7  727.63   67.19   1
  22  -1  -7  740.13   68.49   1
  22  -1  -7  714.73   77.09   1
 -22  -1   7  694.33   66.69   1
  22   1  -6  169.98   41.70   1
 -22   1   6  146.39   32.00   1
  22   1  -6  149.09   36.50   1
 -22   1   6  185.88   43.20   1
  22  -1  -6  194.88   36.70   1
  22  -1  -6  110.59   37.90   1
 -22  -1   6  200.38   38.00   1
  22   1  -5   54.29   37.90   1
  22   1  -5   84.29   33.10   1
 -22   1   5  195.78   34.70   1
 -22   1   5  181.18   43.80   1
 -22  -1   5   85.49   28.70   1
  22  -1  -5  169.98   42.70   1
 -22  -1   5  169.88   49.10   1
  22  -1  -5  135.39   32.90   1
  22   1  -4  293.77   49.60   1
 -22   1   4  282.77   42.60   1
 -22   1   4  257.07   48.10   1
  22   1  -4  314.07   51.69   1
  22  -1  -4  286.07   46.90   1
 -22  -1   4  316.27   54.79   1
  22  -1  -4  281.37   48.90   1
 -22   1   3  299.37   52.39   1
 -22   1   3  256.27   40.50   1
  22   1  -3  218.48   41.70   1
 -22  -1   3  242.18   57.09   1
  22  -1  -3  340.67   58.69   1
  22  -1  -3  279.27   44.00   1
  22   1  -2   31.20   32.30   1
 -22   1   2   23.60   36.40   1
  22   1  -2   57.69   33.70   1
 -22   1   2   59.89   26.20   1
  22  -1  -2  118.39   40.20   1
  22  -1  -2  100.09   32.20   1
  22   1  -1  782.82   78.39   1
 -22   1   1  909.31   87.39   1
  22   1  -1  841.22   79.59   1
 -22  -1   1  750.32   87.69   1
  22  -1  -1  782.52   75.39   1
  22   1   0 1261.07  109.09   1
  22   1   0 1208.08  101.79   1
 -22   1   0 1096.09  108.09   1
 -22   1   0 1148.09  109.99   1
  22  -1   0 1225.68   97.99   1
 -22  -1   0 1323.57  125.89   1
 -22  -1   0  957.50   94.29   1
 -22   1  -1    1.50   37.80   1
 -22   1  -1   68.29   39.90   1
  22   1   1   80.39   34.10   1
  22   1   1   22.50   32.10   1
  22  -1   1    2.40   31.70   1
  22   1   2  253.57   43.80   1
 -22   1  -2  375.16   53.29   1
  22   1   2  143.79   40.70   1
 -22   1  -2  175.18   44.20   1
 -22   1  -2  221.48   49.70   1
  22  -1   2  158.98   41.00   1
 -22  -1  -2  255.37   41.20   1
  22  -1   2  166.18   35.60   1
 -22   1  -3  153.38   40.60   1
  22   1   3  125.69   36.20   1
  22   1   3   86.69   39.60   1
 -22   1  -3  142.49   46.70   1
 -22  -1  -3  169.58   36.70   1
  22  -1   3  207.18   44.70   1
  22   2  -8   36.70   33.00   1
 -22   2   8  -29.50   27.40   1
  22  -2  -8   14.10   31.00   1
 -22  -2   8   -0.70   26.50   1
 -22   2   7   99.39   32.20   1
  22   2  -7  106.39   38.10   1
  22  -2  -7  130.09   35.60   1
 -22  -2   7   62.39   32.90   1
  22  -2  -7   55.89   43.90   1
 -22   2   6  128.59   56.19   1
 -22   2   6  163.08   34.90   1
  22   2  -6  147.09   55.29   1
  22  -2  -6  190.48   46.90   1
  22  -2  -6  212.58   38.50   1
 -22  -2   6  114.39   44.70   1
 -22   2   5  143.59   45.30   1
 -22   2   5   71.19   27.20   1
  22   2  -5  155.08   39.10   1
  22  -2  -5  149.59   34.90   1
  22  -2  -5  149.19   42.10   1
 -22   2   4  378.16   48.90   1
  22   2  -4  364.66   60.79   1
 -22   2   4  432.16   70.29   1
  22  -2  -4  404.66   54.79   1
  22  -2  -4  453.75   66.69   1
 -22   2   3  428.06   50.09   1
  22   2  -3  362.06   69.59   1
 -22   2   3  477.75   70.69   1
  22   2  -3  404.96   62.19   1
  22  -2  -3  554.84   73.49   1
 -22   2   2  222.38   37.60   1
  22   2  -2  209.88   41.80   1
  22   2  -2  145.89   41.20   1
 -22   2   2  231.48   50.09   1
  22  -2  -2  281.87   51.29   1
  22  -2  -2  430.16   54.39   1
 -22   2   1  188.28   33.70   1
  22   2  -1  166.08   38.80   1
 -22   2   1  255.67   49.40   1
  22   2  -1  114.69   38.70   1
 -22   2   0  136.39   43.90   1
 -22   2   0   66.49   26.20   1
  22   2   0   54.49   35.20   1
 -22   2   0   42.60   42.00   1
  22   2   0   70.29   32.90   1
  22  -2   0  134.29   40.00   1
 -22  -2   0  201.28   39.10   1
 -22   2  -1   49.99   45.20   1
  22   2   1  -11.00   35.90   1
  22   2   1   23.20   34.10   1
 -22   2  -1   97.89   47.30   1
 -22   2  -1   89.09   27.20   1
  22  -2   1   25.40   41.10   1
 -23   0  10   22.30   28.80   1
  23   0 -10   12.20   34.10   1
  23   0  -9   41.40   32.50   1
 -23   0   9   27.10   26.50   1
 -23   0   8   73.09   28.90   1
  23   0  -8   30.80   30.70   1
 -23   0   7  -14.50   25.50   1
  23   0  -7   73.99   65.49   1
  23   0  -6   36.50   31.20   1
  23   0  -5   70.49   43.60   1
  23   0  -5    2.20   30.70   1
 -23   0   5   -2.80   24.60   1
  23   0  -4  -18.60   29.50   1
  23   0  -4   41.30   38.50   1
 -23   0   4   -2.60   25.50   1
  23   0  -3   17.50   38.40   1
  23   0  -3  -31.50   27.80   1
 -23   0   3   -4.40   21.90   1
  23   0  -2   -0.40   29.70   1
  23   0  -1   33.80   31.40   1
  23   0   0  -22.90   30.80   1
  23   0   0    8.30   61.69   1
  23   0   1  -24.10   32.00   1
  23   0   1  100.69   34.60   1
 -23   0  -2    9.80   37.40   1
  23   0   2  -15.30   35.30   1
  23   0   2    6.00   32.40   1
 -23   1   9    1.10   27.20   1
  23   1  -9   55.19   34.60   1
 -23  -1   9   27.30   29.30   1
  23  -1  -9  -11.50   30.60   1
  23   1  -8   32.10   30.80   1
 -23   1   8  -13.30   25.60   1
  23  -1  -8   31.20   32.20   1
 -23  -1   8  -27.30   24.30   1
 -23   1   7   -3.70   24.90   1
  23   1  -7   42.10   32.60   1
  23  -1  -7   18.10   29.30   1
 -23  -1   7   20.20   25.50   1
 -23   1   6   42.30   37.80   1
 -23  -1   6   16.90   27.40   1
  23  -1  -6   61.99   33.80   1
 -23   1   5   25.60   25.30   1
  23   1  -5   57.09   32.90   1
  23  -1  -5   -8.10   36.60   1
 -23  -1   5   -2.90   24.10   1
  23   1  -4   16.90   32.20   1
 -23   1   4   14.40   24.00   1
  23  -1  -4   41.10   37.10   1
  23  -1  -4   19.40   39.60   1
  23   1  -3  -22.70   30.00   1
 -23   1   3   13.80   24.00   1
  23  -1  -3   -8.40   28.20   1
  23  -1  -3   52.79   38.60   1
  23   1  -2   50.29   34.20   1
 -23   1   2   12.80   25.40   1
 -23   1   2  -41.90   51.09   1
  23   1  -2  -14.30   30.90   1
  23  -1  -2   21.70   39.20   1
  23  -1  -2   -5.50   28.90   1
  23   1  -1   -4.50   30.70   1
  23   1  -1   -8.40   32.00   1
  23  -1  -1   -3.30   29.40   1
  23   1   0   55.99   36.30   1
 -23   1   0   57.79   45.40   1
  23   1   0   49.10   34.00   1
  23  -1   0   10.70   31.70   1
  23   1   1   35.80   35.60   1
  23   1   1   36.90   35.10   1
  23  -1   2  -18.10   33.80   1
  23  -2  -5   68.99   52.79   1
  23  -2  -5  -10.70   26.80   1
  23   2  -4   22.10   47.80   1
 -23   2   4    2.40   26.70   1
  23  -2  -4   36.40   43.90   1
  23  -2  -4   23.70   30.80   1
 -23   2   3  -22.50   59.39   1
 -23   2   3  -20.40   26.50   1
  23  -2  -3  -34.90   42.50   1
  23  -2  -3   60.49   32.10   1
  23  -2  -2   -5.80   30.80   1
  24   0  -8  111.49   35.70   1
 -24   0   8   64.79   25.50   1
  24   0  -7  376.46   53.89   1
 -24   0   7  190.38   38.70   1
  24   0  -6  231.38   41.90   1
 -24   0   6  292.27   43.80   1
 -24   0   5   47.40   26.30   1
  24   0  -5   44.90   34.70   1
 -24   0   4   60.69   27.00   1
  24   0  -3   27.90   32.80   1
 -24   0   3    8.90   25.60   1
  24   0  -2    4.40   30.30   1
  24   0  -1  123.59   34.60   1
  24   0   0  520.25   60.39   1
  24   0   0  382.16   57.79   1
  24   1  -7   86.79   33.50   1
  24  -1  -7  179.58   36.50   1
 -24   1   6   62.69   30.60   1
  24   1  -6   71.19   32.50   1
  24  -1  -6  103.79   34.50   1
 -24  -1   6   32.80   26.00   1
 -24   1   5   11.80   28.20   1
  24   1  -5   -7.70   30.30   1
  24  -1  -5  -32.70   28.80   1
 -24  -1   5   22.60   28.40   1
 -24   1   4   17.70   25.50   1
  24   1  -4    8.80   44.30   1
 -24  -1   4   -1.10   24.20   1
  24  -1  -4   15.90   28.60   1
  24   1  -3   68.19   37.50   1
 -24   1   3   67.69   27.00   1
  24  -1  -3   59.19   33.30   1
  24   1  -2   80.89   34.80   1
 -24   1   2   31.00   25.40   1
  24   1  -2   84.09   35.50   1
  24  -1  -2  144.99   36.80   1
  24   1  -1  146.79   40.30   1
  24  -1  -1  180.38   37.50   1
   0   0   0    0.00    0.00   0
;
_shelx_hkl_checksum              54046
loop_
_space_group_symop_operation_xyz
'x, y, z'
'-x, y+1/2, -z'
loop_
_atom_site_label
_atom_site_type_symbol
_atom_site_fract_x
_atom_site_fract_y
_atom_site_fract_z
_atom_site_U_iso_or_equiv
_atom_site_adp_type
_atom_site_occupancy
_atom_site_site_symmetry_order
_atom_site_calc_flag
_atom_site_refinement_flags_posn
_atom_site_refinement_flags_adp
_atom_site_refinement_flags_occupancy
_atom_site_disorder_assembly
_atom_site_disorder_group
Na8 Na 0.04619(19) -1.0311(10) -0.9641(3) 0.0211(13) Uani 1 1 d . . . . .
Na5 Na -0.0812(2) 0.0093(9) 0.0915(3) 0.0196(13) Uani 1 1 d . . . . .
Na1 Na -0.54697(19) -1.5737(9) -0.0408(3) 0.0232(14) Uani 1 1 d . . . . .
Na4 Na -0.19383(19) 0.4337(10) -0.0339(3) 0.0222(13) Uani 1 1 d . . . . .
Na2 Na -0.4167(2) -0.5331(10) -0.0839(3) 0.0222(13) Uani 1 1 d . . . . .
Na6 Na -0.3057(2) -0.0845(10) -0.9656(3) 0.0245(13) Uani 1 1 d . . . . .
Na7 Na -0.1630(2) -0.8953(10) -0.7661(3) 0.0243(14) Uani 1 1 d . . . . .
Na3 Na -0.3352(2) -0.4658(11) -0.2305(3) 0.0339(17) Uani 1 1 d . . . . .
O8 O -0.1183(3) 0.1706(17) -0.0375(5) 0.020(2) Uani 1 1 d . . . . .
O1 O -0.4990(3) -1.2685(17) -0.0901(5) 0.019(2) Uani 1 1 d . . . . .
O7 O -0.1246(3) -0.2499(17) -0.0402(5) 0.020(2) Uani 1 1 d . . . . .
O20 O -0.3778(4) -0.3609(16) -0.9528(5) 0.022(2) Uani 1 1 d . . . . .
O14 O -0.1381(4) -0.2408(17) -0.8375(5) 0.023(2) Uani 1 1 d . . . . .
O12 O -0.0091(4) -0.3084(17) -0.8992(5) 0.023(2) Uani 1 1 d . . . . .
O9 O -0.2383(3) 0.5753(17) 0.0679(5) 0.023(2) Uani 1 1 d . . . . .
H9A H -0.2080 0.6298 0.1149 0.027 Uiso 1 1 calc R . . . .
H9B H -0.2581 0.4278 0.0856 0.027 Uiso 1 1 calc R . . . .
O4 O -0.3608(4) -0.7810(18) -0.1543(5) 0.025(2) Uani 1 1 d . . . . .
O21 O -0.3766(3) -0.7816(17) -0.9567(5) 0.022(2) Uani 1 1 d . . . . .
O13 O 0.0032(4) -0.7256(18) -0.9039(5) 0.025(2) Uani 1 1 d . . . . .
O15 O -0.1144(3) -0.6505(17) -0.8413(5) 0.022(2) Uani 1 1 d . . . . .
O17 O -0.2584(4) 0.0726(17) -1.0639(5) 0.025(2) Uani 1 1 d . . . . .
H17A H -0.2883 0.1176 -1.1125 0.030 Uiso 1 1 calc R . . . .
H17B H -0.2364 -0.0711 -1.0794 0.030 Uiso 1 1 calc R . . . .
O2 O -0.4883(4) -0.8507(17) -0.0988(5) 0.024(2) Uani 1 1 d . . . . .
O19 O -0.2583(4) -0.8719(17) -0.8468(6) 0.024(2) Uani 1 1 d . . . . .
O23 O -0.4193(3) -0.5478(18) -0.3349(5) 0.024(2) Uani 1 1 d . . . . .
O5 O -0.2390(4) -0.3752(18) -0.1560(6) 0.027(2) Uani 1 1 d . . . . .
O10 O -0.0779(4) 0.0041(19) -0.6625(5) 0.026(2) Uani 1 1 d . . . . .
O3 O -0.3801(4) -1.1989(19) -0.1551(6) 0.027(2) Uani 1 1 d . . . . .
O16 O -0.1855(4) -0.5226(19) -0.6996(5) 0.030(2) Uani 1 1 d . . . . .
H16A H -0.1883 -0.5600 -0.6500 0.045 Uiso 1 1 d GR . . . .
H16B H -0.2184 -0.4588 -0.7265 0.045 Uiso 1 1 d GR . . . .
O18 O -0.2508(4) -1.063(2) -0.7279(6) 0.036(3) Uani 1 1 d . . . . .
N3 N -0.0529(4) -0.408(2) -0.6746(6) 0.020(3) Uani 1 1 d . U . . .
H3 H -0.0442 -0.5554 -0.6504 0.024 Uiso 1 1 calc R . . . .
N1 N -0.4427(4) -0.961(2) -0.3208(6) 0.020(3) Uani 1 1 d . U . . .
H1 H -0.4505 -1.1103 -0.3445 0.024 Uiso 1 1 calc R . . . .
N2 N -0.3471(4) -0.819(2) -0.7042(7) 0.024(3) Uani 1 1 d . . . . .
H2 H -0.3267 -0.7092 -0.6704 0.029 Uiso 1 1 calc R . . . .
C31 C -0.1287(5) -0.038(3) -0.0749(8) 0.0158(14) Uani 1 1 d . . . . .
N4 N -0.1478(5) -0.238(3) -0.2929(7) 0.031(3) Uani 1 1 d . . . . .
H4 H -0.1523 -0.0873 -0.3161 0.037 Uiso 1 1 calc R . . . .
C20 C -0.0015(5) -0.524(3) -0.8668(8) 0.0158(14) Uani 1 1 d . . . . .
O22 O -0.4098(5) -1.142(2) -0.7189(7) 0.050(3) Uani 1 1 d . . . . .
C15 C -0.3691(5) -0.577(3) -0.9195(8) 0.0158(14) Uani 1 1 d . . . . .
C1 C -0.4947(5) -1.074(3) -0.1285(8) 0.0158(14) Uani 1 1 d . . . . .
C5 C -0.4255(5) -0.768(3) -0.3610(8) 0.018(3) Uani 1 1 d . U . . .
C18 C -0.0473(5) -0.373(2) -0.7569(7) 0.017(3) Uani 1 1 d . . . . .
H18 H -0.0369 -0.1909 -0.7630 0.020 Uiso 1 1 calc R . . . .
C21 C -0.0716(5) -0.214(3) -0.6345(8) 0.019(3) Uani 1 1 d . U . . .
C6 C -0.4179(5) -0.827(2) -0.4440(8) 0.020(2) Uani 1 1 d . U . . .
C14 C -0.3514(5) -0.572(2) -0.8273(7) 0.015(3) Uani 1 1 d . . . . .
H14A H -0.3821 -0.4882 -0.8068 0.018 Uiso 1 1 calc R . . . .
H14B H -0.3167 -0.4652 -0.8111 0.018 Uiso 1 1 calc R . . . .
C3 C -0.4486(6) -0.925(3) -0.2377(7) 0.022(3) Uani 1 1 d . . . . .
H3A H -0.4592 -0.7426 -0.2313 0.026 Uiso 1 1 calc R . . . .
O26 O -0.2707(5) -1.390(3) -0.6110(8) 0.039(4) Uani 0.75 1 d . . P A 2
C19 C 0.0009(5) -0.540(3) -0.7762(7) 0.021(3) Uani 1 1 d . . . . .
H19A H 0.0385 -0.4780 -0.7450 0.025 Uiso 1 1 calc R . . . .
H19B H -0.0038 -0.7187 -0.7606 0.025 Uiso 1 1 calc R . . . .
C13 C -0.3388(6) -0.834(3) -0.7848(8) 0.023(3) Uani 1 1 d . . . . .
H13 H -0.3667 -0.9609 -0.8155 0.028 Uiso 1 1 calc R . . . .
C2 C -0.4957(5) -1.094(2) -0.2192(7) 0.017(3) Uani 1 1 d . . . . .
H2A H -0.4895 -1.2733 -0.2333 0.021 Uiso 1 1 calc R . . . .
H2B H -0.5334 -1.0386 -0.2517 0.021 Uiso 1 1 calc R . . . .
O11 O -0.1289(7) -0.652(2) -0.3063(8) 0.082(5) Uani 1 1 d . . . . .
C4 C -0.3916(6) -0.978(3) -0.1778(8) 0.022(3) Uani 1 1 d . . . . .
C22 C -0.0835(5) -0.276(2) -0.5554(8) 0.020(2) Uani 1 1 d . U . . .
C11 C -0.4402(5) -1.033(3) -0.4906(8) 0.025(3) Uani 1 1 d . . . . .
H11 H -0.4632 -1.1514 -0.4700 0.030 Uiso 1 1 calc R . . . .
C30 C -0.1467(6) -0.022(3) -0.1660(8) 0.024(4) Uani 1 1 d . . . . .
H30A H -0.1161 0.0678 -0.1850 0.029 Uiso 1 1 calc R . . . .
H30B H -0.1812 0.0877 -0.1799 0.029 Uiso 1 1 calc R . . . .
C12 C -0.3850(6) -0.967(3) -0.6781(9) 0.023(3) Uani 1 1 d . . . . .
C29 C -0.1599(6) -0.267(3) -0.2139(8) 0.030(4) Uani 1 1 d . . . . .
H29 H -0.1349 -0.4048 -0.1842 0.036 Uiso 1 1 calc R . . . .
C16 C -0.2777(6) -0.926(3) -0.7859(10) 0.028(4) Uani 1 1 d . . . . .
C9 C -0.3945(6) -0.913(3) -0.5953(8) 0.023(4) Uani 1 1 d . . . . .
C27 C -0.1210(6) -0.108(3) -0.5285(8) 0.0287(19) Uani 1 1 d . . . . .
H27 H -0.1361 0.0356 -0.5606 0.034 Uiso 1 1 calc R . . . .
C25 C -0.1140(7) -0.362(3) -0.4105(8) 0.032(4) Uani 1 1 d . . . . .
O6A O -0.2588(6) -0.307(3) -0.2908(9) 0.042(4) Uani 0.732(13) 1 d . . P B 1
C17 C -0.1045(6) -0.422(3) -0.8160(8) 0.024(4) Uani 1 1 d . . . . .
C23 C -0.0619(6) -0.481(3) -0.5088(8) 0.0287(19) Uani 1 1 d . . . . .
H23 H -0.0362 -0.5934 -0.5265 0.034 Uiso 1 1 calc R . . . .
C10 C -0.4301(6) -1.073(3) -0.5666(8) 0.029(4) Uani 1 1 d . . . . .
H10 H -0.4480 -1.2121 -0.5988 0.035 Uiso 1 1 calc R . . . .
C8 C -0.3746(7) -0.699(3) -0.5505(9) 0.039(4) Uani 1 1 d . . . . .
H8 H -0.3532 -0.5772 -0.5727 0.047 Uiso 1 1 calc R . . . .
C7 C -0.3843(6) -0.654(3) -0.4764(8) 0.034(4) Uani 1 1 d . . . . .
H7 H -0.3686 -0.5074 -0.4465 0.040 Uiso 1 1 calc R . . . .
C24 C -0.0768(6) -0.529(3) -0.4372(8) 0.0287(19) Uani 1 1 d . . . . .
H24 H -0.0618 -0.6735 -0.4058 0.034 Uiso 1 1 calc R . . . .
C26 C -0.1363(6) -0.151(3) -0.4555(8) 0.0287(19) Uani 1 1 d . . . . .
H26 H -0.1614 -0.0380 -0.4370 0.034 Uiso 1 1 calc R . . . .
O25 O -0.2787(6) -0.170(4) -0.4488(9) 0.056(5) Uani 0.732(13) 1 d . . P B 1
H25A H -0.2670 -0.2650 -0.4063 0.084 Uiso 0.732(13) 1 d G . P B 1
H25B H -0.2693 -0.0118 -0.4366 0.084 Uiso 0.732(13) 1 d G . P B 1
C28 C -0.1304(7) -0.428(4) -0.3312(10) 0.044(5) Uani 1 1 d . . . . .
C32 C -0.2241(7) -0.340(4) -0.2185(11) 0.053(5) Uani 1 1 d . . . . .
O24 O -0.2955(11) -0.811(5) -0.3013(14) 0.097(8) Uani 0.732(13) 1 d . . P B .
H24A H -0.2829 -0.7881 -0.3429 0.116 Uiso 0.732(13) 1 calc GR . P . .
O27 O -0.2224(18) -1.696(9) -0.561(2) 0.049(12) Uiso 0.25 1 d . . P C -2
O6B O -0.2409(16) -0.555(9) -0.266(2) 0.042(4) Uani 0.268(13) 1 d . . P B -1
C34 C -0.268(2) -1.213(14) -0.583(3) 0.055(16) Uiso 0.3333 1 d . . P . .
C33 C -0.3089(17) -1.032(10) -0.298(3) 0.079(13) Uani 0.5 1 d . . P . .
H33A H -0.2885 -1.1365 -0.3296 0.095 Uiso 0.5 1 calc R . P B .
H33B H -0.2989 -1.0884 -0.2410 0.095 Uiso 0.5 1 calc R . P . .
H33C H -0.3502 -1.0502 -0.3189 0.095 Uiso 0.5 1 calc R . P . .
O28 O -0.227(2) -1.736(12) -0.407(3) 0.073(16) Uiso 0.25 1 d . . P . .
C35 C -0.248(2) -1.542(13) -0.443(3) 0.035(15) Uiso 0.25 1 d . . P . .
loop_
_atom_site_aniso_label
_atom_site_aniso_U_11
_atom_site_aniso_U_22
_atom_site_aniso_U_33
_atom_site_aniso_U_23
_atom_site_aniso_U_13
_atom_site_aniso_U_12
Na8 0.019(3) 0.016(3) 0.030(3) 0.001(3) 0.010(2) 0.002(2)
Na5 0.026(3) 0.006(3) 0.030(3) 0.003(2) 0.012(2) 0.002(2)
Na1 0.021(3) 0.015(3) 0.036(3) 0.000(3) 0.010(2) 0.000(3)
Na4 0.021(3) 0.011(3) 0.039(3) -0.003(3) 0.015(2) 0.002(2)
Na2 0.024(3) 0.011(3) 0.032(3) -0.001(3) 0.009(2) -0.001(2)
Na6 0.022(3) 0.014(3) 0.040(3) -0.002(3) 0.013(2) -0.003(2)
Na7 0.023(3) 0.018(3) 0.034(3) -0.003(3) 0.012(3) 0.002(2)
Na3 0.020(3) 0.045(5) 0.040(4) 0.005(3) 0.015(3) -0.002(3)
O8 0.024(5) 0.013(6) 0.024(5) 0.002(4) 0.007(4) 0.003(4)
O1 0.014(5) 0.013(6) 0.033(6) 0.007(4) 0.010(4) 0.002(4)
O7 0.017(5) 0.010(6) 0.036(6) -0.003(4) 0.012(4) 0.000(4)
O20 0.022(5) 0.010(6) 0.038(6) 0.004(5) 0.011(4) 0.002(4)
O14 0.022(5) 0.012(6) 0.040(6) 0.000(5) 0.016(5) 0.002(5)
O12 0.026(5) 0.015(6) 0.034(6) 0.000(5) 0.018(5) -0.001(4)
O9 0.022(5) 0.019(6) 0.025(5) 0.002(4) 0.001(4) -0.007(4)
O4 0.026(6) 0.018(6) 0.033(6) -0.002(5) 0.009(5) 0.003(5)
O21 0.021(5) 0.016(6) 0.033(6) 0.002(5) 0.017(4) 0.002(4)
O13 0.027(6) 0.022(6) 0.029(6) -0.004(5) 0.011(4) 0.003(5)
O15 0.021(5) 0.011(6) 0.036(6) -0.003(5) 0.010(4) 0.001(4)
O17 0.022(5) 0.016(6) 0.039(6) 0.004(4) 0.010(4) 0.007(4)
O2 0.027(6) 0.012(6) 0.037(6) -0.002(5) 0.016(5) 0.005(4)
O19 0.026(6) 0.016(6) 0.033(6) -0.001(5) 0.014(5) -0.001(4)
O23 0.024(5) 0.014(6) 0.038(6) 0.002(5) 0.013(4) 0.007(4)
O5 0.025(6) 0.025(6) 0.036(6) 0.002(5) 0.016(5) -0.004(5)
O10 0.031(6) 0.025(7) 0.024(5) -0.008(5) 0.011(4) 0.004(5)
O3 0.019(5) 0.020(7) 0.044(7) 0.002(5) 0.011(5) 0.003(5)
O16 0.030(6) 0.027(6) 0.035(6) -0.002(5) 0.013(5) 0.003(5)
O18 0.037(6) 0.024(6) 0.048(7) 0.010(6) 0.010(5) 0.002(5)
N3 0.029(7) 0.012(6) 0.020(6) 0.006(5) 0.009(5) 0.008(5)
N1 0.019(6) 0.015(7) 0.025(6) 0.001(5) 0.005(5) -0.004(5)
N2 0.022(7) 0.025(7) 0.027(8) -0.003(6) 0.011(6) -0.014(5)
C31 0.013(3) 0.006(4) 0.032(4) -0.002(4) 0.011(3) 0.002(3)
N4 0.026(7) 0.042(9) 0.028(8) -0.011(7) 0.011(6) -0.001(6)
C20 0.013(3) 0.006(4) 0.032(4) -0.002(4) 0.011(3) 0.002(3)
O22 0.071(8) 0.039(8) 0.057(7) -0.018(6) 0.049(7) -0.029(7)
C15 0.013(3) 0.006(4) 0.032(4) -0.002(4) 0.011(3) 0.002(3)
C1 0.013(3) 0.006(4) 0.032(4) -0.002(4) 0.011(3) 0.002(3)
C5 0.016(7) 0.007(7) 0.030(7) -0.001(5) 0.006(5) -0.003(5)
C18 0.023(8) 0.005(7) 0.021(8) 0.003(6) 0.003(6) 0.002(6)
C21 0.022(8) 0.007(7) 0.029(7) -0.003(5) 0.009(6) 0.000(6)
C6 0.023(5) 0.010(5) 0.028(5) -0.001(4) 0.009(4) -0.002(4)
C14 0.013(7) 0.012(8) 0.024(8) 0.008(6) 0.011(6) 0.004(6)
C3 0.032(9) 0.018(8) 0.018(8) -0.007(6) 0.009(7) -0.005(7)
O26 0.025(8) 0.057(11) 0.041(9) 0.002(8) 0.016(6) -0.012(7)
C19 0.028(8) 0.012(8) 0.023(8) 0.004(7) 0.009(6) 0.002(7)
C13 0.024(8) 0.022(9) 0.028(9) 0.002(7) 0.015(7) -0.006(6)
C2 0.013(7) 0.007(7) 0.033(8) 0.004(6) 0.007(6) 0.005(6)
O11 0.184(16) 0.021(8) 0.063(9) -0.007(7) 0.075(10) -0.020(9)
C4 0.019(8) 0.020(11) 0.032(9) -0.001(7) 0.014(7) 0.002(7)
C22 0.023(5) 0.010(5) 0.028(5) -0.001(4) 0.009(4) -0.002(4)
C11 0.029(8) 0.012(8) 0.036(9) 0.003(7) 0.011(7) -0.006(7)
C30 0.027(9) 0.017(9) 0.034(9) -0.004(7) 0.019(7) -0.004(7)
C12 0.029(9) 0.007(8) 0.034(9) -0.007(7) 0.012(7) -0.008(7)
C29 0.025(9) 0.031(10) 0.036(10) -0.007(8) 0.011(7) 0.000(7)
C16 0.032(9) 0.010(9) 0.043(10) -0.001(8) 0.011(8) -0.003(7)
C9 0.023(8) 0.017(9) 0.028(9) -0.007(7) 0.002(7) -0.004(7)
C27 0.039(4) 0.009(4) 0.042(5) -0.002(4) 0.018(4) 0.000(3)
C25 0.062(11) 0.020(9) 0.019(8) -0.010(7) 0.019(8) -0.009(8)
O6A 0.046(9) 0.050(10) 0.031(9) 0.002(7) 0.011(7) -0.009(7)
C17 0.024(9) 0.023(10) 0.033(9) 0.004(8) 0.023(7) 0.005(8)
C23 0.039(4) 0.009(4) 0.042(5) -0.002(4) 0.018(4) 0.000(3)
C10 0.031(9) 0.034(10) 0.025(9) -0.001(7) 0.014(7) -0.017(8)
C8 0.065(12) 0.025(10) 0.035(10) 0.004(8) 0.028(9) -0.002(9)
C7 0.052(10) 0.025(9) 0.028(9) -0.014(7) 0.018(8) -0.008(8)
C24 0.039(4) 0.009(4) 0.042(5) -0.002(4) 0.018(4) 0.000(3)
C26 0.039(4) 0.009(4) 0.042(5) -0.002(4) 0.018(4) 0.000(3)
O25 0.027(9) 0.078(14) 0.065(12) 0.004(10) 0.015(8) -0.003(9)
C28 0.045(11) 0.053(14) 0.036(10) -0.009(10) 0.015(9) -0.014(9)
C32 0.045(11) 0.079(15) 0.040(12) -0.037(10) 0.021(10) -0.026(10)
O24 0.13(2) 0.064(17) 0.11(2) 0.002(14) 0.039(15) -0.006(14)
O6B 0.046(9) 0.050(10) 0.031(9) 0.002(7) 0.011(7) -0.009(7)
C33 0.06(3) 0.06(3) 0.10(4) -0.01(3) 0.00(2) 0.01(3)
loop_
_atom_type_symbol
_atom_type_description
_atom_type_scat_dispersion_real
_atom_type_scat_dispersion_imag
_atom_type_scat_source
C C 0.0040 0.0020 'Calculated using XDISP in WinGX (Farrugia, 1999)'
N N 0.0080 0.0040 'Calculated using XDISP in WinGX (Farrugia, 1999)'
O O 0.0130 0.0070 'Calculated using XDISP in WinGX (Farrugia, 1999)'
Na Na 0.0440 0.0300 'Calculated using XDISP in WinGX (Farrugia, 1999)'
loop_
_geom_angle_atom_site_label_1
_geom_angle_atom_site_label_2
_geom_angle_atom_site_label_3
_geom_angle
_geom_angle_site_symmetry_1
_geom_angle_site_symmetry_3
Na8 Na8 Na8 98.1(2) 2_553 2_543
Na8 Na8 Na5 58.95(12) 2_543 2_534
Na8 Na8 Na5 122.2(2) 2_553 2_534
Na8 Na8 Na4 126.45(18) 2_553 2_534
Na8 Na8 Na4 121.05(17) 2_543 2_534
Na5 Na8 Na8 66.54(17) 1_544 2_543
Na5 Na8 Na8 60.53(16) 1_544 2_553
Na5 Na8 Na5 125.33(18) 1_544 2_534
Na5 Na8 Na4 164.88(19) 1_544 2_534
Na5 Na8 Na4 64.67(14) 2_534 2_534
O8 Na8 Na8 157.7(3) 2_534 2_553
O8 Na8 Na8 84.9(2) 2_534 2_543
O8 Na8 Na5 138.7(3) 2_534 1_544
O8 Na8 Na5 41.8(2) 2_534 2_534
O8 Na8 Na4 39.2(2) 2_534 2_534
O8 Na8 O7 80.4(3) 2_534 2_544
O8 Na8 O12 94.5(3) 2_534 1_545
O8 Na8 O12 114.7(3) 2_534 2_543
O8 Na8 O13 86.2(3) 2_534 2_543
O8 Na8 C20 97.3(4) 2_534 2_543
O7 Na8 Na8 88.9(2) 2_544 2_553
O7 Na8 Na8 156.4(3) 2_544 2_543
O7 Na8 Na5 98.3(3) 2_544 2_534
O7 Na8 Na5 135.0(3) 2_544 1_544
O7 Na8 Na4 41.3(2) 2_544 2_534
O7 Na8 O12 81.6(3) 2_544 2_543
O7 Na8 O12 151.5(4) 2_544 1_545
O7 Na8 O13 119.3(3) 2_544 2_543
O7 Na8 C20 97.8(4) 2_544 2_543
O12 Na8 Na8 104.0(3) 1_545 2_553
O12 Na8 Na8 88.0(3) 2_543 2_543
O12 Na8 Na8 47.7(2) 1_545 2_543
O12 Na8 Na8 43.8(2) 2_543 2_553
O12 Na8 Na5 96.1(3) 1_545 2_534
O12 Na8 Na5 94.3(2) 2_543 1_544
O12 Na8 Na5 80.5(2) 2_543 2_534
O12 Na8 Na5 44.3(2) 1_545 1_544
O12 Na8 Na4 98.8(2) 2_543 2_534
O12 Na8 Na4 129.1(3) 1_545 2_534
O12 Na8 O12 125.2(2) 1_545 2_543
O12 Na8 O13 88.1(3) 1_545 2_543
O12 Na8 C20 26.3(3) 2_543 2_543
O12 Na8 C20 110.7(4) 1_545 2_543
O13 Na8 Na8 82.0(3) 2_543 2_553
O13 Na8 Na8 46.0(2) . 2_553
O13 Na8 Na8 40.9(2) 2_543 2_543
O13 Na8 Na8 111.7(3) . 2_543
O13 Na8 Na5 44.8(2) 2_543 2_534
O13 Na8 Na5 45.7(3) . 1_544
O13 Na8 Na5 90.2(2) 2_543 1_544
O13 Na8 Na5 166.1(3) . 2_534
O13 Na8 Na4 103.8(3) 2_543 2_534
O13 Na8 Na4 126.7(3) . 2_534
O13 Na8 O8 151.9(4) . 2_534
O13 Na8 O7 89.3(4) . 2_544
O13 Na8 O12 89.3(3) . 2_543
O13 Na8 O12 51.7(3) 2_543 2_543
O13 Na8 O12 82.1(3) . 1_545
O13 Na8 O13 121.3(3) . 2_543
O13 Na8 C20 110.1(4) . 2_543
O13 Na8 C20 26.2(3) 2_543 2_543
C20 Na8 Na8 65.8(3) 2_543 2_543
C20 Na8 Na8 64.6(3) 2_543 2_553
C20 Na8 Na5 57.6(3) 2_543 2_534
C20 Na8 Na5 97.2(3) 2_543 1_544
C20 Na8 Na4 97.9(3) 2_543 2_534
Na8 Na5 Na8 60.52(12) 1_566 2_564
Na8 Na5 Na7 152.43(19) 1_566 1_566
Na8 Na5 Na7 126.15(18) 2_564 1_566
O8 Na5 Na8 86.3(2) . 1_566
O8 Na5 Na8 41.9(2) . 2_564
O8 Na5 Na7 116.5(3) . 1_566
O8 Na5 O7 52.7(3) . .
O8 Na5 O14 122.1(4) . 1_556
O8 Na5 O12 115.6(3) . 1_556
O8 Na5 O13 87.6(3) . 1_566
O8 Na5 O15 94.7(3) . 1_566
O8 Na5 C31 26.4(3) . .
O8 Na5 C20 90.6(4) . 1_566
O8 Na5 C17 135.9(4) . 1_556
O7 Na5 Na8 86.2(2) . 2_564
O7 Na5 Na8 86.4(2) . 1_566
O7 Na5 Na7 119.3(2) . 1_566
O7 Na5 C31 26.3(3) . .
O7 Na5 C20 135.3(3) . 1_566
O7 Na5 C17 88.2(4) . 1_556
O14 Na5 Na8 138.9(3) 1_556 1_566
O14 Na5 Na8 159.7(3) 1_556 2_564
O14 Na5 Na7 41.8(2) 1_556 1_566
O14 Na5 O7 89.2(3) 1_556 .
O14 Na5 O13 148.9(4) 1_556 1_566
O14 Na5 C31 108.1(4) 1_556 .
O14 Na5 C20 135.3(4) 1_556 1_566
O14 Na5 C17 25.3(3) 1_556 1_556
O12 Na5 Na8 44.7(2) 1_556 1_566
O12 Na5 Na8 104.4(3) 1_556 2_564
O12 Na5 Na7 124.9(3) 1_556 1_566
O12 Na5 O7 80.4(3) 1_556 .
O12 Na5 O14 94.3(3) 1_556 1_556
O12 Na5 O13 79.0(3) 1_556 1_566
O12 Na5 C31 97.2(4) 1_556 .
O12 Na5 C20 97.8(3) 1_556 1_566
O12 Na5 C17 69.2(4) 1_556 1_556
O13 Na5 Na8 41.7(2) 1_566 1_566
O13 Na5 Na8 46.0(2) 1_566 2_564
O13 Na5 Na7 119.6(3) 1_566 1_566
O13 Na5 O7 119.0(3) 1_566 .
O13 Na5 C31 102.9(4) 1_566 .
O13 Na5 C20 22.5(3) 1_566 1_566
O13 Na5 C17 133.9(4) 1_566 1_556
O15 Na5 Na8 86.2(3) 1_566 2_564
O15 Na5 Na8 127.4(3) 1_566 1_566
O15 Na5 Na7 41.1(2) 1_566 1_566
O15 Na5 O7 134.0(3) 1_566 .
O15 Na5 O14 82.8(3) 1_566 1_556
O15 Na5 O12 145.1(4) 1_566 1_556
O15 Na5 O13 85.8(3) 1_566 1_566
O15 Na5 C31 116.8(4) 1_566 .
O15 Na5 C20 63.3(3) 1_566 1_566
O15 Na5 C17 101.6(4) 1_566 1_556
C31 Na5 Na8 84.1(3) . 1_566
C31 Na5 Na8 62.2(3) . 2_564
C31 Na5 Na7 123.2(3) . 1_566
C31 Na5 C20 112.9(4) . 1_566
C31 Na5 C17 113.2(4) . 1_556
C20 Na5 Na8 50.6(3) 1_566 2_564
C20 Na5 Na8 64.1(3) 1_566 1_566
C20 Na5 Na7 98.5(3) 1_566 1_566
C17 Na5 Na8 172.2(3) 1_556 2_564
C17 Na5 Na8 113.7(3) 1_556 1_566
C17 Na5 Na7 61.5(3) 1_556 1_566
C17 Na5 C20 133.3(4) 1_556 1_566
Na1 Na1 Na1 96.0(2) 2_455 2_445
Na1 Na1 Na6 121.75(18) 2_445 2_434
Na1 Na1 Na6 123.36(18) 2_455 2_434
Na2 Na1 Na1 58.00(13) 2_435 2_445
Na2 Na1 Na1 65.85(17) 1_545 2_445
Na2 Na1 Na1 120.5(2) 2_435 2_455
Na2 Na1 Na1 59.84(17) 1_545 2_455
Na2 Na1 Na2 123.69(19) 1_545 2_435
Na2 Na1 Na6 169.2(2) 1_545 2_434
Na2 Na1 Na6 64.96(14) 2_435 2_434
O1 Na1 Na1 80.8(3) 2_445 2_455
O1 Na1 Na1 109.8(3) . 2_445
O1 Na1 Na1 39.2(2) 2_445 2_445
O1 Na1 Na1 43.9(2) . 2_455
O1 Na1 Na2 88.6(2) 2_445 1_545
O1 Na1 Na2 45.0(2) . 1_545
O1 Na1 Na2 162.1(3) . 2_435
O1 Na1 Na2 44.1(2) 2_445 2_435
O1 Na1 Na6 102.0(2) 2_445 2_434
O1 Na1 Na6 128.4(3) . 2_434
O1 Na1 O1 118.0(3) . 2_445
O1 Na1 O20 154.3(4) . 2_434
O1 Na1 O21 89.8(3) . 2_444
O1 Na1 O2 51.8(3) 2_445 2_445
O1 Na1 O2 82.9(3) . 1_545
O1 Na1 O2 86.1(3) . 2_445
O1 Na1 C1 25.8(3) 2_445 2_445
O1 Na1 C1 106.8(4) . 2_445
O20 Na1 Na1 156.3(3) 2_434 2_455
O20 Na1 Na1 87.6(2) 2_434 2_445
O20 Na1 Na2 43.6(3) 2_434 2_435
O20 Na1 Na2 140.8(3) 2_434 1_545
O20 Na1 Na6 39.5(2) 2_434 2_434
O20 Na1 O1 87.5(3) 2_434 2_445
O20 Na1 O21 80.1(3) 2_434 2_444
O20 Na1 O2 114.7(3) 2_434 2_445
O20 Na1 O2 96.5(3) 2_434 1_545
O20 Na1 C1 97.8(4) 2_434 2_445
O21 Na1 Na1 87.2(2) 2_444 2_455
O21 Na1 Na1 154.8(3) 2_444 2_445
O21 Na1 Na2 99.0(3) 2_444 2_435
O21 Na1 Na2 134.7(3) 2_444 1_545
O21 Na1 Na6 41.0(2) 2_444 2_434
O21 Na1 O1 117.8(3) 2_444 2_445
O21 Na1 O2 155.3(4) 2_444 1_545
O21 Na1 O2 79.4(3) 2_444 2_445
O21 Na1 C1 96.3(4) 2_444 2_445
O2 Na1 Na1 47.5(2) 1_545 2_445
O2 Na1 Na1 103.2(3) 1_545 2_455
O2 Na1 Na1 42.6(2) 2_445 2_455
O2 Na1 Na1 86.1(3) 2_445 2_445
O2 Na1 Na2 44.4(2) 1_545 1_545
O2 Na1 Na2 80.2(2) 2_445 2_435
O2 Na1 Na2 94.9(3) 1_545 2_435
O2 Na1 Na2 92.6(2) 2_445 1_545
O2 Na1 Na6 95.5(2) 2_445 2_434
O2 Na1 Na6 133.4(3) 1_545 2_434
O2 Na1 O1 86.3(3) 1_545 2_445
O2 Na1 O2 123.3(3) 1_545 2_445
O2 Na1 C1 108.4(4) 1_545 2_445
O2 Na1 C1 26.7(3) 2_445 2_445
C1 Na1 Na1 63.6(3) 2_445 2_445
C1 Na1 Na1 63.6(3) 2_445 2_455
C1 Na1 Na2 56.9(3) 2_445 2_435
C1 Na1 Na2 95.3(3) 2_445 1_545
C1 Na1 Na6 95.2(3) 2_445 2_434
Na8 Na4 Na5 56.48(13) 2_564 .
Na8 Na4 Na6 138.10(17) 2_564 1_556
Na8 Na4 Na6 134.39(17) 2_564 1_566
Na8 Na4 Na3 127.57(16) 2_564 1_565
Na5 Na4 Na6 130.17(16) . 1_566
Na5 Na4 Na6 83.29(14) . 1_556
Na5 Na4 Na3 150.05(18) . 1_565
Na6 Na4 Na6 79.20(11) 1_566 1_556
Na6 Na4 Na3 71.42(13) 1_566 1_565
Na6 Na4 Na3 81.25(13) 1_556 1_565
O8 Na4 Na8 40.0(2) . 2_564
O8 Na4 Na5 35.7(2) . .
O8 Na4 Na6 164.9(3) . 1_566
O8 Na4 Na6 100.4(3) . 1_556
O8 Na4 Na3 123.6(3) . 1_565
O8 Na4 O7 81.4(3) . 1_565
O8 Na4 O9 134.9(4) . .
O8 Na4 O17 89.8(3) . 1_556
O8 Na4 O5 116.4(4) . 1_565
O8 Na4 C31 21.1(3) . .
O7 Na4 Na8 41.5(2) 1_565 2_564
O7 Na4 Na5 91.0(3) 1_565 .
O7 Na4 Na6 95.5(3) 1_565 1_566
O7 Na4 Na6 166.7(3) 1_565 1_556
O7 Na4 Na3 108.9(3) 1_565 1_565
O7 Na4 O17 163.5(4) 1_565 1_556
O7 Na4 C31 98.8(3) 1_565 .
O9 Na4 Na8 127.8(3) . 2_564
O9 Na4 Na5 99.2(3) . .
O9 Na4 Na6 31.6(2) . 1_566
O9 Na4 Na6 64.5(2) . 1_556
O9 Na4 Na3 97.0(3) . 1_565
O9 Na4 O7 104.8(3) . 1_565
O9 Na4 O17 91.3(3) . 1_556
O9 Na4 C31 139.2(4) . .
O17 Na4 Na8 129.0(3) 1_556 2_564
O17 Na4 Na5 89.9(3) 1_556 .
O17 Na4 Na6 96.4(2) 1_556 1_566
O17 Na4 Na6 29.3(2) 1_556 1_556
O17 Na4 Na3 64.6(2) 1_556 1_565
O17 Na4 C31 70.2(3) 1_556 .
O5 Na4 Na8 103.3(3) 1_565 2_564
O5 Na4 Na5 152.1(3) 1_565 .
O5 Na4 Na6 77.5(3) 1_565 1_566
O5 Na4 Na6 109.2(3) 1_565 1_556
O5 Na4 Na3 28.0(2) 1_565 1_565
O5 Na4 O7 81.2(3) 1_565 1_565
O5 Na4 O9 108.7(4) 1_565 .
O5 Na4 O17 90.3(3) 1_565 1_556
O5 Na4 C31 107.4(4) 1_565 .
C31 Na4 Na8 58.8(2) . 2_564
C31 Na4 Na5 47.1(3) . .
C31 Na4 Na6 165.4(3) . 1_566
C31 Na4 Na6 86.2(3) . 1_556
C31 Na4 Na3 106.2(3) . 1_565
Na1 Na2 Na1 62.16(13) 1_565 2_465
Na1 Na2 Na3 148.51(19) 1_565 .
Na1 Na2 Na3 128.6(2) 2_465 .
O1 Na2 Na1 45.6(2) 1_565 2_465
O1 Na2 Na1 41.5(2) 1_565 1_565
O1 Na2 Na3 119.9(3) 1_565 .
O1 Na2 O21 119.1(3) 1_565 1_556
O1 Na2 O3 87.2(3) 1_565 1_565
O1 Na2 C15 103.7(4) 1_565 1_556
O1 Na2 C1 22.4(3) 1_565 1_565
O1 Na2 C4 134.4(4) 1_565 .
O20 Na2 Na1 42.5(2) 1_556 2_465
O20 Na2 Na1 90.3(2) 1_556 1_565
O20 Na2 Na3 117.4(3) 1_556 .
O20 Na2 O1 87.9(3) 1_556 1_565
O20 Na2 O21 53.5(3) 1_556 1_556
O20 Na2 O3 94.8(3) 1_556 1_565
O20 Na2 C15 27.0(3) 1_556 1_556
O20 Na2 C1 91.1(4) 1_556 1_565
O20 Na2 C4 135.7(4) 1_556 .
O4 Na2 Na1 160.3(3) . 2_465
O4 Na2 Na1 137.1(3) . 1_565
O4 Na2 Na3 39.6(3) . .
O4 Na2 O1 148.1(4) . 1_565
O4 Na2 O20 122.0(4) . 1_556
O4 Na2 O21 90.0(3) . 1_556
O4 Na2 O3 80.3(3) . 1_565
O4 Na2 C15 108.1(4) . 1_556
O4 Na2 C1 134.0(4) . 1_565
O4 Na2 C4 24.7(3) . .
O21 Na2 Na1 86.3(3) 1_556 2_465
O21 Na2 Na1 88.4(2) 1_556 1_565
O21 Na2 Na3 119.5(3) 1_556 .
O21 Na2 C15 26.5(3) 1_556 1_556
O21 Na2 C1 135.8(4) 1_556 1_565
O21 Na2 C4 88.2(4) 1_556 .
O2 Na2 Na1 106.0(3) . 2_465
O2 Na2 Na1 44.9(2) . 1_565
O2 Na2 Na3 120.3(3) . .
O2 Na2 O1 80.2(3) . 1_565
O2 Na2 O20 119.0(3) . 1_556
O2 Na2 O4 92.5(4) . .
O2 Na2 O21 81.5(3) . 1_556
O2 Na2 O3 143.1(4) . 1_565
O2 Na2 C15 99.8(4) . 1_556
O2 Na2 C1 98.0(3) . 1_565
O2 Na2 C4 67.8(4) . .
O3 Na2 Na1 128.2(3) 1_565 1_565
O3 Na2 Na1 88.5(3) 1_565 2_465
O3 Na2 Na3 41.0(3) 1_565 .
O3 Na2 O21 134.1(4) 1_565 1_556
O3 Na2 C15 116.9(4) 1_565 1_556
O3 Na2 C1 64.8(3) 1_565 1_565
O3 Na2 C4 99.1(4) 1_565 .
C15 Na2 Na1 62.9(3) 1_556 2_465
C15 Na2 Na1 88.0(3) 1_556 1_565
C15 Na2 Na3 123.5(3) 1_556 .
C15 Na2 C1 113.9(4) 1_556 1_565
C15 Na2 C4 112.9(4) 1_556 .
C1 Na2 Na1 51.0(3) 1_565 2_465
C1 Na2 Na1 63.6(3) 1_565 1_565
C1 Na2 Na3 99.0(3) 1_565 .
C4 Na2 Na1 172.4(3) . 2_465
C4 Na2 Na1 112.4(3) . 1_565
C4 Na2 Na3 58.9(3) . .
C4 Na2 C1 132.8(4) . 1_565
Na1 Na6 Na4 134.93(17) 2_464 1_554
Na1 Na6 Na4 138.42(17) 2_464 1_544
Na1 Na6 Na2 57.93(13) 2_464 1_564
Na1 Na6 Na2 55.99(13) 2_464 1_554
Na4 Na6 Na4 79.20(11) 1_544 1_554
Na4 Na6 Na2 134.01(15) 1_544 1_564
Na2 Na6 Na4 78.14(13) 1_564 1_554
Na2 Na6 Na4 132.88(16) 1_554 1_554
Na2 Na6 Na4 83.88(14) 1_554 1_544
Na2 Na6 Na2 83.06(13) 1_554 1_564
O20 Na6 Na1 40.1(2) . 2_464
O20 Na6 Na4 169.0(3) . 1_554
O20 Na6 Na4 101.4(3) . 1_544
O20 Na6 Na2 37.2(2) . 1_554
O20 Na6 Na2 94.0(3) . 1_564
O20 Na6 O9 89.5(3) . 1_544
O20 Na6 O21 81.2(3) . 1_565
O20 Na6 O17 140.9(4) . .
O20 Na6 O19 116.2(4) . 1_565
O20 Na6 C16 94.2(4) . 1_565
O9 Na6 Na1 128.9(3) 1_544 2_464
O9 Na6 Na4 31.1(2) 1_544 1_544
O9 Na6 Na4 96.1(2) 1_544 1_554
O9 Na6 Na2 164.9(3) 1_544 1_564
O9 Na6 Na2 91.1(3) 1_544 1_554
O9 Na6 C16 89.1(4) 1_544 1_565
O21 Na6 Na1 41.5(2) 1_565 2_464
O21 Na6 Na4 95.8(3) 1_565 1_554
O21 Na6 Na4 167.2(3) 1_565 1_544
O21 Na6 Na2 33.3(2) 1_565 1_564
O21 Na6 Na2 91.2(3) 1_565 1_554
O21 Na6 O9 161.4(4) 1_565 1_544
O21 Na6 O17 106.4(3) 1_565 .
O21 Na6 C16 75.6(4) 1_565 1_565
O17 Na6 Na1 131.0(3) . 2_464
O17 Na6 Na4 63.7(2) . 1_544
O17 Na6 Na4 30.0(2) . 1_554
O17 Na6 Na2 103.7(3) . 1_554
O17 Na6 Na2 77.1(3) . 1_564
O17 Na6 O9 91.0(3) . 1_544
O17 Na6 C16 124.9(4) . 1_565
O19 Na6 Na1 104.7(3) 1_565 2_464
O19 Na6 Na4 108.6(3) 1_565 1_544
O19 Na6 Na4 73.4(3) 1_565 1_554
O19 Na6 Na2 153.5(3) 1_565 1_554
O19 Na6 Na2 102.5(3) 1_565 1_564
O19 Na6 O9 89.0(3) 1_565 1_544
O19 Na6 O21 80.8(3) 1_565 1_565
O19 Na6 O17 102.8(4) 1_565 .
O19 Na6 C16 22.0(3) 1_565 1_565
C16 Na6 Na1 87.5(3) 1_565 2_464
C16 Na6 Na4 95.3(3) 1_565 1_554
C16 Na6 Na4 116.4(3) 1_565 1_544
C16 Na6 Na2 131.4(3) 1_565 1_554
C16 Na6 Na2 105.1(3) 1_565 1_564
O14 Na7 Na5 43.5(2) 1_545 1_544
O14 Na7 O19 94.0(4) 1_545 .
O14 Na7 O10 86.2(3) 1_545 1_545
O14 Na7 O16 175.7(4) 1_545 .
O14 Na7 O18 101.3(4) 1_545 .
O14 Na7 C16 105.5(4) 1_545 .
O14 Na7 C17 107.2(4) 1_545 .
O15 Na7 Na5 42.1(2) . 1_544
O15 Na7 O14 85.4(3) . 1_545
O15 Na7 O19 101.3(4) . .
O15 Na7 O10 94.1(4) . 1_545
O15 Na7 O16 90.3(4) . .
O15 Na7 O18 154.4(4) . .
O15 Na7 C16 126.6(4) . .
O15 Na7 C17 22.3(3) . .
O19 Na7 Na5 103.3(3) . 1_544
O19 Na7 O10 164.6(4) . 1_545
O19 Na7 O18 54.0(3) . .
O19 Na7 C16 27.8(4) . .
O19 Na7 C17 103.9(4) . .
O10 Na7 Na5 87.4(2) 1_545 1_544
O10 Na7 O18 110.8(4) 1_545 .
O10 Na7 C16 137.9(5) 1_545 .
O10 Na7 C17 90.7(4) 1_545 .
O16 Na7 Na5 132.3(3) . 1_544
O16 Na7 O19 86.4(3) . .
O16 Na7 O10 94.6(4) . 1_545
O16 Na7 O18 82.4(4) . .
O16 Na7 C16 76.8(4) . .
O16 Na7 C17 68.6(4) . .
O18 Na7 Na5 140.6(3) . 1_544
O18 Na7 C16 27.8(4) . .
O18 Na7 C17 145.3(4) . .
C16 Na7 Na5 128.9(4) . 1_544
C16 Na7 C17 122.2(5) . .
C17 Na7 Na5 63.7(3) . 1_544
Na2 Na3 Na4 84.62(15) . 1_545
O4 Na3 Na4 74.5(3) . 1_545
O4 Na3 Na2 41.9(3) . .
O4 Na3 O23 89.8(4) . .
O4 Na3 O5 101.4(4) . .
O4 Na3 O3 84.4(4) . 1_565
O4 Na3 C4 103.9(4) . 1_565
O4 Na3 O6A 144.6(5) . .
O4 Na3 C32 121.8(6) . .
O4 Na3 O24 86.1(6) . .
O4 Na3 O6B 112.4(11) . .
O23 Na3 Na4 162.0(3) . 1_545
O23 Na3 Na2 89.6(2) . .
O23 Na3 O5 164.7(4) . .
O23 Na3 C4 90.6(4) . 1_565
O23 Na3 O6A 109.8(4) . .
O23 Na3 C32 138.3(5) . .
O23 Na3 O24 82.2(7) . .
O23 Na3 O6B 116.1(9) . .
O5 Na3 Na4 27.0(2) . 1_545
O5 Na3 Na2 105.8(3) . .
O5 Na3 C4 96.6(4) . 1_565
O5 Na3 O6A 55.3(4) . .
O5 Na3 C32 26.5(4) . .
O5 Na3 O24 88.2(7) . .
O5 Na3 O6B 50.0(9) . .
O3 Na3 Na4 91.8(3) 1_565 1_545
O3 Na3 Na2 42.8(3) 1_565 .
O3 Na3 O23 95.4(3) 1_565 .
O3 Na3 O5 96.0(4) 1_565 .
O3 Na3 C4 20.1(3) 1_565 1_565
O3 Na3 O6A 121.1(5) 1_565 .
O3 Na3 C32 112.8(5) 1_565 .
O3 Na3 O24 170.2(7) 1_565 .
O3 Na3 O6B 143.3(10) 1_565 .
C4 Na3 Na4 101.5(3) 1_565 1_545
C4 Na3 Na2 62.0(3) 1_565 .
O6A Na3 Na4 80.1(4) . 1_545
O6A Na3 Na2 157.5(4) . .
O6A Na3 C4 105.1(5) . 1_565
O6A Na3 C32 29.2(5) . .
O6A Na3 O24 68.6(7) . .
O6A Na3 O6B 32.6(11) . .
C32 Na3 Na4 51.0(4) . 1_545
C32 Na3 Na2 132.1(4) . .
C32 Na3 C4 105.4(5) . 1_565
O24 Na3 Na4 87.9(6) . 1_545
O24 Na3 Na2 127.5(6) . .
O24 Na3 C4 167.8(6) . 1_565
O24 Na3 C32 74.4(7) . .
O24 Na3 O6B 44.0(11) . .
O6B Na3 Na4 64.0(9) . 1_545
O6B Na3 Na2 146.0(9) . .
O6B Na3 C4 134.0(11) . 1_565
O6B Na3 C32 30.5(10) . .
Na5 O8 Na8 96.4(4) . 2_564
Na4 O8 Na8 100.8(4) . 2_564
Na4 O8 Na5 109.2(4) . .
C31 O8 Na8 130.4(8) . 2_564
C31 O8 Na5 98.5(8) . .
C31 O8 Na4 118.0(7) . .
Na1 O1 Na1 97.0(3) . 2_455
Na1 O1 Na2 93.5(4) . 1_545
Na2 O1 Na1 90.4(3) 1_545 2_455
C1 O1 Na1 93.4(8) . 2_455
C1 O1 Na1 154.7(8) . .
C1 O1 Na2 109.5(7) . 1_545
Na8 O7 Na5 98.0(3) 2_554 .
Na4 O7 Na8 97.2(4) 1_545 2_554
Na4 O7 Na5 118.0(4) 1_545 .
C31 O7 Na8 122.8(7) . 2_554
C31 O7 Na5 85.1(7) . .
C31 O7 Na4 131.5(8) . 1_545
Na1 O20 Na2 93.9(4) 2_464 1_554
Na6 O20 Na1 100.4(4) . 2_464
Na6 O20 Na2 106.9(4) . 1_554
C15 O20 Na1 130.2(8) . 2_464
C15 O20 Na2 93.8(8) . 1_554
C15 O20 Na6 123.8(8) . .
Na7 O14 Na5 94.6(4) 1_565 1_554
C17 O14 Na5 99.0(8) . 1_554
C17 O14 Na7 131.9(9) . 1_565
Na8 O12 Na8 88.5(3) 1_565 2_553
Na5 O12 Na8 91.0(3) 1_554 1_565
Na5 O12 Na8 99.4(4) 1_554 2_553
C20 O12 Na8 88.3(8) . 2_553
C20 O12 Na8 135.1(8) . 1_565
C20 O12 Na5 133.6(8) . 1_554
Na4 O9 Na6 117.3(4) . 1_566
Na4 O9 H9A 108.0 . .
Na4 O9 H9B 108.0 . .
Na6 O9 H9A 108.0 1_566 .
Na6 O9 H9B 108.0 1_566 .
H9A O9 H9B 107.2 . .
Na3 O4 Na2 98.5(4) . .
C4 O4 Na2 104.1(8) . .
C4 O4 Na3 128.5(9) . .
Na1 O21 Na2 100.1(3) 2_454 1_554
Na6 O21 Na1 97.5(4) 1_545 2_454
Na6 O21 Na2 115.7(4) 1_545 1_554
C15 O21 Na1 125.9(8) . 2_454
C15 O21 Na2 88.4(8) . 1_554
C15 O21 Na6 126.5(8) . 1_545
Na8 O13 Na8 93.2(3) . 2_553
Na8 O13 Na5 92.6(4) . 1_544
Na5 O13 Na8 89.1(3) 1_544 2_553
C20 O13 Na8 91.6(8) . 2_553
C20 O13 Na8 158.0(8) . .
C20 O13 Na5 108.9(7) . 1_544
Na7 O15 Na5 96.8(4) . 1_544
C17 O15 Na5 144.8(8) . 1_544
C17 O15 Na7 114.5(8) . .
Na4 O17 H17A 107.1 1_554 .
Na4 O17 H17B 107.1 1_554 .
Na6 O17 Na4 120.7(4) . 1_554
Na6 O17 H17A 107.1 . .
Na6 O17 H17B 107.1 . .
H17A O17 H17B 106.8 . .
Na1 O2 Na1 89.8(3) 1_565 2_455
Na2 O2 Na1 98.2(4) . 2_455
Na2 O2 Na1 90.7(3) . 1_565
C1 O2 Na1 134.1(8) . 1_565
C1 O2 Na1 86.1(8) . 2_455
C1 O2 Na2 135.2(8) . .
Na6 O19 Na7 132.7(4) 1_545 .
C16 O19 Na6 113.5(8) . 1_545
C16 O19 Na7 90.3(8) . .
C5 O23 Na3 116.4(8) . .
Na4 O5 Na3 125.0(4) 1_545 .
C32 O5 Na4 132.3(11) . 1_545
C32 O5 Na3 90.7(9) . .
C21 O10 Na7 119.1(9) . 1_565
Na3 O3 Na2 96.3(4) 1_545 1_545
C4 O3 Na2 139.5(9) . 1_545
C4 O3 Na3 119.5(9) . 1_545
Na7 O16 H16A 110.3 . .
Na7 O16 H16B 109.9 . .
H16A O16 H16B 108.7 . .
C16 O18 Na7 84.9(8) . .
C18 N3 H3 119.7 . .
C21 N3 H3 119.7 . .
C21 N3 C18 120.7(11) . .
C5 N1 H1 119.9 . .
C5 N1 C3 120.3(11) . .
C3 N1 H1 119.9 . .
C13 N2 H2 118.7 . .
C12 N2 H2 118.7 . .
C12 N2 C13 122.5(11) . .
Na5 C31 Na4 79.1(3) . .
O8 C31 Na5 55.1(6) . .
O8 C31 Na4 40.9(6) . .
O8 C31 C30 116.3(11) . .
O7 C31 Na5 68.5(7) . .
O7 C31 Na4 126.5(8) . .
O7 C31 O8 123.2(12) . .
O7 C31 C30 120.5(12) . .
C30 C31 Na5 168.9(9) . .
C30 C31 Na4 98.3(8) . .
C29 N4 H4 118.7 . .
C28 N4 H4 118.7 . .
C28 N4 C29 122.7(14) . .
Na8 C20 Na5 71.8(3) 2_553 1_544
O12 C20 Na8 65.3(7) . 2_553
O12 C20 Na5 126.5(8) . 1_544
O12 C20 C19 117.2(12) . .
O13 C20 Na8 62.2(7) . 2_553
O13 C20 Na5 48.6(6) . 1_544
O13 C20 O12 124.3(12) . .
O13 C20 C19 118.6(12) . .
C19 C20 Na8 160.1(8) . 2_553
C19 C20 Na5 93.8(8) . 1_544
O20 C15 Na2 59.1(7) . 1_554
O20 C15 C14 115.0(11) . .
O21 C15 Na2 65.1(7) . 1_554
O21 C15 O20 124.1(12) . .
O21 C15 C14 120.8(12) . .
C14 C15 Na2 170.2(9) . 1_554
Na1 C1 Na2 72.1(3) 2_455 1_545
O1 C1 Na1 60.8(7) . 2_455
O1 C1 Na2 48.1(6) . 1_545
O1 C1 O2 124.9(12) . .
O1 C1 C2 119.4(11) . .
O2 C1 Na1 67.2(7) . 2_455
O2 C1 Na2 128.3(8) . 1_545
O2 C1 C2 115.7(11) . .
C2 C1 Na1 160.3(8) . 2_455
C2 C1 Na2 93.5(7) . 1_545
O23 C5 N1 123.4(12) . .
O23 C5 C6 120.1(12) . .
N1 C5 C6 116.4(12) . .
N3 C18 H18 107.5 . .
N3 C18 C19 112.2(10) . .
N3 C18 C17 110.1(10) . .
C19 C18 H18 107.5 . .
C17 C18 H18 107.5 . .
C17 C18 C19 111.9(11) . .
O10 C21 N3 121.6(12) . .
O10 C21 C22 121.5(12) . .
N3 C21 C22 116.9(12) . .
C11 C6 C5 126.1(12) . .
C11 C6 C7 117.6(12) . .
C7 C6 C5 116.2(12) . .
C15 C14 H14A 108.2 . .
C15 C14 H14B 108.2 . .
C15 C14 C13 116.2(11) . .
H14A C14 H14B 107.4 . .
C13 C14 H14A 108.2 . .
C13 C14 H14B 108.2 . .
N1 C3 H3A 108.2 . .
N1 C3 C2 111.4(10) . .
N1 C3 C4 110.3(10) . .
C2 C3 H3A 108.2 . .
C2 C3 C4 110.4(11) . .
C4 C3 H3A 108.2 . .
C20 C19 C18 109.2(10) . .
C20 C19 H19A 109.8 . .
C20 C19 H19B 109.8 . .
C18 C19 H19A 109.8 . .
C18 C19 H19B 109.8 . .
H19A C19 H19B 108.3 . .
N2 C13 C14 110.0(11) . .
N2 C13 H13 108.1 . .
N2 C13 C16 111.7(11) . .
C14 C13 H13 108.1 . .
C14 C13 C16 110.7(11) . .
C16 C13 H13 108.1 . .
C1 C2 H2A 109.9 . .
C1 C2 H2B 109.9 . .
C3 C2 C1 109.0(10) . .
C3 C2 H2A 109.9 . .
C3 C2 H2B 109.9 . .
H2A C2 H2B 108.3 . .
Na2 C4 Na3 162.7(6) . 1_545
O4 C4 Na2 51.2(6) . .
O4 C4 Na3 119.4(8) . 1_545
O4 C4 C3 115.2(13) . .
O3 C4 Na2 129.0(10) . .
O3 C4 Na3 40.4(7) . 1_545
O3 C4 O4 126.1(13) . .
O3 C4 C3 118.7(13) . .
C3 C4 Na2 87.3(8) . .
C3 C4 Na3 109.9(9) . 1_545
C27 C22 C21 115.5(12) . .
C23 C22 C21 125.0(12) . .
C23 C22 C27 119.4(12) . .
C6 C11 H11 119.0 . .
C6 C11 C10 122.0(13) . .
C10 C11 H11 119.0 . .
C31 C30 H30A 107.7 . .
C31 C30 H30B 107.7 . .
C31 C30 C29 118.5(12) . .
H30A C30 H30B 107.1 . .
C29 C30 H30A 107.7 . .
C29 C30 H30B 107.7 . .
N2 C12 C9 117.3(12) . .
O22 C12 N2 121.7(13) . .
O22 C12 C9 120.9(12) . .
N4 C29 C30 110.5(12) . .
N4 C29 H29 108.5 . .
N4 C29 C32 112.6(12) . .
C30 C29 H29 108.5 . .
C30 C29 C32 108.3(12) . .
C32 C29 H29 108.5 . .
Na7 C16 Na6 97.0(5) . 1_545
O19 C16 Na6 44.5(7) . 1_545
O19 C16 Na7 61.9(7) . .
O19 C16 O18 122.9(13) . .
O19 C16 C13 118.1(13) . .
O18 C16 Na6 124.8(10) . 1_545
O18 C16 Na7 67.3(8) . .
O18 C16 C13 118.8(13) . .
C13 C16 Na6 96.0(8) . 1_545
C13 C16 Na7 157.3(10) . .
C10 C9 C12 117.4(12) . .
C10 C9 C8 118.1(13) . .
C8 C9 C12 124.2(13) . .
C22 C27 H27 119.8 . .
C26 C27 C22 120.5(13) . .
C26 C27 H27 119.8 . .
C24 C25 C28 117.5(14) . .
C26 C25 C24 121.0(13) . .
C26 C25 C28 121.5(14) . .
C32 O6A Na3 86.6(10) . .
C32 O6A O6B 61.3(19) . .
O6B O6A Na3 76.7(16) . .
Na5 C17 Na7 160.9(6) 1_554 .
O14 C17 Na5 55.7(7) . 1_554
O14 C17 Na7 113.0(9) . .
O14 C17 O15 124.1(13) . .
O14 C17 C18 119.3(13) . .
O15 C17 Na5 126.7(9) . 1_554
O15 C17 Na7 43.3(6) . .
O15 C17 C18 116.6(12) . .
C18 C17 Na5 88.2(8) . 1_554
C18 C17 Na7 110.8(9) . .
C22 C23 H23 119.5 . .
C22 C23 C24 121.1(13) . .
C24 C23 H23 119.5 . .
C11 C10 H10 120.1 . .
C9 C10 C11 119.8(13) . .
C9 C10 H10 120.1 . .
C9 C8 H8 118.6 . .
C7 C8 C9 122.8(15) . .
C7 C8 H8 118.6 . .
C6 C7 H7 120.3 . .
C8 C7 C6 119.3(14) . .
C8 C7 H7 120.3 . .
C25 C24 H24 120.2 . .
C23 C24 C25 119.6(14) . .
C23 C24 H24 120.2 . .
C27 C26 H26 120.8 . .
C25 C26 C27 118.4(13) . .
C25 C26 H26 120.8 . .
H25A O25 H25B 109.5 . .
N4 C28 C25 116.4(16) . .
O11 C28 N4 122.3(15) . .
O11 C28 C25 121.2(16) . .
O5 C32 Na3 62.8(8) . .
O5 C32 C29 118.6(14) . .
O5 C32 O6A 125.5(15) . .
O5 C32 O6B 106(2) . .
C29 C32 Na3 178.6(12) . .
O6A C32 Na3 64.2(9) . .
O6A C32 C29 114.4(15) . .
O6A C32 O6B 61.9(19) . .
O6B C32 Na3 67.1(17) . .
O6B C32 C29 112(2) . .
Na3 O24 H24A 124.0 . .
C33 O24 Na3 122(3) . .
C33 O24 H24A 109.5 . .
O6A O6B Na3 70.7(17) . .
C32 O6B Na3 82.3(19) . .
C32 O6B O6A 57(2) . .
Na3 C33 H33A 87.6 1_545 .
Na3 C33 H33B 50.0 1_545 .
Na3 C33 H33C 75.9 1_545 .
O6A C33 Na3 62.0(15) 1_545 1_545
O6A C33 H33A 37.1 1_545 .
O6A C33 H33B 72.3 1_545 .
O6A C33 H33C 122.1 1_545 .
O24 C33 Na3 158(3) . 1_545
O24 C33 O6A 125(3) . 1_545
O24 C33 H33A 109.5 . .
O24 C33 H33B 109.5 . .
O24 C33 H33C 109.5 . .
H33A C33 H33B 109.5 . .
H33A C33 H33C 109.5 . .
H33B C33 H33C 109.5 . .
loop_
_geom_bond_atom_site_label_1
_geom_bond_atom_site_label_2
_geom_bond_distance
_geom_bond_site_symmetry_2
Na8 Na8 3.470(6) 2_553
Na8 Na8 3.470(6) 2_543
Na8 Na5 3.470(7) 2_534
Na8 Na5 3.415(6) 1_544
Na8 Na4 3.563(6) 2_534
Na8 O8 2.331(10) 2_534
Na8 O7 2.380(10) 2_544
Na8 O12 2.403(10) 1_545
Na8 O12 2.568(10) 2_543
Na8 O13 2.273(10) .
Na8 O13 2.498(10) 2_543
Na8 C20 2.824(14) 2_543
Na5 Na8 3.415(6) 1_566
Na5 Na8 3.470(7) 2_564
Na5 Na7 3.487(7) 1_566
Na5 O8 2.325(10) .
Na5 O7 2.620(10) .
Na5 O14 2.409(10) 1_556
Na5 O12 2.384(10) 1_556
Na5 O13 2.447(10) 1_566
Na5 O15 2.353(10) 1_566
Na5 C31 2.805(14) .
Na5 C20 3.086(14) 1_566
Na5 C17 2.881(15) 1_556
Na1 Na1 3.528(6) 2_455
Na1 Na1 3.528(6) 2_445
Na1 Na2 3.384(6) 1_545
Na1 Na2 3.450(7) 2_435
Na1 Na6 3.569(6) 2_434
Na1 O1 2.245(10) .
Na1 O1 2.464(10) 2_445
Na1 O20 2.336(10) 2_434
Na1 O21 2.385(10) 2_444
Na1 O2 2.602(10) 2_445
Na1 O2 2.390(10) 1_545
Na1 C1 2.817(14) 2_445
Na4 Na8 3.563(6) 2_564
Na4 Na6 4.051(6) 1_566
Na4 Na6 4.173(6) 1_556
Na4 Na3 4.211(7) 1_565
Na4 O8 2.292(9) .
Na4 O7 2.371(10) 1_565
Na4 O9 2.355(9) .
Na4 O17 2.426(10) 1_556
Na4 O5 2.333(11) 1_565
Na4 C31 3.092(14) .
Na2 Na1 3.383(6) 1_565
Na2 Na1 3.450(7) 2_465
Na2 Na3 3.525(7) .
Na2 O1 2.399(9) 1_565
Na2 O20 2.384(10) 1_556
Na2 O4 2.381(10) .
Na2 O21 2.516(10) 1_556
Na2 O2 2.366(10) .
Na2 O3 2.408(11) 1_565
Na2 C15 2.772(14) 1_556
Na2 C1 3.038(14) 1_565
Na2 C4 2.964(15) .
Na6 Na1 3.569(6) 2_464
Na6 Na4 4.173(7) 1_554
Na6 Na4 4.051(6) 1_544
Na6 Na2 3.770(7) 1_554
Na6 Na2 4.128(7) 1_564
Na6 O20 2.308(10) .
Na6 O9 2.389(10) 1_544
Na6 O21 2.360(10) 1_565
Na6 O17 2.375(9) .
Na6 O19 2.355(10) 1_565
Na6 C16 3.084(16) 1_565
Na7 Na5 3.487(7) 1_544
Na7 O14 2.334(10) 1_545
Na7 O15 2.310(10) .
Na7 O19 2.386(10) .
Na7 O10 2.430(10) 1_545
Na7 O16 2.381(10) .
Na7 O18 2.505(10) .
Na7 C16 2.705(15) .
Na7 C17 3.067(16) .
Na3 Na4 4.211(7) 1_545
Na3 O4 2.271(11) .
Na3 O23 2.400(10) .
Na3 O5 2.413(10) .
Na3 O3 2.326(11) 1_565
Na3 C4 3.123(16) 1_565
Na3 O6A 2.446(15) .
Na3 C32 2.713(17) .
Na3 O24 2.48(2) .
Na3 O6B 2.52(4) .
O8 Na8 2.331(10) 2_564
O8 C31 1.262(15) .
O1 Na1 2.464(10) 2_455
O1 Na2 2.399(9) 1_545
O1 C1 1.228(15) .
O7 Na8 2.380(9) 2_554
O7 Na4 2.371(10) 1_545
O7 C31 1.249(15) .
O20 Na1 2.336(10) 2_464
O20 Na2 2.384(10) 1_554
O20 C15 1.263(15) .
O14 Na5 2.409(10) 1_554
O14 Na7 2.334(10) 1_565
O14 C17 1.245(16) .
O12 Na8 2.403(10) 1_565
O12 Na8 2.568(10) 2_553
O12 Na5 2.384(10) 1_554
O12 C20 1.254(15) .
O9 Na6 2.389(10) 1_566
O9 H9A 0.9900 .
O9 H9B 0.9900 .
O4 C4 1.278(17) .
O21 Na1 2.385(10) 2_454
O21 Na2 2.516(10) 1_554
O21 Na6 2.360(10) 1_545
O21 C15 1.236(16) .
O13 Na8 2.499(10) 2_553
O13 Na5 2.447(10) 1_544
O13 C20 1.248(16) .
O15 Na5 2.353(10) 1_544
O15 C17 1.277(17) .
O17 Na4 2.426(10) 1_554
O17 H17A 0.9900 .
O17 H17B 0.9900 .
O2 Na1 2.602(10) 2_455
O2 Na1 2.390(9) 1_565
O2 C1 1.270(15) .
O19 Na6 2.355(10) 1_545
O19 C16 1.262(16) .
O23 C5 1.235(16) .
O5 Na4 2.333(11) 1_545
O5 C32 1.210(19) .
O10 Na7 2.430(10) 1_565
O10 C21 1.236(16) .
O3 Na2 2.408(11) 1_545
O3 Na3 2.326(11) 1_545
O3 C4 1.233(17) .
O16 H16A 0.8832 .
O16 H16B 0.8836 .
O18 C16 1.268(17) .
N3 H3 0.8800 .
N3 C18 1.446(16) .
N3 C21 1.355(16) .
N1 H1 0.8800 .
N1 C5 1.337(16) .
N1 C3 1.464(16) .
N2 H2 0.8800 .
N2 C13 1.430(16) .
N2 C12 1.348(17) .
C31 C30 1.509(17) .
N4 H4 0.8800 .
N4 C29 1.444(17) .
N4 C28 1.31(2) .
C20 Na8 2.824(14) 2_553
C20 Na5 3.086(14) 1_544
C20 C19 1.528(17) .
O22 C12 1.218(16) .
C15 Na2 2.772(14) 1_554
C15 C14 1.525(17) .
C1 Na1 2.817(14) 2_455
C1 Na2 3.038(14) 1_545
C1 C2 1.538(17) .
C5 C6 1.495(18) .
C18 H18 1.0000 .
C18 C19 1.545(17) .
C18 C17 1.527(19) .
C21 C22 1.472(18) .
C6 C11 1.372(19) .
C6 C7 1.409(19) .
C14 H14A 0.9900 .
C14 H14B 0.9900 .
C14 C13 1.548(18) .
C3 H3A 1.0000 .
C3 C2 1.529(17) .
C3 C4 1.531(19) .
O26 C34 1.04(7) .
C19 H19A 0.9900 .
C19 H19B 0.9900 .
C13 H13 1.0000 .
C13 C16 1.549(19) .
C2 H2A 0.9900 .
C2 H2B 0.9900 .
O11 C28 1.25(2) .
C4 Na3 3.123(16) 1_545
C22 C27 1.411(18) .
C22 C23 1.365(19) .
C11 H11 0.9500 .
C11 C10 1.384(17) .
C30 H30A 0.9900 .
C30 H30B 0.9900 .
C30 C29 1.515(19) .
C12 C9 1.504(19) .
C29 H29 1.0000 .
C29 C32 1.58(2) .
C16 Na6 3.084(16) 1_545
C9 C10 1.368(18) .
C9 C8 1.38(2) .
C27 H27 0.9500 .
C27 C26 1.391(18) .
C25 C24 1.40(2) .
C25 C26 1.38(2) .
C25 C28 1.53(2) .
O6A C32 1.33(2) .
O6A O6B 1.40(5) .
C17 Na5 2.881(15) 1_554
C23 H23 0.9500 .
C23 C24 1.367(18) .
C10 H10 0.9500 .
C8 H8 0.9500 .
C8 C7 1.352(19) .
C7 H7 0.9500 .
C24 H24 0.9500 .
C26 H26 0.9500 .
O25 H25A 0.8699 .
O25 H25B 0.8699 .
C32 O6B 1.39(5) .
O24 H24A 0.8400 .
O24 C33 1.21(5) .
C33 Na3 2.68(5) 1_545
C33 O6A 1.87(5) 1_545
C33 H33A 0.9800 .
C33 H33B 0.9800 .
C33 H33C 0.9800 .
O28 C35 1.23(8) .
loop_
_geom_hbond_atom_site_label_D
_geom_hbond_atom_site_label_H
_geom_hbond_atom_site_label_A
_geom_hbond_distance_DH
_geom_hbond_distance_HA
_geom_hbond_distance_DA
_geom_hbond_angle_DHA
_geom_hbond_site_symmetry_A
O17 H17A O4 0.99 1.80 2.695(12) 148.0 1_564
O17 H17B O5 0.99 2.05 2.918(13) 145.2 1_554
O16 H16A O26 0.88 2.40 2.893(15) 115.5 1_565
O16 H16A O27 0.88 2.00 2.84(4) 158.5 1_565
O16 H16B O18 0.88 2.22 2.857(14) 129.1 1_565
N3 H3 O10 0.88 2.44 3.158(15) 139.1 1_545
N1 H1 O23 0.88 2.41 3.147(14) 141.9 1_545
N2 H2 O26 0.88 2.24 3.098(19) 166.5 1_565
N4 H4 O11 0.88 2.35 3.125(18) 147.2 1_565
C14 H14A O22 0.99 2.53 3.412(16) 147.6 1_565
C2 H2B O22 0.99 2.47 3.283(17) 138.7 2_454
C30 H30A O11 0.99 2.49 3.178(18) 126.2 1_565
C30 H30B O6B 0.99 2.60 3.50(5) 151.0 1_565
O25 H25A O6A 0.87 1.94 2.71(2) 147.6 .
O25 H25A O28 0.87 2.65 3.23(6) 125.3 1_565
O25 H25B O24 0.87 2.73 3.23(3) 118.0 1_565
O25 H25B O28 0.87 1.77 2.61(6) 160.8 1_575
O24 H24A O28 0.84 1.93 2.73(6) 158.2 1_565
C33 H33A O25 0.98 2.10 2.92(5) 139.8 1_545
C33 H33B O5 0.98 2.34 3.16(5) 141.0 1_545
C33 H33C N1 0.98 2.27 3.17(4) 153.2 .
loop_
_geom_torsion_atom_site_label_1
_geom_torsion_atom_site_label_2
_geom_torsion_atom_site_label_3
_geom_torsion_atom_site_label_4
_geom_torsion
_geom_torsion_site_symmetry_1
_geom_torsion_site_symmetry_4
Na8 O8 C31 Na5 105.9(9) 2_564 .
Na8 O8 C31 Na4 -137.0(12) 2_564 .
Na8 O8 C31 O7 113.8(12) 2_564 .
Na8 O8 C31 C30 -66.0(14) 2_564 .
Na8 O7 C31 Na5 -96.4(7) 2_554 .
Na8 O7 C31 Na4 -153.5(5) 2_554 .
Na8 O7 C31 O8 -103.3(12) 2_554 .
Na8 O7 C31 C30 76.5(13) 2_554 .
Na8 O12 C20 Na8 -86.2(10) 1_565 2_553
Na8 O12 C20 Na5 -39.7(8) 2_553 1_544
Na8 O12 C20 Na5 -125.9(8) 1_565 1_544
Na8 O12 C20 O13 20.9(12) 2_553 .
Na8 O12 C20 O13 -65.3(17) 1_565 .
Na8 O12 C20 C19 -158.0(10) 2_553 .
Na8 O12 C20 C19 115.8(11) 1_565 .
Na8 O13 C20 Na8 103(2) . 2_553
Na8 O13 C20 Na5 -168(3) . 1_544
Na8 O13 C20 Na5 89.6(5) 2_553 1_544
Na8 O13 C20 O12 -21.5(12) 2_553 .
Na8 O13 C20 O12 81(3) . .
Na8 O13 C20 C19 -100(2) . .
Na8 O13 C20 C19 157.4(10) 2_553 .
Na8 C20 C19 C18 -48(3) 2_553 .
Na5 O8 C31 Na4 117.1(7) . .
Na5 O8 C31 O7 7.9(12) . .
Na5 O8 C31 C30 -171.9(9) . .
Na5 O7 C31 Na4 -57.1(8) . .
Na5 O7 C31 O8 -6.9(11) . .
Na5 O7 C31 C30 172.8(10) . .
Na5 O14 C17 Na7 -162.5(5) 1_554 .
Na5 O14 C17 O15 -114.4(12) 1_554 .
Na5 O14 C17 C18 64.7(12) 1_554 .
Na5 O12 C20 Na8 101.4(10) 1_554 2_553
Na5 O12 C20 Na5 61.7(14) 1_554 1_544
Na5 O12 C20 O13 122.2(12) 1_554 .
Na5 O12 C20 C19 -56.7(16) 1_554 .
Na5 O13 C20 Na8 -89.6(5) 1_544 2_553
Na5 O13 C20 O12 -111.1(11) 1_544 .
Na5 O13 C20 C19 67.8(12) 1_544 .
Na5 O15 C17 Na5 51(2) 1_544 1_554
Na5 O15 C17 Na7 -150.4(18) 1_544 .
Na5 O15 C17 O14 121.3(14) 1_544 .
Na5 O15 C17 C18 -58(2) 1_544 .
Na5 C31 C30 C29 143(4) . .
Na5 C20 C19 C18 -91.0(9) 1_544 .
Na1 O1 C1 Na1 114(2) . 2_455
Na1 O1 C1 Na2 91.6(5) 2_455 1_545
Na1 O1 C1 Na2 -154(2) . 1_545
Na1 O1 C1 O2 93(2) . .
Na1 O1 C1 O2 -21.4(12) 2_455 .
Na1 O1 C1 C2 157.4(9) 2_455 .
Na1 O1 C1 C2 -88(2) . .
Na1 O20 C15 Na2 98.4(9) 2_464 1_554
Na1 O20 C15 O21 104.1(13) 2_464 .
Na1 O20 C15 C14 -72.7(13) 2_464 .
Na1 O21 C15 Na2 -101.3(8) 2_454 1_554
Na1 O21 C15 O20 -106.7(12) 2_454 .
Na1 O21 C15 C14 69.9(14) 2_454 .
Na1 O2 C1 Na1 -86.0(9) 1_565 2_455
Na1 O2 C1 Na2 -40.7(9) 2_455 1_545
Na1 O2 C1 Na2 -126.7(8) 1_565 1_545
Na1 O2 C1 O1 20.2(12) 2_455 .
Na1 O2 C1 O1 -65.8(17) 1_565 .
Na1 O2 C1 C2 115.4(11) 1_565 .
Na1 O2 C1 C2 -158.6(9) 2_455 .
Na1 C1 C2 C3 -51(3) 2_455 .
Na4 O8 C31 Na5 -117.1(7) . .
Na4 O8 C31 O7 -109.2(11) . .
Na4 O8 C31 C30 71.0(12) . .
Na4 O7 C31 Na5 123.6(9) 1_545 .
Na4 O7 C31 Na4 66.4(13) 1_545 .
Na4 O7 C31 O8 116.6(12) 1_545 .
Na4 O7 C31 C30 -63.6(15) 1_545 .
Na4 O5 C32 Na3 142.0(12) 1_545 .
Na4 O5 C32 C29 -38(2) 1_545 .
Na4 O5 C32 O6A 156.3(14) 1_545 .
Na4 O5 C32 O6B 89(2) 1_545 .
Na4 C31 C30 C29 -141.2(10) . .
Na2 O1 C1 Na1 -91.6(5) 1_545 2_455
Na2 O1 C1 O2 -113.0(11) 1_545 .
Na2 O1 C1 C2 65.8(12) 1_545 .
Na2 O20 C15 O21 5.7(12) 1_554 .
Na2 O20 C15 C14 -171.1(8) 1_554 .
Na2 O4 C4 Na3 -162.3(5) . 1_545
Na2 O4 C4 O3 -114.5(13) . .
Na2 O4 C4 C3 63.5(11) . .
Na2 O21 C15 O20 -5.4(12) 1_554 .
Na2 O21 C15 C14 171.2(10) 1_554 .
Na2 O2 C1 Na1 97.7(10) . 2_455
Na2 O2 C1 Na2 57.1(15) . 1_545
Na2 O2 C1 O1 118.0(12) . .
Na2 O2 C1 C2 -60.8(15) . .
Na2 O3 C4 Na2 50.6(19) 1_545 .
Na2 O3 C4 Na3 -148.7(18) 1_545 1_545
Na2 O3 C4 O4 116.6(14) 1_545 .
Na2 O3 C4 C3 -61.4(19) 1_545 .
Na2 C1 C2 C3 -92.9(9) 1_545 .
Na6 O20 C15 Na2 -113.3(8) . 1_554
Na6 O20 C15 O21 -107.6(12) . .
Na6 O20 C15 C14 75.6(12) . .
Na6 O21 C15 Na2 121.2(8) 1_545 1_554
Na6 O21 C15 O20 115.8(12) 1_545 .
Na6 O21 C15 C14 -67.6(14) 1_545 .
Na6 O19 C16 Na7 137.9(7) 1_545 .
Na6 O19 C16 O18 108.1(13) 1_545 .
Na6 O19 C16 C13 -67.9(13) 1_545 .
Na7 O14 C17 Na5 -104.6(10) 1_565 1_554
Na7 O14 C17 Na7 92.9(11) 1_565 .
Na7 O14 C17 O15 141.0(11) 1_565 .
Na7 O14 C17 C18 -40.0(17) 1_565 .
Na7 O15 C17 Na5 -158.1(6) . 1_554
Na7 O15 C17 O14 -88.3(14) . .
Na7 O15 C17 C18 92.7(11) . .
Na7 O19 C16 Na6 -137.9(7) . 1_545
Na7 O19 C16 O18 -29.8(14) . .
Na7 O19 C16 C13 154.2(11) . .
Na7 O10 C21 N3 79.5(14) 1_565 .
Na7 O10 C21 C22 -101.3(12) 1_565 .
Na7 O18 C16 Na6 82.5(9) . 1_545
Na7 O18 C16 O19 28.4(13) . .
Na7 O18 C16 C13 -155.7(12) . .
Na3 O4 C4 Na2 -113.3(10) . .
Na3 O4 C4 Na3 84.4(12) . 1_545
Na3 O4 C4 O3 132.3(12) . .
Na3 O4 C4 C3 -49.7(15) . .
Na3 O23 C5 N1 76.2(14) . .
Na3 O23 C5 C6 -108.4(12) . .
Na3 O5 C32 C29 -180.0(15) . .
Na3 O5 C32 O6A 14(2) . .
Na3 O5 C32 O6B -53(2) . .
Na3 O3 C4 Na2 -160.7(6) 1_545 .
Na3 O3 C4 O4 -94.7(15) 1_545 .
Na3 O3 C4 C3 87.4(12) 1_545 .
Na3 O6A C32 O5 -14(2) . .
Na3 O6A C32 C29 179.6(13) . .
Na3 O6A C32 O6B 76.6(18) . .
Na3 O6A O6B C32 -93.5(13) . .
Na3 C32 O6B O6A 71.9(13) . .
Na3 O24 C33 Na3 -41(10) . 1_545
Na3 O24 C33 O6A -142(3) . 1_545
O8 C31 C30 C29 -179.9(11) . .
O1 C1 C2 C3 -135.8(12) . .
O7 C31 C30 C29 0.3(18) . .
O20 C15 C14 C13 -178.4(10) . .
O12 C20 C19 C18 43.8(15) . .
O21 C15 C14 C13 4.7(17) . .
O13 C20 C19 C18 -135.1(12) . .
O2 C1 C2 C3 43.1(14) . .
O23 C5 C6 C11 -157.8(13) . .
O23 C5 C6 C7 22.7(19) . .
O5 C32 O6B Na3 50.1(17) . .
O5 C32 O6B O6A 122.0(18) . .
O10 C21 C22 C27 22.7(19) . .
O10 C21 C22 C23 -158.6(14) . .
N3 C18 C19 C20 171.5(11) . .
N3 C18 C17 Na5 139.0(9) . 1_554
N3 C18 C17 Na7 -43.1(12) . .
N3 C18 C17 O14 90.7(14) . .
N3 C18 C17 O15 -90.2(14) . .
N3 C21 C22 C27 -158.0(12) . .
N3 C21 C22 C23 20.6(19) . .
N1 C5 C6 C11 18(2) . .
N1 C5 C6 C7 -161.5(12) . .
N1 C3 C2 C1 172.7(10) . .
N1 C3 C4 Na2 139.7(9) . .
N1 C3 C4 Na3 -42.9(12) . 1_545
N1 C3 C4 O4 95.4(13) . .
N1 C3 C4 O3 -86.4(14) . .
N2 C13 C16 Na6 161.6(9) . 1_545
N2 C13 C16 Na7 -74(3) . .
N2 C13 C16 O19 -157.7(12) . .
N2 C13 C16 O18 26.1(18) . .
N2 C12 C9 C10 -176.0(13) . .
N2 C12 C9 C8 11(2) . .
C31 C30 C29 N4 -150.8(11) . .
C31 C30 C29 C32 85.4(15) . .
N4 C29 C32 O5 178.3(16) . .
N4 C29 C32 O6A -14(2) . .
N4 C29 C32 O6B 54(3) . .
O22 C12 C9 C10 2(2) . .
O22 C12 C9 C8 -170.3(14) . .
C15 C14 C13 N2 -155.1(10) . .
C15 C14 C13 C16 81.0(14) . .
C5 N1 C3 C2 149.3(12) . .
C5 N1 C3 C4 -87.7(14) . .
C5 C6 C11 C10 -179.1(13) . .
C5 C6 C7 C8 178.5(14) . .
C18 N3 C21 O10 -8.8(19) . .
C18 N3 C21 C22 172.0(11) . .
C21 N3 C18 C19 149.8(11) . .
C21 N3 C18 C17 -84.9(14) . .
C21 C22 C27 C26 178.5(13) . .
C21 C22 C23 C24 -177.8(13) . .
C6 C11 C10 C9 4(2) . .
C14 C13 C16 Na6 -75.5(10) . 1_545
C14 C13 C16 Na7 49(3) . .
C14 C13 C16 O19 -34.8(17) . .
C14 C13 C16 O18 149.0(12) . .
C3 N1 C5 O23 -7.4(19) . .
C3 N1 C5 C6 177.0(11) . .
C19 C18 C17 Na5 -95.5(9) . 1_554
C19 C18 C17 Na7 82.4(10) . .
C19 C18 C17 O14 -143.8(11) . .
C19 C18 C17 O15 35.3(16) . .
C13 N2 C12 O22 8(2) . .
C13 N2 C12 C9 -173.2(12) . .
C2 C3 C4 Na2 -96.8(9) . .
C2 C3 C4 Na3 80.6(10) . 1_545
C2 C3 C4 O4 -141.0(11) . .
C2 C3 C4 O3 37.1(17) . .
C4 C3 C2 C1 49.9(14) . .
C22 C27 C26 C25 0(2) . .
C22 C23 C24 C25 -1(2) . .
C11 C6 C7 C8 -1(2) . .
C30 C29 C32 O5 -59(2) . .
C30 C29 C32 O6A 108.0(16) . .
C30 C29 C32 O6B 176(2) . .
C12 N2 C13 C14 120.9(13) . .
C12 N2 C13 C16 -115.8(14) . .
C12 C9 C10 C11 179.7(12) . .
C12 C9 C8 C7 179.4(15) . .
C29 N4 C28 O11 8(2) . .
C29 N4 C28 C25 -174.4(12) . .
C29 C32 O6B Na3 -178.7(15) . .
C29 C32 O6B O6A -106.8(19) . .
C9 C8 C7 C6 -3(2) . .
C27 C22 C23 C24 1(2) . .
O6A C32 O6B Na3 -71.9(13) . .
C17 C18 C19 C20 47.2(14) . .
C23 C22 C27 C26 0(2) . .
C10 C9 C8 C7 7(2) . .
C8 C9 C10 C11 -7(2) . .
C7 C6 C11 C10 0(2) . .
C24 C25 C26 C27 0(2) . .
C24 C25 C28 N4 157.1(14) . .
C24 C25 C28 O11 -25(2) . .
C26 C25 C24 C23 0(2) . .
C26 C25 C28 N4 -25(2) . .
C26 C25 C28 O11 152.9(17) . .
C28 N4 C29 C30 148.4(14) . .
C28 N4 C29 C32 -90.3(17) . .
C28 C25 C24 C23 178.4(13) . .
C28 C25 C26 C27 -177.7(14) . .
C32 O6A O6B Na3 93.5(13) . .
O6B O6A C32 Na3 -76.6(18) . .
O6B O6A C32 O5 -91(3) . .
O6B O6A C32 C29 103(2) . .
