#------------------------------------------------------------------------------
#$Date: 2018-10-05 15:19:55 +0300 (Fri, 05 Oct 2018) $
#$Revision: 211332 $
#$URL: file:///home/coder/svn-repositories/cod/cif/7/11/81/7118128.cif $
#------------------------------------------------------------------------------
#
# This file is available in the Crystallography Open Database (COD),
# http://www.crystallography.net/
#
# All data on this site have been placed in the public domain by the
# contributors.
#
data_7118128
loop_
_publ_author_name
'Siman, Peter'
'Trickett, Christopher A.'
'Furukawa, Hiroyasu'
'Yaghi, Omar M.'
_publ_section_title
;
 l-Aspartate links for stable sodium metal-organic frameworks.
;
_journal_issue                   98
_journal_name_full
'Chemical communications (Cambridge, England)'
_journal_page_first              17463
_journal_page_last               17466
_journal_paper_doi               10.1039/c5cc07578e
_journal_volume                  51
_journal_year                    2015
_chemical_absolute_configuration rm
_chemical_formula_moiety         'C22 H18 N2 Na4 O12, C0.5 H2.5 O'
_chemical_formula_sum            'C22.5 H20.5 N2 Na4 O13'
_chemical_formula_weight         618.87
_chemical_name_common            'MOF-706 as-synthesized'
_space_group_crystal_system      monoclinic
_space_group_IT_number           4
_space_group_name_Hall           'P 2yb'
_space_group_name_H-M_alt        'P 1 21 1'
_symmetry_space_group_name_Hall  'P 2yb'
_symmetry_space_group_name_H-M   'P 1 21 1'
_atom_sites_solution_hydrogens   geom
_atom_sites_solution_primary     'intrinsic phasing'
_atom_sites_solution_secondary   difmap
_audit_creation_date             2015-08-18
_audit_creation_method
;
Olex2 1.2
(compiled 2015.01.26 svn.r3150 for OlexSys, GUI svn.r4998)
;
_audit_update_record
;
2015-08-24 deposited with the CCDC.
2015-09-30 downloaded from the CCDC.
;
_cell_angle_alpha                90
_cell_angle_beta                 103.886(6)
_cell_angle_gamma                90
_cell_formula_units_Z            2
_cell_length_a                   12.0790(15)
_cell_length_b                   5.2419(6)
_cell_length_c                   21.254(3)
_cell_measurement_reflns_used    2395
_cell_measurement_temperature    100(2)
_cell_measurement_theta_max      21.631
_cell_measurement_theta_min      2.218
_cell_volume                     1306.4(3)
_computing_cell_refinement       'SAINT V8.34A Bruker-AXS, Madison WI'
_computing_data_collection       'Bruker APEX2 Bruker-AXS, Madison WI'
_computing_data_reduction        'SAINT V8.34A Bruker-AXS, Madison WI'
_computing_molecular_graphics
;
Bruker SHELXTL Bruker-AXS, Madison WI
Diamond - Crystal and Molecular Structure Visualization
Crystal Impact - Dr. H. Putz & Dr. K. Brandenburg GbR, Kreuzherrenstr. 
102, 53227 Bonn, Germany
http://www.crystalimpact.com/diamond
and local programs
;
_computing_publication_material  'Bruker SHELXTL Bruker-AXS, Madison WI'
_computing_structure_refinement  'SHELXL-2014/7 (Sheldrick, 2013)'
_computing_structure_solution    'SHELXT 2014/4 Bruker-AXS, Madison WI'
_diffrn_ambient_temperature      100(2)
_diffrn_detector_area_resol_mean 10.42
_diffrn_measured_fraction_theta_full 0.999
_diffrn_measured_fraction_theta_max 0.998
_diffrn_measurement_device_type  'Bruker D8 with PHOTON 100 detector'
_diffrn_measurement_method       '\f and \w shutterless scans'
_diffrn_radiation_monochromator  'silicon 111'
_diffrn_radiation_type           synchrotron
_diffrn_radiation_wavelength     0.8856
_diffrn_reflns_av_R_equivalents  0.1134
_diffrn_reflns_av_unetI/netI     0.0845
_diffrn_reflns_Laue_measured_fraction_full 0.999
_diffrn_reflns_Laue_measured_fraction_max 0.998
_diffrn_reflns_limit_h_max       9
_diffrn_reflns_limit_h_min       -10
_diffrn_reflns_limit_k_max       4
_diffrn_reflns_limit_k_min       -4
_diffrn_reflns_limit_l_max       17
_diffrn_reflns_limit_l_min       -17
_diffrn_reflns_number            7646
_diffrn_reflns_point_group_measured_fraction_full 0.997
_diffrn_reflns_point_group_measured_fraction_max 0.994
_diffrn_reflns_theta_full        21.655
_diffrn_reflns_theta_max         21.724
_diffrn_reflns_theta_min         2.164
_diffrn_source
;
Advanced Light Source, station 11.3.1
;
_exptl_absorpt_coefficient_mu    0.323
_exptl_absorpt_correction_T_max  0.999
_exptl_absorpt_correction_T_min  0.811
_exptl_absorpt_correction_type   multi-scan
_exptl_absorpt_process_details
;
SADABS-2014/4 (Bruker,2014/4) was used for absorption correction.
wR2(int) was 0.1184 before and 0.0852 after correction.
The Ratio of minimum to maximum transmission is 0.8113.
The \l/2 correction factor is Not present.
;
_exptl_crystal_colour            Colorless
_exptl_crystal_density_diffrn    1.573
_exptl_crystal_description       Needle
_exptl_crystal_F_000             635
_exptl_crystal_size_max          0.01
_exptl_crystal_size_mid          0.002
_exptl_crystal_size_min          0.002
_refine_diff_density_max         0.535
_refine_diff_density_min         -0.457
_refine_diff_density_rms         0.093
_refine_ls_abs_structure_details
;
 Flack x determined using 441 quotients [(I+)-(I-)]/[(I+)+(I-)]
 (Parsons, Flack and Wagner, Acta Cryst. B69 (2013) 249-259).
;
_refine_ls_abs_structure_Flack   -0.8(6)
_refine_ls_extinction_method     none
_refine_ls_goodness_of_fit_ref   1.070
_refine_ls_hydrogen_treatment    constr
_refine_ls_matrix_type           full
_refine_ls_number_parameters     327
_refine_ls_number_reflns         1594
_refine_ls_number_restraints     106
_refine_ls_restrained_S_all      1.042
_refine_ls_R_factor_all          0.0977
_refine_ls_R_factor_gt           0.0721
_refine_ls_shift/su_max          0.000
_refine_ls_shift/su_mean         0.000
_refine_ls_structure_factor_coef Fsqd
_refine_ls_weighting_details
'w=1/[\s^2^(Fo^2^)+(0.1483P)^2^+0.7645P] where P=(Fo^2^+2Fc^2^)/3'
_refine_ls_weighting_scheme      calc
_refine_ls_wR_factor_gt          0.1879
_refine_ls_wR_factor_ref         0.2093
_reflns_Friedel_coverage         0.701
_reflns_Friedel_fraction_full    0.994
_reflns_Friedel_fraction_max     0.989
_reflns_number_gt                1241
_reflns_number_total             1594
_reflns_threshold_expression     'I > 2\s(I)'
_cod_data_source_file            c5cc07578e2.cif
_cod_data_source_block           MOF-706_as
_cod_original_formula_sum        'C22.50 H20.50 N2 Na4 O13'
_cod_database_code               7118128
_shelxl_version_number           2014/6
_shelx_space_group_comment
;
The symmetry employed for this shelxl refinement is uniquely defined
by the following loop, which should always be used as a source of
symmetry information in preference to the above space-group names.
They are only intended as comments.
;
_shelx_estimated_absorpt_t_max   0.999
_shelx_estimated_absorpt_t_min   0.997
_olex2_refinement_description
;
1. Fixed Uiso
 At 1.2 times of:
  All C(H) groups, All C(H,H) groups, All N(H) groups, All O(H,H) groups
 At 1.5 times of:
  All C(H,H,H) groups, All O(H) groups
2. Restrained distances
 C12-C14A \\sim C14A-C16A \\sim C16A-C12 \\sim C13A-C15 \\sim C15-C17A \\sim
C17A-C13A \\sim C12-C14B
 \\sim C14B-C16B \\sim C16B-C12 \\sim C13B-C15 \\sim C15-C17B \\sim C17B-C13B
 with sigma of 0.02
3. Restrained planarity
 C12, C13A, C14A, C15, C16A, C17A
 with sigma of 0.01
4. Uiso/Uaniso restraints and constraints
Uanis(C20) = Uanis(C21) = Uanis(C22) = Uanis(C1) = Uanis(C4)
Uanis(C5) = Uanis(C18) = Uanis(C15)
Uanis(O8) = Uanis(O9)
Uanis(C13A) = Uanis(C14A) = Uanis(C16A) = Uanis(C17A)
Uanis(C13B) = Uanis(C14B) = Uanis(C16B) = Uanis(C17B)
Uanis(N1) = Uanis(N2)
5. Rigid body (RIGU) restrains
 C19, C20
 with sigma for 1-2 distances of 0.004 and sigma for 1-3 distances of 0.004
 N1, C5, C6, C10, C11, C2, C3
 with sigma for 1-2 distances of 0.002 and sigma for 1-3 distances of 0.002
6. Others
 Fixed Sof: C13A(0.5) H13A(0.5) C14A(0.5) H14A(0.5) C16B(0.5) H16B(0.5)
 C16A(0.5) H16A(0.5) C17B(0.5) H17B(0.5) C17A(0.5) H17A(0.5) C13B(0.5)
 H13B(0.5) C14B(0.5) H14B(0.5) C23(0.5) H23A(0.5) H23B(0.5) H23C(0.5)
7.a Ternary CH refined with riding coordinates:
 C3(H3), C19(H19)
7.b Secondary CH2 refined with riding coordinates:
 O12(H12A,H12B), C21(H21A,H21B), C2(H2A,H2B)
7.c Aromatic/amide H refined with riding coordinates:
 N2(H2), N1(H1), C7(H7), C10(H10), C8(H8), C11(H11), C13A(H13A), C14A(H14A),
 C16B(H16B), C16A(H16A), C17B(H17B), C17A(H17A), C13B(H13B), C14B(H14B)
7.d Tetrahedral OH refined with riding coordinates:
 O13(H13)
7.e Idealised Me refined as rotating group:
 C23(H23A,H23B,H23C)
;
_shelx_res_file
;
TITL NaBPDC_assynth_a.res in P2(1)
REM Old TITL NaBPDC_assynth in P2(1)
REM SHELXT solution in P2(1)
CELL 0.8856 12.079 5.2419 21.254 90 103.886 90
ZERR 2 0.0015 0.0006 0.0028 0 0.006 0
LATT -1
SYMM -X,0.5+Y,-Z
SFAC C H N O Na
DISP C 0.006 0.003 18.57
DISP N 0.01 0.005 33.78
DISP Na 0.056 0.04 215.5
DISP O 0.018 0.01 57.86
UNIT 45 41 4 26 8
SADI C12 C14A C14A C16A C16A C12 C13A C15 C15 C17A C17A C13A C12 C14B C14B =
 C16B C16B C12 C13B C15 C15 C17B C17B C13B
FLAT 0.01 C12 C13A C14A C15 C16A C17A
RIGU C19 C20
RIGU 0.002 0.002 N1 C5 C6 C10 C11 C2 C3
EADP C20 C21 C22 C1 C4
EADP C5 C18 C15
EADP O8 O9
EADP C13A C14A C16A C17A
EADP C13B C14B C16B C17B
EADP N1 N2

L.S. 10
PLAN  20
SIZE 0.002 0.002 0.01
TEMP -173.15
BOND $H
LIST 4
HTAB
MORE -1
CONF
fmap 2
acta 43.31
MERG 2
REM <olex2.extras>
REM <HklSrc "%.\\NaBPDC_assynth_a.hkl">
REM </olex2.extras>

WGHT    0.148300    0.764500
FVAR       0.82953
NA1   5    0.406609   -0.329733    0.968372    11.00000    0.02021    0.01983 =
         0.02939    0.00632    0.00722    0.00360
NA3   5    0.664146    0.713944   -0.068736    11.00000    0.02775    0.01568 =
         0.02747   -0.00609    0.01165   -0.00403
NA4   5    0.885128    1.150503    0.024183    11.00000    0.02679    0.02219 =
         0.04715    0.00621    0.01686    0.00429
NA2   5    0.823775   -0.187316    0.814639    11.00000    0.03151    0.03993 =
         0.04500    0.00524    0.01813   -0.00106
O10   4    0.746585    0.459409    0.031747    11.00000    0.02775    0.02333 =
         0.03033   -0.01214    0.00868    0.00361
O1    4    0.500069   -0.029372    0.925493    11.00000    0.03153    0.01186 =
         0.01607    0.00510    0.01279   -0.00408
O11   4    0.741146    0.877681    0.036400    11.00000    0.01388    0.01308 =
         0.02003    0.00172   -0.00226    0.00170
O12   4    0.980558    1.305833   -0.052771    11.00000    0.01463    0.02174 =
         0.03853    0.00376    0.00442   -0.00074
AFIX  23
H12A  2    0.921587    1.360557   -0.091293    11.00000   -1.20000
H12B  2    1.021482    1.160267   -0.066450    11.00000   -1.20000
AFIX   0
O9    4    0.983620    0.353223    0.120542    11.00000    0.04389    0.06477 =
         0.05384   -0.00071    0.02897    0.00319
O2    4    0.520938    0.395546    0.920558    11.00000    0.01980    0.02179 =
         0.04292   -0.00514    0.00706    0.00137
O4    4    0.779371    0.472728    0.873120    11.00000    0.01951    0.01749 =
         0.04541    0.00364    0.00967    0.00935
O3    4    0.735322    0.062796    0.877513    11.00000    0.04224    0.03139 =
         0.02807   -0.00332    0.02604   -0.00557
O5    4    0.655580    0.720162    0.734724    11.00000    0.03683    0.02863 =
         0.04018    0.00130    0.01263   -0.01597
N2    3    0.805288    0.411236    0.235051    11.00000    0.02086    0.04113 =
         0.02225   -0.00108    0.01129   -0.01408
AFIX  43
H2    2    0.837779    0.537231    0.260155    11.00000   -1.20000
AFIX   0
N1    3    0.608394    0.305677    0.743219    11.00000    0.02086    0.04113 =
         0.02225   -0.00108    0.01129   -0.01408
AFIX  43
H1    2    0.591549    0.158282    0.723416    11.00000   -1.20000
AFIX   0
C5    1    0.640681    0.497792    0.711670    11.00000    0.05069    0.03327 =
         0.03342    0.00006    0.02840   -0.00844
C6    1    0.652588    0.452166    0.643627    11.00000    0.02889    0.02785 =
         0.02945    0.00516    0.01890    0.00188
O8    4    1.003334    0.165008    0.217071    11.00000    0.04389    0.06477 =
         0.05384   -0.00071    0.02897    0.00319
O6    4    0.873272    0.192096    0.760516    11.00000    0.08312    0.06651 =
         0.07947    0.01678    0.03259    0.00177
C22   1    0.760191    0.659135    0.062848    11.00000    0.01985    0.03102 =
         0.03396    0.00402    0.00829    0.01360
C3    1    0.600026    0.332599    0.810367    11.00000    0.03595    0.02849 =
         0.02524   -0.00220    0.01858   -0.01565
AFIX  13
H3    2    0.577509    0.512816    0.816451    11.00000   -1.20000
AFIX   0
O7    4    0.688583    0.075851    0.225364    11.00000    0.18032    0.03743 =
         0.08432   -0.03069    0.08049   -0.01199
C19   1    0.824314    0.402765    0.170005    11.00000    0.03133    0.06471 =
         0.01762   -0.00148    0.01567    0.01457
AFIX  13
H19   2    0.770279    0.274981    0.144420    11.00000   -1.20000
AFIX   0
C1    1    0.508738    0.165189    0.897102    11.00000    0.01985    0.03102 =
         0.03396    0.00402    0.00829    0.01360
C21   1    0.797375    0.666664    0.135957    11.00000    0.01985    0.03102 =
         0.03396    0.00402    0.00829    0.01360
AFIX  23
H21A  2    0.736501    0.749844    0.152571    11.00000   -1.20000
H21B  2    0.866304    0.774971    0.148513    11.00000   -1.20000
AFIX   0
C2    1    0.504675    0.157945    0.822522    11.00000    0.04088    0.03027 =
         0.03050   -0.00701    0.02409   -0.01943
AFIX  23
H2A   2    0.516270   -0.018758    0.808955    11.00000   -1.20000
H2B   2    0.429515    0.218340    0.797160    11.00000   -1.20000
AFIX   0
C9    1    0.681536    0.393100    0.517305    11.00000    0.02122    0.00598 =
         0.04476   -0.00090    0.00981    0.00200
C12   1    0.701928    0.363035    0.451514    11.00000    0.07480    0.02894 =
         0.02839    0.01548    0.01650   -0.00358
C15   1    0.730486    0.297072    0.326811    11.00000    0.05069    0.03327 =
         0.03342    0.00006    0.02840   -0.00844
C7    1    0.599909    0.253246    0.606415    11.00000    0.03857    0.06168 =
         0.02648   -0.01863    0.01483   -0.00826
AFIX  43
H7    2    0.554337    0.135474    0.623048    11.00000   -1.20000
AFIX   0
C4    1    0.713719    0.285601    0.857024    11.00000    0.01985    0.03102 =
         0.03396    0.00402    0.00829    0.01360
C18   1    0.747944    0.258889    0.258635    11.00000    0.05069    0.03327 =
         0.03342    0.00006    0.02840   -0.00844
C10   1    0.730267    0.588784    0.557319    11.00000    0.03481    0.03647 =
         0.03476    0.00994    0.01979   -0.00060
AFIX  43
H10   2    0.776858    0.706925    0.541579    11.00000   -1.20000
AFIX   0

O13   4    0.950189   -0.167101    0.303762    11.00000    0.10819    0.11496 =
         0.10727    0.01648    0.02037   -0.04833
AFIX  83
H13   2    0.988729   -0.081189    0.283311    11.00000   -1.50000
AFIX   0

C8    1    0.614463    0.227265    0.543932    11.00000    0.06253    0.03572 =
         0.03158   -0.00268    0.01252    0.01601
AFIX  43
H8    2    0.577083    0.090338    0.518047    11.00000   -1.20000
AFIX   0
C11   1    0.715564    0.623611    0.618758    11.00000    0.03770    0.03818 =
         0.03509    0.00871    0.02142   -0.00427
AFIX  43
H11   2    0.749035    0.766224    0.643811    11.00000   -1.20000
AFIX   0
C20   1    0.949120    0.319756    0.168360    11.00000    0.01985    0.03102 =
         0.03396    0.00402    0.00829    0.01360
PART 1
C13A  1    0.621084    0.264970    0.406829    10.50000    0.04422    0.06049 =
         0.04255    0.01393    0.02443   -0.01092
AFIX  43
H13A  2    0.551953    0.216117    0.417351    10.50000   -1.20000
AFIX   0
C14A  1    0.632933    0.227486    0.341182    10.50000    0.04422    0.06049 =
         0.04255    0.01393    0.02443   -0.01092
AFIX  43
H14A  2    0.572642    0.154994    0.309047    10.50000   -1.20000
AFIX   0
PART 0
PART -1
C16B  1    0.729405    0.538584    0.351722    10.50000    0.04199    0.07286 =
         0.03079    0.01365    0.02664   -0.00946
AFIX  43
H16B  2    0.736529    0.684314    0.326414    10.50000   -1.20000
AFIX   0
PART 0
PART 1
C16A  1    0.821334    0.405708    0.375307    10.50000    0.04422    0.06049 =
         0.04255    0.01393    0.02443   -0.01092
AFIX  43
H16A  2    0.890106    0.453871    0.364262    10.50000   -1.20000
AFIX   0
PART 0
PART -1
C17B  1    0.717316    0.565198    0.416570    10.50000    0.04199    0.07286 =
         0.03079    0.01365    0.02664   -0.00946
AFIX  43
H17B  2    0.720304    0.730529    0.435212    10.50000   -1.20000
AFIX   0
PART 0
PART 1
C17A  1    0.810697    0.440949    0.436853    10.50000    0.04422    0.06049 =
         0.04255    0.01393    0.02443   -0.01092
AFIX  43
H17A  2    0.870768    0.512843    0.469234    10.50000   -1.20000
AFIX   0
PART 0
PART -1
C13B  1    0.668345    0.119044    0.416921    10.50000    0.04199    0.07286 =
         0.03079    0.01365    0.02664   -0.00946
AFIX  43
H13B  2    0.635572   -0.014781    0.436567    10.50000   -1.20000
AFIX   0
C14B  1    0.685301    0.092019    0.357453    10.50000    0.04199    0.07286 =
         0.03079    0.01365    0.02664   -0.00946
AFIX  43
H14B  2    0.667132   -0.065362    0.335207    10.50000   -1.20000
AFIX   0

PART 0
C23   1    0.994685   -0.137100    0.369526    10.50000    0.08484
AFIX 137
H23A  2    1.005531    0.044884    0.379708    10.50000   -1.50000
H23B  2    1.068230   -0.225205    0.382291    10.50000   -1.50000
H23C  2    0.941872   -0.209688    0.393251    10.50000   -1.50000
AFIX   0
HKLF 4

REM  NaBPDC_assynth_a.res in P2(1)
REM R1 =  0.0721 for    1241 Fo > 4sig(Fo)  and  0.0977 for all    1594 data
REM    327 parameters refined using    106 restraints

END

WGHT      0.1482      0.7707

REM Instructions for potential hydrogen bonds
EQIV $1 x, y+1, z-1
HTAB O12 O4_$1
EQIV $2 -x+2, y+1/2, -z
HTAB O12 O9_$2
EQIV $3 x, y+1, z
HTAB N2 O13_$3
EQIV $4 x, y-1, z
HTAB N1 O5_$4
HTAB C21 O7_$3
EQIV $5 -x+1, y+1/2, -z+1
HTAB C2 O7_$5
HTAB O13 O8
EQIV $6 -x+2, y-1/2, -z+1
HTAB O13 O6_$6

REM Highest difference peak  0.535,  deepest hole -0.457,  1-sigma level  0.093
Q1    1   1.0354  0.4330  0.2337  11.00000  0.05    0.54
Q2    1   0.9234  0.4404  0.7542  11.00000  0.05    0.44
Q3    1   0.9666  0.0448  0.4375  11.00000  0.05    0.43
Q4    1   0.9792  0.2153  0.4442  11.00000  0.05    0.42
Q5    1   1.0389 -0.4470  0.3566  11.00000  0.05    0.40
Q6    1   0.7976  0.0283  0.2497  11.00000  0.05    0.39
Q7    1   0.9932  0.0767  0.3617  11.00000  0.05    0.34
Q8    1   1.0128  0.5210  0.4606  11.00000  0.05    0.31
Q9    1   0.9338  0.1780  0.7179  11.00000  0.05    0.30
Q10   1   1.0185  0.3206  0.3608  11.00000  0.05    0.29
Q11   1   0.6417  0.1641  0.7040  11.00000  0.05    0.28
Q12   1   0.4624  0.4953  0.8568  11.00000  0.05    0.27
Q13   1   1.0056  1.1766 -0.1323  11.00000  0.05    0.26
Q14   1   0.9750  1.5764 -0.0612  11.00000  0.05    0.23
Q15   1   0.6802  0.1892  0.2324  11.00000  0.05    0.22
Q16   1   0.6543 -0.0893  0.4396  11.00000  0.05    0.21
Q17   1   0.8564 -0.2938  0.8161  11.00000  0.05    0.20
Q18   1   0.5005 -0.1886  0.8816  11.00000  0.05    0.20
Q19   1   0.8676  0.8371  0.0811  11.00000  0.05    0.20
Q20   1   0.6634  0.3699  0.4529  11.00000  0.05    0.20
;
_shelx_res_checksum              68788
_shelx_hkl_file
;
   1   0   0  470.45   44.80
  -2   0   0 3467.45  168.68
  -2   0   0 3799.32  177.88
   2   0   0 3466.15  167.98
  -2   0   0 3594.54  172.28
   2   0   0 3422.36  169.78
  -3   0   0 3637.34  179.18
   3   0   0 3526.55  175.78
   3   0   0 3634.34  179.88
  -3   0   0 3439.76  181.38
  -3   0   0 3755.72  195.28
   4   0   0 2696.93  142.39
  -4   0   0 3008.10  171.58
   4   0   0 2761.52  150.38
  -4   0   0 2652.73  154.98
  -4   0   0 2803.32  149.29
  -5   0   0  168.88   70.09
   5   0   0  109.59   49.30
   5   0   0  149.09   45.70
  -5   0   0  134.59   55.79
  -5   0   0  118.79   48.30
  -6   0   0  560.54  101.49
  -6   0   0  636.24   90.49
  -6   0   0  672.43   90.29
  -7   0   0  -15.60   64.39
  -7   0   0    2.30   49.90
  -7   0   0   43.00   53.19
  -8   0   0 1014.10  104.19
  -8   0   0 1003.70  108.49
  -8   0   0 1060.29  106.19
   8   0   0 1216.78  132.89
  -9   0   0  137.29   61.39
  -9   0   0  134.69   54.99
  -9   0   0   97.99   60.59
   0  -1   0   95.99   31.90
   0  -1   0   27.00   40.10
   0  -1   0  -35.80   60.39
   0   1   0  -48.10   29.10
   1  -1   0 5221.08  229.78
  -1  -1   0 4928.51  231.78
   1  -1   0 4947.00  229.78
   1  -1   0 5214.08  228.58
  -1  -1   0 5342.67  241.38
   1  -1   0 4918.11  233.38
   1  -1   0 4916.31  247.68
  -1  -1   0 4998.50  224.88
  -1   1   0 4856.71  233.68
   1   1   0 4608.94  224.88
   1   1   0 5347.87  232.18
  -1   1   0 4991.30  244.08
   1   1   0 4768.42  235.68
   1   1   0 5115.99  236.88
  -1   1   0 4794.02  229.48
   2  -1   0  792.62  117.59
  -2  -1   0  914.41   64.39
  -2  -1   0  978.00   74.99
   2  -1   0  658.63   67.59
   2  -1   0  881.91   67.09
  -2  -1   0  927.51   96.19
   2   1   0 1025.20   73.89
   2   1   0  847.72   62.49
  -2   1   0  951.90   67.79
  -2   1   0  828.12   80.29
  -2   1   0  848.32   77.49
   2   1   0  966.90   88.19
  -2   1   0  801.32  105.79
   3  -1   0 4936.81  236.08
   3  -1   0 4613.74  241.38
   3  -1   0 4948.71  258.97
  -3  -1   0 5264.27  238.88
  -3  -1   0 5208.38  243.48
   3  -1   0 4999.30  246.38
  -3  -1   0 5205.38  250.47
  -3   1   0 4929.71  243.78
  -3   1   0 5064.89  237.88
  -3   1   0 5145.39  254.57
   3   1   0 5379.06  238.68
   3   1   0 5198.88  241.08
   3   1   0 4958.90  243.18
  -4  -1   0  117.69   47.20
  -4  -1   0  138.79   68.29
   4  -1   0  140.69   46.60
  -4  -1   0  161.08   43.10
   4  -1   0  103.49   39.30
   4  -1   0   94.49   41.00
   4   1   0  171.58   43.90
  -4   1   0  131.89   65.79
   4   1   0  190.38   42.30
  -4   1   0  177.78   46.80
   4   1   0  152.78   49.00
  -5  -1   0  263.67   52.39
   5  -1   0  204.58   52.49
  -5  -1   0  321.87   85.09
  -5  -1   0  194.38   45.70
   5  -1   0  176.48   48.60
  -5   1   0  277.27   68.89
  -5   1   0  261.37   52.79
   5   1   0  269.27   46.60
   5   1   0  312.47   54.89
   5   1   0  199.08   68.49
  -5   1   0  207.88   56.59
  -6  -1   0  343.97   78.79
  -6  -1   0  425.46   86.59
  -6  -1   0  390.56   78.79
   6  -1   0  369.26   78.69
   6   1   0  385.06   77.59
  -6   1   0  285.57   55.89
  -6   1   0  327.27   56.19
  -6   1   0  380.06   70.59
   7  -1   0  694.83   90.89
  -7  -1   0  804.12   90.79
  -7  -1   0  846.02   87.89
  -7  -1   0  620.54  118.99
  -7   1   0  767.52   90.29
   7   1   0  736.93   89.99
  -7   1   0  768.52   96.79
  -7   1   0  706.43  105.89
  -8  -1   0  646.64   88.89
   8  -1   0  338.67  101.49
   8  -1   0  692.13   89.09
  -8  -1   0  646.74  122.19
  -8  -1   0  633.94   94.99
  -8   1   0  642.24   97.49
  -8   1   0  640.34   95.09
  -8   1   0  578.54  100.59
   8   1   0  614.84   88.09
   9  -1   0   22.10   48.90
  -9  -1   0   66.19   63.39
  -9  -1   0  -90.39   74.19
  -9  -1   0   33.70   49.70
   9  -1   0   46.20   90.39
  -9   1   0   38.40   62.09
  -9   1   0  -16.70   48.50
  -9   1   0  -85.69   71.19
   9   1   0   13.40   44.90
   0  -2   0 1959.60  135.59
   0  -2   0 2093.69  114.99
   0  -2   0 1949.60  124.39
   0  -2   0 1919.51  157.28
   0   2   0 2265.47  119.29
   0   2   0 1929.11  117.59
   1  -2   0  544.85   95.89
   1  -2   0  630.74   51.79
  -1  -2   0  637.24   86.09
  -1  -2   0  468.95   72.29
   1  -2   0  356.16   79.49
  -1  -2   0  620.74   76.89
   1   2   0  538.25   80.09
   1   2   0  471.55   73.89
  -1   2   0  591.54   76.69
  -1   2   0  479.85   52.19
  -2  -2   0  467.15  106.39
  -2  -2   0  538.55   37.80
   2  -2   0  595.94   60.19
   2  -2   0  548.45   92.49
   2  -2   0  468.65   71.09
   2  -2   0  427.36   52.79
   2   2   0  550.94   90.09
   2   2   0  537.65   42.00
   2   2   0  390.26   70.49
  -2   2   0  602.64   79.19
  -2   2   0  589.24   64.19
   3  -2   0  933.21  143.89
   3  -2   0  745.83   88.79
   3  -2   0 1151.68   75.99
  -3  -2   0  972.60   62.29
  -3  -2   0  965.90  116.69
  -3  -2   0  985.10   90.39
   3  -2   0  914.31   77.39
   3   2   0  858.11   84.89
   3   2   0  953.20   94.49
   3   2   0 1082.09  100.49
   3   2   0  906.31   66.39
  -3   2   0  979.70   92.29
  -3   2   0  963.80   82.99
  -4  -2   0 2055.79  138.99
   4  -2   0 1595.94  122.09
  -4  -2   0 2008.80  114.09
   4  -2   0 2002.10  162.18
  -4  -2   0 1838.12  102.39
   4  -2   0 1838.52  108.19
  -4   2   0 1754.02  108.09
   4   2   0 1873.51  118.19
   4   2   0 1947.11  103.69
  -4   2   0 1896.41  139.79
  -4   2   0 1704.83  115.29
  -5  -2   0  850.41  124.59
   5  -2   0  702.43   74.69
   5  -2   0  976.40  135.69
  -5  -2   0 1058.59   76.29
   5  -2   0  952.00  100.59
  -5  -2   0  989.80   96.09
   5   2   0  740.93   89.09
   5   2   0 1192.28   78.19
  -5   2   0  931.91   87.69
  -5   2   0  877.71  120.99
   6  -2   0   56.79   38.80
  -6  -2   0  382.96   79.19
   6  -2   0  145.99  106.89
  -6  -2   0  235.08   54.69
  -6  -2   0  215.58   41.80
   6  -2   0  126.39   49.30
  -6   2   0  213.98   48.20
  -6   2   0  150.58   48.60
  -6   2   0  256.27   71.39
   6   2   0  378.46   69.69
   6   2   0  173.28   49.30
   7  -2   0   95.59   49.10
  -7  -2   0  170.48   57.09
   7  -2   0 -184.18  106.19
  -7  -2   0  418.86  100.89
  -7  -2   0  189.98   45.60
  -7   2   0  173.98   83.29
  -7   2   0   72.49   52.19
  -7   2   0  127.09   50.79
   7   2   0  165.48   49.50
  -8  -2   0  190.28   51.99
   8  -2   0  171.88   59.49
  -8  -2   0  151.88   63.89
  -8  -2   0  142.69  104.89
   8  -2   0 -241.18  114.39
   8   2   0   87.49   50.69
  -8   2   0  136.79   54.49
  -8   2   0  106.89   57.89
   0  -3   0   -0.70   48.40
   0  -3   0  -19.50   40.90
   0  -3   0   33.90   57.49
   0  -3   0  -16.40   75.09
   0   3   0  -11.00   39.30
   0   3   0  -28.20   46.80
   1  -3   0  463.15   70.89
   1  -3   0  500.05  103.69
  -1  -3   0  664.53   71.59
   1  -3   0  379.46   85.79
   1  -3   0  562.64   93.49
  -1  -3   0  702.93  102.79
  -1  -3   0  595.94  129.69
   1   3   0  596.24   80.59
   1   3   0  555.04   84.09
  -1   3   0  568.14   80.59
  -2  -3   0  491.15   86.69
   2  -3   0  315.77   63.19
   2  -3   0  380.66   94.99
  -2  -3   0  235.88   50.69
   2  -3   0  345.77   63.09
  -2  -3   0  411.16   75.89
   2  -3   0  213.78   54.39
   2   3   0  391.26   85.59
  -2   3   0  329.87   79.19
   3  -3   0  266.67   42.80
   3  -3   0  283.77   62.59
   3  -3   0  258.37   95.99
  -3  -3   0  237.18   54.59
  -3  -3   0  274.27   71.39
  -3  -3   0  305.27   73.99
  -3   3   0  192.98   42.80
   3   3   0  199.88   49.00
  -3   3   0  193.48   46.70
   4  -3   0  492.65  107.59
  -4  -3   0  432.66   82.79
  -4  -3   0  493.75  104.69
   4  -3   0  293.37   62.69
   4  -3   0  377.56   57.29
   4  -3   0  487.15   69.59
  -4  -3   0  421.96   74.69
   4  -3   0  686.33   83.89
  -4   3   0  465.75   78.29
   4   3   0  480.55   67.49
   5  -3   0  233.28   56.09
  -5  -3   0  534.15   86.89
  -5  -3   0  490.45   79.89
   5  -3   0  470.95   76.39
  -5  -3   0  381.26   56.19
  -5  -3   0  384.76   82.79
   5  -3   0  496.15  111.79
   5   3   0  382.26   68.59
  -5   3   0  413.86   86.59
   6  -3   0   11.20   51.69
  -6  -3   0   32.60   53.19
  -6  -3   0    4.10   82.49
   6  -3   0   73.79  100.49
  -6  -3   0   74.09   72.29
  -6   3   0  -29.60   52.29
  -7  -3   0  848.82  104.69
   7  -3   0 1053.49  179.48
  -7  -3   0  883.91  122.39
  -7  -3   0  951.80   91.09
  -7  -3   0 1067.39  155.68
  -7   3   0  805.02  105.89
   0  -4   0  544.55  111.09
   0  -4   0  631.34  106.39
   0  -4   0  413.66   80.89
   0  -4   0  402.06   79.69
   0   4   0  554.34   87.49
   1  -4   0  524.05   83.29
   1  -4   0  338.27   72.39
  -1  -4   0  396.26   93.19
  -1  -4   0  394.36   80.09
  -1  -4   0  442.76   85.09
   1  -4   0  431.86  102.89
  -1   4   0  357.96   85.29
   1   4   0  459.65   86.39
   2  -4   0    4.10   64.49
  -2  -4   0   24.90   51.49
   2  -4   0  -32.80   51.69
  -2  -4   0   77.59   76.09
   2  -4   0   74.19   53.89
   2  -4   0   84.09   89.99
  -2  -4   0   81.89   82.39
   2   4   0   74.99   46.30
  -2   4   0   64.79   47.00
   3  -4   0  203.58  105.09
   3  -4   0  168.68   53.19
  -3  -4   0  276.07   79.29
   3  -4   0  379.16   68.29
  -3  -4   0  189.88   80.49
   3  -4   0  296.77   76.59
  -3  -4   0  287.97   59.39
  -3   4   0  220.48   54.69
   3   4   0  475.95   83.39
  -9   0   1  292.67   66.59
  -9   0   1  203.08   57.09
  -9   0   1  187.28   64.19
  -8   0   1  656.23   92.19
  -8   0   1  599.74   79.79
  -8   0   1  587.24   94.19
  -7   0   1  128.19   49.90
  -7   0   1  140.59   49.70
  -7   0   1  128.09   60.49
  -6   0   1   32.40   56.49
  -5   0   1  768.72   91.19
   5   0  -1  806.42   82.99
  -5   0   1  802.82   91.69
  -5   0   1  831.72   89.79
   5   0  -1  744.23   81.79
  -4   0   1 1989.10  129.49
   4   0  -1 2182.38  117.09
  -4   0   1 2125.19  129.89
   4   0  -1 2068.69  124.99
  -4   0   1 2319.77  127.89
   3   0  -1  416.56   53.99
   3   0  -1  337.87   67.29
  -3   0   1  326.77   69.69
  -3   0   1  372.66   55.79
  -3   0   1  341.87   73.19
   2   0  -1  513.45   50.99
  -2   0   1  500.85   57.79
  -2   0   1  480.55   65.09
   2   0  -1  516.75   55.79
  -1   0   1  393.66   39.60
   1   0  -1  364.36   50.89
   1   0   1   18.00   19.30
  -1   0  -1   -5.70   19.80
   1   0   1   27.30   18.30
  -1   0  -1   14.10   39.60
  -1   0  -1   15.50   22.00
   1   0   1   -3.70   20.90
   2   0   1 5177.48  236.08
  -2   0  -1 4701.03  231.88
   2   0   1 4917.51  232.18
  -2   0  -1 4835.82  248.18
  -2   0  -1 4874.81  236.08
   2   0   1 5658.73  243.68
   3   0   1 9594.34  434.46
   3   0   1 9695.83  430.76
  -3   0  -1 9999.00  446.86
  -3   0  -1 9304.37  431.06
   3   0   1 9300.67  438.06
  -3   0  -1 8994.40  434.66
   4   0   1 3111.29  168.68
  -4   0  -1 3273.47  171.58
   4   0   1 3432.76  175.28
  -4   0  -1 3429.46  177.88
   4   0   1 3809.52  193.88
  -4   0  -1 3094.89  201.68
  -5   0  -1  765.52   90.89
  -5   0  -1  905.71  140.19
  -5   0  -1  829.22   86.09
   5   0   1  759.82   79.99
   5   0   1  764.22   87.89
  -6   0  -1  -53.69   77.59
  -6   0  -1  -20.40   50.29
  -6   0  -1   16.50   48.20
  -7   0  -1    3.00   51.79
  -7   0  -1   22.70   53.19
   7   0   1  181.68   80.59
  -7   0  -1   76.89   73.09
  -8   0  -1 1177.88  111.19
  -8   0  -1 1207.28  110.89
   8   0   1 1438.46  144.79
  -8   0  -1 1129.69  133.79
  -9   0  -1    6.20   50.09
  -9   0  -1   -0.30   69.89
   9   0   1  217.98   97.79
   9   0   1  -16.10   48.20
  -9   0  -1   51.49   59.59
   9  -1  -1  125.69   57.99
   9  -1  -1  -58.99   81.99
  -9  -1   1  111.19   51.99
  -9  -1   1  163.88   67.39
  -9   1   1  131.99   56.09
  -9   1   1  104.99   62.59
  -8  -1   1  205.38   61.09
  -8  -1   1  194.08   49.80
  -8  -1   1  154.68   68.29
   8  -1  -1  116.19   52.39
  -8   1   1  175.98   60.49
  -8   1   1  273.97   58.29
  -8   1   1  164.88   59.19
   8   1  -1  198.28   39.40
  -7  -1   1  412.46   68.99
  -7  -1   1  430.86   74.29
   7  -1  -1  392.96   85.19
  -7  -1   1  438.66   85.29
   7   1  -1  335.87   64.49
  -7   1   1  412.16   85.59
  -7   1   1  328.17   63.89
  -7   1   1  425.16   85.49
  -6  -1   1 1101.39   96.39
  -6  -1   1  962.50   87.89
   6  -1  -1 1141.29   86.19
  -6  -1   1  848.22  112.69
   6  -1  -1  869.31  101.19
  -6   1   1  995.60   96.29
   6   1  -1 1049.89   86.49
   6   1  -1  919.71   79.09
  -6   1   1 1044.30   95.19
  -6   1   1 1028.00  106.59
   5  -1  -1 1382.46  152.78
  -5  -1   1 1707.83  140.29
  -5  -1   1 1567.94  106.09
   5  -1  -1 1605.24  107.59
   5  -1  -1 1672.83  115.19
  -5  -1   1 1402.96  139.79
  -5   1   1 1578.44  142.49
   5   1  -1 1440.26   97.99
   5   1  -1 1631.94  103.09
  -5   1   1 1591.94  122.29
   5   1  -1 1496.05  106.29
  -5   1   1 1584.04  110.19
   4  -1  -1  152.28   73.99
  -4  -1   1  127.49   49.00
   4  -1  -1   69.99   48.80
  -4  -1   1   60.49   39.40
  -4  -1   1  122.89   56.69
   4  -1  -1  105.09   42.00
   4   1  -1  146.89   41.10
  -4   1   1   64.59   49.40
  -4   1   1   74.99   60.19
   4   1  -1  139.79   49.10
  -4   1   1   34.70   47.60
   4   1  -1   95.69   39.20
   3  -1  -1 3861.11  216.78
  -3  -1   1 4249.77  195.78
  -3  -1   1 4025.30  198.18
   3  -1  -1 3832.42  199.88
   3  -1  -1 4239.68  196.38
  -3  -1   1 3632.44  200.48
   3  -1  -1 4268.67  204.38
  -3   1   1 4091.09  212.88
   3   1  -1 4115.39  200.38
   3   1  -1 3986.80  197.78
  -3   1   1 4150.28  202.08
   3   1  -1 4577.54  196.18
  -3   1   1 4317.57  198.98
  -2  -1   1  124.19   29.00
   2  -1  -1   79.69   35.50
  -2  -1   1  169.28   46.40
   2  -1  -1  154.38   35.60
  -2  -1   1  169.68   43.10
   2  -1  -1   16.90   56.79
   2  -1  -1   70.29   31.60
  -2   1   1  163.08   40.40
   2   1  -1  112.99   27.70
  -2   1   1  106.79   39.10
   2   1  -1  174.48   37.90
   1  -1  -1   19.40   44.60
  -1  -1   1   47.40   60.19
  -1  -1   1   90.19   40.90
  -1  -1   1   28.90   33.50
   1  -1  -1   62.49   32.40
   1  -1  -1   64.09   26.30
  -1   1   1   76.19   28.20
  -1   1   1   48.30   29.30
   1   1  -1   50.59   33.50
   1   1  -1   66.79   17.70
   0  -1  -1  448.56   66.69
   0  -1  -1  285.87   51.79
   0  -1   1  190.18   64.79
   0  -1  -1  222.58   27.70
   0   1   1  253.17   29.80
   0   1  -1  208.28   31.00
   0   1  -1  283.87   60.49
   0   1   1  198.68   47.90
   0   1  -1  223.78   39.10
   0   1   1  378.36   44.70
  -1  -1  -1 4010.00  178.98
   1  -1   1 3587.74  181.18
   1  -1   1 3949.70  170.48
  -1  -1  -1 3649.33  170.48
   1  -1   1 3671.43  177.58
  -1  -1  -1 3842.32  192.08
   1  -1   1 3750.52  170.28
   1  -1   1 3618.94  205.98
   1   1   1 3927.81  178.18
   1   1   1 3531.65  172.48
   1   1   1 3650.63  187.48
  -1   1  -1 3472.55  180.98
  -1   1  -1 3588.34  198.78
  -1   1  -1 3410.76  174.48
  -2  -1  -1 4751.32  218.68
  -2  -1  -1 4628.44  212.48
  -2  -1  -1 4595.04  232.18
   2  -1   1 4409.46  221.48
   2  -1   1 4387.16  211.08
   2  -1   1 4961.10  248.38
   2  -1   1 3963.00  215.58
  -2   1  -1 4658.13  239.78
  -2   1  -1 4407.66  220.28
   2   1   1 4572.34  215.18
   2   1   1 4433.06  212.58
  -2   1  -1 4688.63  210.68
   2   1   1 4759.92  228.28
  -2   1  -1 4547.25  218.78
   3  -1   1 2982.40  190.78
  -3  -1  -1 3246.38  155.88
  -3  -1  -1 3020.60  161.78
   3  -1   1 3114.79  165.38
   3  -1   1 3050.79  160.58
  -3  -1  -1 2836.92  188.08
   3   1   1 3354.56  156.38
  -3   1  -1 3267.47  166.08
  -3   1  -1 2827.02  185.38
   3   1   1 3215.88  158.08
   3   1   1 2913.41  171.58
  -3   1  -1 3184.68  153.28
  -4  -1  -1 1195.98   90.59
  -4  -1  -1 1164.18   97.79
   4  -1   1  688.43  151.98
  -4  -1  -1 1066.59  141.99
   4  -1   1 1093.79   97.69
   4  -1   1 1026.80   99.59
  -4   1  -1 1114.09  130.79
   4   1   1 1130.09   88.89
   4   1   1 1220.98   88.29
  -4   1  -1 1237.98   87.39
   4   1   1 1186.28  101.79
  -4   1  -1 1080.39   97.89
  -5  -1  -1  527.45   74.39
   5  -1   1  331.67   96.79
  -5  -1  -1  728.23  105.79
  -5  -1  -1  628.94   83.09
   5  -1   1  506.75   85.39
   5   1   1  556.34   79.19
  -5   1  -1  458.35   78.49
   5   1   1  577.24   89.49
  -5   1  -1  593.54  117.79
  -5   1  -1  483.35   86.39
   6  -1   1 1733.53  119.69
   6  -1   1 1970.70  103.29
  -6  -1  -1 1527.65  150.68
  -6  -1  -1 1746.33  115.49
   6  -1   1 1508.95  163.68
  -6  -1  -1 1789.42  117.19
   6   1   1 1671.43  121.29
  -6   1  -1 1849.52  121.39
  -6   1  -1 1705.73  112.49
  -6   1  -1 1692.83  142.59
  -7  -1  -1  325.47   84.49
  -7  -1  -1  194.68   49.10
  -7  -1  -1  296.97   65.39
   7  -1   1  346.47   89.99
   7  -1   1  162.58   51.29
  -7   1  -1  226.88   57.29
  -7   1  -1  267.17   76.69
  -7   1  -1  163.48   53.29
   7   1   1  261.57   59.29
  -8  -1  -1  988.60   99.49
  -8  -1  -1  850.31   98.89
  -8  -1  -1  847.72  141.19
   8  -1   1  896.41  166.88
  -8   1  -1  865.21  100.89
  -8   1  -1  852.71  127.09
   8   1   1  926.51  106.79
  -8   1  -1  926.81   97.49
   9  -1   1  797.02  168.98
  -9  -1  -1  345.37   65.99
  -9  -1  -1  327.97   99.59
   9  -1   1  416.26   95.89
  -9  -1  -1  437.66   92.19
  -9   1  -1  390.96   77.19
   9   1   1  504.05  105.49
  -9   1  -1  463.25   96.89
  -9   1  -1  515.55  100.49
  -8  -2   1   35.00   48.00
   8  -2  -1   73.69   50.39
  -8  -2   1   50.69   62.69
  -8  -2   1  -25.30  103.29
  -8   2   1    1.60   55.19
  -8   2   1   17.10   55.79
  -7  -2   1  324.17   61.19
   7  -2  -1  239.28   57.69
  -7  -2   1  575.64  128.19
  -7  -2   1  347.27   73.69
  -7   2   1  193.08   53.09
  -7   2   1  195.88   55.49
  -6  -2   1  195.68   43.00
   6  -2  -1  147.79   54.59
  -6  -2   1  178.38   51.99
  -6  -2   1  296.57   76.99
   6   2  -1  306.67   67.59
  -6   2   1  168.78   47.80
  -6   2   1  136.29   54.09
  -5  -2   1  657.23  104.19
  -5  -2   1  606.74   68.09
   5  -2  -1  515.75   88.19
  -5  -2   1  518.55   82.99
   5   2  -1  725.33   67.49
  -5   2   1  607.84   87.19
  -5   2   1  507.25   72.99
  -4  -2   1  905.01  101.39
   4  -2  -1  929.21  127.19
  -4  -2   1  978.70   69.79
   4  -2  -1  708.83   92.79
   4  -2  -1  864.11   78.49
  -4  -2   1 1022.90   89.89
  -4   2   1  859.11   81.99
   4   2  -1 1062.09   70.49
  -4   2   1  857.21   87.19
   3  -2  -1  858.21   76.09
  -3  -2   1 1028.80   87.09
   3  -2  -1  757.82  138.29
   3  -2  -1  978.50   83.99
  -3  -2   1 1009.80   61.29
  -3  -2   1  962.90  111.19
  -3  -2   1  915.01  117.39
   3  -2  -1  670.33   98.59
   3   2  -1  981.70   60.89
   3   2  -1  901.61   77.59
   3   2  -1 1121.99  109.89
  -3   2   1  941.51   85.09
  -2  -2   1  239.28   70.19
   2  -2  -1  157.58   40.20
   2  -2  -1  299.57   60.89
  -2  -2   1  305.37   64.29
   2  -2  -1  251.17   79.39
  -2  -2   1  242.08   47.60
  -2   2   1  230.58   40.30
   2   2  -1  299.07   48.30
  -2   2   1  327.47   59.19
   2   2  -1  255.27   57.09
   1  -2  -1  957.00  114.59
   1  -2  -1 1062.49   84.89
   1  -2  -1 1011.20   64.09
  -1  -2   1  982.60   78.79
   1  -2  -1 1020.50  139.39
  -1  -2   1  920.31  129.79
  -1  -2   1 1059.89  100.49
  -1   2   1  839.72   87.99
   1   2  -1 1021.50   96.79
   1   2  -1  890.61   79.59
  -1   2   1  903.51   83.19
   0  -2   1  136.39   33.80
   0  -2  -1  207.38   47.40
   0  -2   1  234.58   40.00
   0  -2   1  178.28   53.09
   0  -2  -1  242.28   34.80
   0  -2   1  338.67   83.49
   0  -2  -1  236.88   66.59
   0   2   1  231.78   38.90
   0   2  -1  225.98   46.60
   0   2  -1  307.87   44.50
   0   2   1  304.77   49.40
  -1  -2  -1   50.69   64.39
  -1  -2  -1   64.39   44.00
   1  -2   1   86.29   82.89
   1  -2   1  -14.90   46.20
  -1   2  -1   75.79   27.40
  -1   2  -1   44.80   40.50
   1   2   1  128.49   57.69
   1   2   1  172.98   53.79
   1   2   1   50.09   41.00
   2  -2   1  439.96   94.39
  -2  -2  -1  450.75  106.69
  -2  -2  -1  377.56   76.19
   2  -2   1  255.17   47.40
  -2  -2  -1  433.36   42.30
   2  -2   1  372.36   55.29
   2   2   1  331.77   49.50
  -2   2  -1  436.76   77.29
   2   2   1  462.85   88.69
   2   2   1  325.77   81.09
   2   2   1  346.17   48.20
  -2   2  -1  464.05   75.99
  -2   2  -1  467.05   61.29
   3  -2   1  147.49   37.00
   3  -2   1   83.59   88.29
  -3  -2  -1  149.99   63.69
   3  -2   1   54.69   36.10
  -3  -2  -1  170.48   51.39
  -3  -2  -1  127.69   30.90
   3  -2   1   11.90   43.60
  -3   2  -1   78.89   68.09
  -3   2  -1   92.49   44.10
   3   2   1  203.28   56.19
   3   2   1  160.18   33.30
  -3   2  -1  120.79   43.30
   3   2   1  136.69   48.60
  -4  -2  -1 2515.95  126.09
  -4  -2  -1 2526.55  138.79
  -4  -2  -1 2441.86  158.38
   4  -2   1 2361.76  124.69
   4  -2   1 2379.46  188.58
   4  -2   1 2330.57  144.19
  -4   2  -1 2203.28  136.89
  -4   2  -1 2143.99  125.19
  -4   2  -1 2373.96  164.88
   4   2   1 2515.05  128.59
   4   2   1 2390.86  145.49
  -5  -2  -1  810.52   90.69
  -5  -2  -1  924.91  135.99
   5  -2   1  601.64   71.39
   5  -2   1  901.31   99.49
   5  -2   1 1136.79  174.18
  -5   2  -1  741.93  124.89
   5   2   1  750.22   95.29
  -5   2  -1  775.52   75.89
  -5   2  -1  816.52   89.49
  -6  -2  -1  367.76   69.89
   6  -2   1  269.87   54.99
   6  -2   1  165.08   42.00
  -6  -2  -1  276.97   57.29
   6   2   1  312.47   58.29
  -6   2  -1  312.87   55.79
  -6   2  -1  382.26   71.09
  -6   2  -1  177.28   95.99
  -7  -2  -1   53.59   44.00
   7  -2   1   50.89   56.99
  -7  -2  -1   75.99   57.29
  -7  -2  -1  150.58  101.99
   7  -2   1  105.19  109.19
  -7   2  -1   46.80   48.10
   7   2   1   47.40   53.69
  -7   2  -1   90.89   74.49
  -7   2  -1   82.29   51.29
   8  -2   1  225.18  117.29
  -8  -2  -1  245.88   61.29
  -8  -2  -1  207.38   50.19
   8  -2   1  118.89   53.69
  -8  -2  -1  277.47  106.79
  -8   2  -1  177.68   76.89
  -8   2  -1  212.38   54.19
   8   2   1  254.47   61.79
  -8   2  -1  160.28   53.39
  -7  -3   1   30.50   40.50
  -7  -3   1  108.29   62.99
   7  -3  -1   -3.50   54.89
  -7  -3   1  251.77   90.99
  -7  -3   1   32.30   76.99
   7  -3  -1   20.30   53.29
   7  -3  -1  236.28   97.59
  -7   3   1    7.70   55.89
  -6  -3   1  390.96   65.59
   6  -3  -1  545.45   88.69
  -6  -3   1  540.75  125.39
   6  -3  -1  417.56  104.09
  -6  -3   1  501.15   89.59
  -6  -3   1  567.44  122.59
   6  -3  -1  494.05   99.09
  -6   3   1  448.26   91.39
   5  -3  -1  163.38   51.29
  -5  -3   1  136.19   69.59
   5  -3  -1  -21.90   47.80
  -5  -3   1  144.79   75.89
   5  -3  -1   98.39   93.19
  -5  -3   1   82.59   58.19
   5  -3  -1  -39.00   56.19
   5   3  -1  -15.50   59.99
  -5   3   1   79.69   47.80
  -4  -3   1  314.17   78.09
   4  -3  -1  201.38   63.39
  -4  -3   1  277.57   71.49
   4  -3  -1  265.17   49.30
   4  -3  -1  156.38   55.39
  -4  -3   1  222.18   52.69
   4  -3  -1  241.28   91.59
  -4   3   1  156.38   45.10
   3  -3  -1  900.71   70.29
  -3  -3   1  641.64   85.29
  -3  -3   1  567.14  114.09
   3  -3  -1  636.84  113.69
  -3  -3   1  621.54  125.99
   3  -3  -1  759.42   76.29
   3  -3  -1  679.83  152.78
  -3   3   1  623.14   84.29
   3   3  -1  760.92   94.19
   2  -3  -1  181.28   62.89
   2  -3  -1  291.57   91.59
   2  -3  -1  348.87   65.79
   2  -3  -1   85.69   50.89
  -2  -3   1  290.07   62.19
  -2  -3   1  404.56   81.79
  -2  -3   1  230.48   47.30
   2  -3  -1  418.86   52.69
   2  -3  -1  248.58   54.39
  -2   3   1  231.28   44.50
   2   3  -1  388.16   90.19
  -1  -3   1  749.53  133.49
   1  -3  -1  782.02  100.09
  -1  -3   1  602.44   74.39
   1  -3  -1  734.23   53.99
   1  -3  -1  622.94   77.59
  -1  -3   1  689.13  106.79
   1  -3  -1  566.94  114.69
   1  -3  -1  838.92   63.79
   1   3  -1  563.54   88.19
  -1   3   1  539.55   79.69
   1   3  -1  528.55   87.49
   0  -3   1   -7.60   81.89
   0  -3   1   30.80   41.50
   0  -3   1  114.89   53.09
   0  -3  -1   39.30   48.50
   0  -3  -1   46.30   56.89
   0  -3  -1   56.19   82.69
   0  -3   1   14.30   58.59
   0  -3  -1  -26.60   47.40
   0   3   1   14.70   36.70
   0   3  -1   33.00   46.70
   0   3  -1   22.60   42.80
   0   3   1  -57.49   49.10
   1  -3   1  553.24   99.09
  -1  -3  -1  602.54   81.19
   1  -3   1  435.16   95.19
   1  -3   1  526.05   70.49
  -1  -3  -1  609.54  115.39
  -1  -3  -1  645.54  117.79
   1  -3   1  556.64   85.49
   1   3   1  534.05   73.89
  -1   3  -1  687.73   84.59
  -2  -3  -1   94.29   48.10
   2  -3   1  119.79   53.09
   2  -3   1   67.49   90.49
  -2  -3  -1  154.68   71.09
   2  -3   1   99.79   56.89
   2  -3   1  206.28   42.70
  -2  -3  -1  112.79   65.99
   2   3   1  213.78   48.30
  -2   3  -1  139.19   35.60
  -2   3  -1  115.39   45.20
   3  -3   1  399.06   96.79
  -3  -3  -1  446.86   78.59
   3  -3   1  494.85   84.19
   3  -3   1  489.95   62.39
  -3  -3  -1  383.46   73.09
   3  -3   1  342.77   66.69
  -3   3  -1  608.04   84.19
  -4  -3  -1   38.10   53.79
  -4  -3  -1   70.79   71.39
  -4  -3  -1   89.49   28.40
   4  -3   1  -33.60   99.99
   4  -3   1   77.79   48.20
   4  -3   1  114.39   41.10
   4  -3   1  325.27   74.79
  -4   3  -1   71.39   44.40
   4   3   1  150.88   55.29
  -4   3  -1   56.09   50.29
   5  -3   1   28.30   46.20
  -5  -3  -1   43.20   33.20
  -5  -3  -1   20.40   52.69
  -5  -3  -1   63.69   81.09
   5  -3   1  130.99  105.99
   5  -3   1  106.19   43.20
  -5   3  -1   -4.30   47.90
   5   3   1 -122.69   73.89
   6  -3   1   31.00   47.50
   6  -3   1   20.00  101.79
  -6  -3  -1   46.30   40.00
  -6  -3  -1  103.79   91.09
   6  -3   1   68.89   51.19
  -6  -3  -1   88.29   62.79
  -6   3  -1   53.29   51.79
   4  -4  -1  458.35  109.29
  -4  -4   1  507.15   69.79
   4  -4  -1  508.65   88.09
  -4  -4   1  607.54  138.89
   4  -4  -1  274.37  106.89
  -4  -4   1  595.04  128.09
   4   4  -1  675.23  108.29
   3  -4  -1  143.09   97.09
  -3  -4   1  260.37   89.59
  -3  -4   1  210.68   57.49
   3  -4  -1  146.89   53.69
  -3  -4   1  131.19   72.39
   3  -4  -1  119.09   73.19
   3  -4  -1  139.19   58.19
  -3   4   1  118.09   54.69
   3   4  -1  211.68   55.99
  -2  -4   1  196.38   55.39
   2  -4  -1  205.58   97.49
   2  -4  -1  337.67   75.59
   2  -4  -1  133.39   55.19
  -2  -4   1  298.77   92.39
  -2  -4   1  218.48   73.19
   2  -4  -1  260.87   59.79
  -2   4   1  208.78   50.59
   2   4  -1  240.68   54.29
   1  -4  -1  387.66  101.19
  -1  -4   1  205.68   66.09
   1  -4  -1  255.57   69.09
   1  -4  -1  232.78   56.69
   1  -4  -1  230.18   67.59
  -1  -4   1  274.87   91.99
  -1  -4   1  222.38   53.39
  -1   4   1  303.77   51.59
   1   4  -1  417.16   90.39
   0  -4   1  442.76   76.79
   0  -4  -1  522.05   86.09
   0  -4   1  442.36   77.89
   0  -4  -1  605.34  124.69
   0  -4   1  446.96   99.49
   0  -4  -1  324.97   86.69
   0  -4   1  590.64  115.99
   0   4  -1  557.44   89.19
   0   4   1  513.35   85.09
  -1  -4  -1  427.26   93.59
  -1  -4  -1  199.48   74.69
   1  -4   1  596.84  116.39
   1  -4   1  240.38   68.69
   1  -4   1  260.47   99.09
   1  -4   1  241.98   51.79
  -1  -4  -1  341.47   59.59
   1   4   1  321.07   55.49
  -1   4  -1  339.57   59.19
   2  -4   1  106.79   99.19
  -2  -4  -1   80.99   79.59
   2  -4   1  142.79   65.09
  -2  -4  -1   56.09   54.19
   2  -4   1  -30.20   47.50
   2  -4   1   -2.90   45.20
  -2  -4  -1  -23.60   71.99
   2  -4   1  151.08   57.39
   2   4   1   92.39   52.99
  -2   4  -1   68.49   50.19
   3  -4   1   77.39   55.09
  -3  -4  -1  141.69   58.79
  -3  -4  -1  203.68   89.79
   3  -4   1   14.80   49.70
  -3  -4  -1  154.78   75.19
   3  -4   1   91.19  101.29
   3  -4   1   66.49   64.09
   3   4   1  196.68   46.60
  -3   4  -1  165.78   53.69
 -10   0   2   17.90   72.09
  -9   0   2  154.38   65.29
  -9   0   2   67.89   56.09
  -8   0   2  194.48   53.69
  -8   0   2  130.59   58.29
  -7   0   2 1440.86  114.19
  -7   0   2 1453.85  114.59
  -6   0   2 1660.93  118.99
  -6   0   2 1694.23  117.39
  -5   0   2 1020.20   98.69
  -5   0   2  918.71   94.79
   5   0  -2  975.60   89.19
   5   0  -2  989.60   87.29
   4   0  -2 1347.27   96.49
  -4   0   2 1416.06  103.79
  -4   0   2 1304.77  106.39
   4   0  -2 1345.57   98.89
  -3   0   2  264.77   53.99
  -3   0   2  165.38   44.50
   3   0  -2  170.08   39.70
   3   0  -2  156.98   46.30
  -2   0   2   22.40   32.10
   2   0  -2   71.29   37.60
  -2   0   2   10.80   41.10
   2   0  -2    8.80   31.60
  -1   0   2   90.99   33.10
  -1   0   2  116.29   40.40
   1   0  -2  173.18   25.50
   1   0  -2  196.78   36.50
  -1   0   2  140.19   28.10
   1   0  -2  164.98   38.70
   0   0   2   12.40   17.00
   0   0   2   70.49   24.10
   0   0  -2   40.30   26.90
   0   0  -2    0.80   36.10
   0   0  -2   11.60   19.50
   0   0   2   39.80   18.80
   0   0   2   27.40   42.90
   0   0  -2   20.40   17.80
   1   0   2 2249.07  103.49
  -1   0  -2 2177.88  109.09
  -1   0  -2 1988.80  101.49
   1   0   2 2016.70  101.39
   1   0   2 2060.59  130.39
  -1   0  -2 2141.49  135.89
  -1   0  -2 2298.97  104.99
   1   0   2 1746.93  114.39
  -2   0  -2   61.39   35.50
  -2   0  -2  177.48   71.39
   3   0   2  712.93   84.09
  -3   0  -2  809.42  136.09
  -3   0  -2  593.04   71.49
  -3   0  -2  728.53   81.29
   3   0   2  824.82   75.79
   3   0   2  735.33   67.09
   4   0   2  363.26   70.49
  -4   0  -2  425.76   92.39
  -4   0  -2  380.66   69.49
   4   0   2  357.06   79.29
  -5   0  -2  636.64   92.09
   5   0   2  757.22   79.39
  -5   0  -2  809.02  153.48
  -5   0  -2  695.03   82.79
   5   0   2  707.73   86.69
  -6   0  -2  128.49   91.29
  -6   0  -2  157.28   52.49
   6   0   2  259.77   87.29
  -6   0  -2  113.59   49.50
   7   0   2  399.96   90.99
  -7   0  -2  180.58   54.49
  -7   0  -2  162.88   88.39
  -7   0  -2  211.98   56.29
   7   0   2  152.98   46.30
  -8   0  -2  416.46   86.19
  -8   0  -2  581.64   94.09
   8   0   2  493.65   88.89
   8   0   2  903.01  143.99
  -8   0  -2  515.65   94.49
  -9   0  -2   80.79   60.09
  -9   0  -2   -9.20  108.69
   9   0   2   23.80   49.40
  -9   0  -2   82.99   58.09
   9   0   2  241.58   98.89
  -9  -1   2   49.80   52.59
  -9  -1   2  114.89   65.69
   9  -1  -2  -34.80   46.70
   9  -1  -2  -13.40   51.09
  -9   1   2   96.39   58.89
  -9   1   2   12.80   60.69
   8  -1  -2   49.50   50.29
  -8  -1   2   77.49   58.19
  -8  -1   2  112.79   52.79
  -8   1   2  131.19   59.39
  -8   1   2   65.09   58.09
  -7  -1   2  206.78   58.29
   7  -1  -2   73.49   89.19
  -7  -1   2  335.17   75.49
  -7   1   2  257.67   59.89
  -7   1   2  136.99   53.69
  -6  -1   2  367.56   62.39
  -6  -1   2  364.16   77.09
   6  -1  -2  199.98   87.99
  -6  -1   2  394.26   60.69
   6  -1  -2  277.57   58.49
  -6   1   2  284.27   57.89
  -6   1   2  228.58   56.19
   6   1  -2  341.57   71.39
   5  -1  -2  415.26   77.09
  -5  -1   2  338.07   60.79
   5  -1  -2  307.17   79.69
  -5  -1   2  448.36   63.09
   5  -1  -2  405.16   72.39
  -5   1   2  334.57   58.19
   5   1  -2  344.57   54.89
  -5   1   2  320.57   57.39
   5   1  -2  392.36   68.09
   4  -1  -2 3195.78  177.58
  -4  -1   2 3033.60  188.48
  -4  -1   2 3602.94  174.58
  -4  -1   2 3605.44  176.28
  -4  -1   2 3557.74  175.68
   4  -1  -2 3670.03  193.98
   4  -1  -2 3714.13  176.08
   4  -1  -2 3610.84  174.48
   4   1  -2 3564.94  177.88
  -4   1   2 3353.26  183.28
   4   1  -2 3502.15  173.88
  -4   1   2 3480.15  177.98
   3  -1  -2 3492.25  175.08
  -3  -1   2 3487.85  180.38
   3  -1  -2 3999.20  186.58
   3  -1  -2 3329.87  174.08
  -3  -1   2 3629.04  170.98
  -3  -1   2 3408.86  174.98
  -3  -1   2 3501.55  174.48
   3  -1  -2 3106.79  173.88
   3   1  -2 3442.36  170.38
  -3   1   2 3223.08  176.08
   3   1  -2 3730.73  169.08
  -3   1   2 3295.57  179.38
  -2  -1   2  959.20  116.09
  -2  -1   2  980.30   79.19
  -2  -1   2  955.80   79.09
   2  -1  -2  808.02   76.69
   2  -1  -2  942.21   72.39
  -2   1   2 1048.30   79.49
   2   1  -2  944.91   76.19
  -2   1   2  943.41   81.69
   2   1  -2  996.90   62.19
   1  -1  -2  438.46   95.99
   1  -1  -2  537.95   54.59
  -1  -1   2  473.15   56.79
   1  -1  -2  470.45   71.89
   1  -1  -2  558.24   63.69
  -1  -1   2  558.74   72.99
   1  -1  -2  510.05   56.79
  -1  -1   2  479.35   40.90
   1   1  -2  659.23   93.39
  -1   1   2  401.76   81.89
   1   1  -2  427.66   61.89
   1   1  -2  453.25   49.80
   0  -1  -2 1293.17  114.39
   0  -1   2 1280.47   67.39
   0  -1   2 1174.58   69.29
   0  -1  -2 1514.75   97.49
   0  -1   2 1314.87  134.59
   0  -1   2 1122.79   96.09
   0   1  -2 1268.87  125.39
   0   1  -2 1327.77  103.69
   0   1   2 1333.57   80.09
   0   1   2 1428.46   88.89
   0   1  -2 1095.89   74.29
   0   1   2 1360.16   67.79
   0   1   2 1291.77  106.19
   0   1  -2 1433.66   68.19
   1  -1   2 1582.04   77.89
  -1  -1  -2 1728.53  107.19
  -1  -1  -2 1564.64  125.39
  -1  -1  -2 1582.24   92.79
   1  -1   2 1494.35  152.58
   1  -1   2 1786.12   78.29
   1  -1   2 1597.14  105.89
  -1   1  -2 1577.44  103.79
  -1   1  -2 1415.26  143.59
   1   1   2 1439.76  125.29
   1   1   2 1653.63  100.39
  -1   1  -2 1496.75   93.99
  -2  -1  -2  796.82   71.09
   2  -1   2  789.22   84.09
  -2  -1  -2  540.85  128.19
   2  -1   2  783.02  146.39
  -2  -1  -2  757.12   75.19
   2  -1   2  742.83   51.69
  -2   1  -2  772.52  134.19
   2   1   2  611.64   98.79
   2   1   2  764.92   78.59
  -2   1  -2  600.94   74.59
  -2   1  -2  784.82   54.29
   2   1   2  671.03   72.99
  -2   1  -2  791.12   84.99
   3  -1   2 1778.32  119.69
  -3  -1  -2 1697.33  160.68
  -3  -1  -2 1835.52  107.99
  -3  -1  -2 1924.11  116.19
   3  -1   2 1596.64  112.79
  -3   1  -2 1829.32  159.18
  -3   1  -2 1688.23  100.49
   3   1   2 1802.62  131.49
  -3   1  -2 1830.82  118.29
   3   1   2 1962.00  108.39
  -3   1  -2 1608.54  112.49
   3   1   2 1899.71  108.29
   4  -1   2 1003.50   93.49
   4  -1   2 1053.19   98.49
  -4  -1  -2 1012.70   93.69
  -4  -1  -2  838.32  162.38
  -4  -1  -2  987.40   88.39
  -4   1  -2 1004.10   95.39
   4   1   2  973.00   86.59
   4   1   2 1057.49   83.89
  -4   1  -2 1044.60  138.09
  -4   1  -2 1006.40   84.29
   4   1   2 1065.49  115.19
  -5  -1  -2 1197.68  100.79
   5  -1   2 1284.67  106.99
  -5  -1  -2 1269.17  101.69
  -5  -1  -2 1328.87  175.48
   5  -1   2 1562.14   83.39
  -5   1  -2 1209.58  141.99
  -5   1  -2 1233.68   97.19
  -5   1  -2 1216.48  105.59
   5   1   2 1271.47  125.49
   5   1   2 1288.97   95.99
   6  -1   2  719.53   90.29
  -6  -1  -2  688.53   89.89
  -6  -1  -2  617.44  103.49
   6  -1   2 1062.99  159.78
  -6  -1  -2  728.73   87.99
   6   1   2  647.64  106.49
  -6   1  -2  648.84  127.09
  -6   1  -2  675.63   85.89
  -6   1  -2  678.93   92.19
  -7  -1  -2  486.05   79.49
  -7  -1  -2  350.66   95.89
   7  -1   2  474.65   89.79
  -7  -1  -2  512.05   85.99
  -7   1  -2  419.36   89.99
   7   1   2  432.36  100.09
  -7   1  -2  460.85   86.59
  -7   1  -2  538.15   89.79
  -8  -1  -2  490.85   84.79
  -8  -1  -2  467.65   91.99
   8  -1   2  758.32  169.38
  -8  -1  -2  308.77   98.39
   8  -1   2  142.09   50.79
  -8   1  -2  227.88   60.19
  -8   1  -2  281.47   82.69
   8   1   2  312.77   69.09
  -8   1  -2  361.76   64.29
  -9  -1  -2  268.87  136.19
   9  -1   2  193.48   54.09
  -9  -1  -2  246.18   65.39
  -9  -1  -2  276.17   60.59
   9  -1   2  329.27  104.09
  -9   1  -2  245.38   63.99
  -9   1  -2  202.78   58.59
   9   1   2  507.95  116.19
  -9   1  -2  291.47   84.99
   8  -2  -2  131.69   58.69
  -8  -2   2  157.48   92.59
  -8  -2   2   84.69   56.59
  -8  -2   2  163.08   54.49
  -8  -2   2  140.19   50.59
   8  -2  -2   96.79   55.29
  -8   2   2   90.69   56.79
  -8   2   2   42.40   61.89
  -7  -2   2  283.57   60.99
  -7  -2   2  233.88   62.19
  -7  -2   2  236.58   49.70
  -7  -2   2  366.86   74.59
   7  -2  -2   74.19   93.09
   7  -2  -2  262.17   58.39
   7  -2  -2  129.29   51.69
  -7   2   2  160.88   56.79
  -7   2   2  155.88   54.99
  -6  -2   2  437.66   94.59
   6  -2  -2  549.85   83.99
   6  -2  -2  268.47   56.09
  -6  -2   2  423.66   71.09
  -6  -2   2  479.85   72.59
  -6  -2   2  292.47   61.89
   6  -2  -2  183.48   87.69
  -6   2   2  359.66   86.79
   6   2  -2  519.15   67.59
  -6   2   2  395.46   81.39
   5  -2  -2  329.47   78.99
  -5  -2   2  383.36   62.89
   5  -2  -2  136.59   72.19
   5  -2  -2  281.97   53.89
  -5  -2   2  405.26   68.09
  -5  -2   2  434.06   61.09
   5  -2  -2  308.17   47.80
  -5  -2   2  334.27   63.29
  -5   2   2  264.87   49.99
  -5   2   2  380.26   83.19
   5   2  -2  383.26   60.59
  -4  -2   2  370.36   71.39
  -4  -2   2  243.68   52.09
  -4  -2   2  304.17   60.69
   4  -2  -2  160.38   41.30
   4  -2  -2  230.68   41.80
   4  -2  -2   37.70   72.99
  -4  -2   2  244.58   52.09
  -4   2   2  163.38   47.60
  -4   2   2  277.87   52.59
   4   2  -2  304.47   51.39
  -3  -2   2  716.03   81.19
   3  -2  -2  432.26  103.99
   3  -2  -2  820.62   66.59
   3  -2  -2  993.70   70.69
  -3  -2   2  772.62  116.39
   3  -2  -2  883.01   80.09
   3  -2  -2  516.75  124.49
  -3  -2   2  770.02   97.99
   3   2  -2  912.01  109.29
   3   2  -2  789.72   57.39
  -3   2   2  740.93   76.59
   3   2  -2  747.23   78.49
   3   2  -2  614.24   74.29
   2  -2  -2  100.29   75.59
   2  -2  -2  150.88   35.10
  -2  -2   2  107.79   45.90
   2  -2  -2  -27.20   49.80
  -2  -2   2  108.29   71.09
   2  -2  -2  122.79   36.70
  -2  -2   2   80.39   51.29
   2  -2  -2  133.69   65.19
  -2   2   2   77.29   37.70
   2   2  -2   -2.60   54.49
   2   2  -2  108.59   40.40
  -1  -2   2   97.39   37.80
   1  -2  -2  143.49   59.29
  -1  -2   2  170.98   82.59
   1  -2  -2  157.38   30.10
   1  -2  -2  170.28   50.59
  -1   2   2  184.98   54.89
   1   2  -2   98.79   50.29
  -1   2   2  117.79   34.10
   1   2  -2  170.08   39.50
   0  -2  -2  344.27   42.40
   0  -2  -2  409.56   75.19
   0  -2  -2  420.26   76.99
   0  -2   2  231.38   87.29
   0  -2   2  303.37   39.50
   0  -2   2  554.74   89.69
   0   2  -2  333.47   38.60
   0   2   2  253.77   58.69
   0   2  -2  339.17   83.39
   0   2   2  361.56   58.29
   0   2   2  340.57   56.99
   0   2  -2  358.86   44.80
   0   2  -2  326.97   73.09
   1  -2   2  262.77   88.39
  -1  -2  -2  405.86   77.29
  -1  -2  -2  471.85   47.70
   1  -2   2  376.46   89.79
  -1   2  -2  391.76   54.29
   1   2   2  477.15   59.39
  -1   2  -2  352.36   75.09
  -1   2  -2  411.26   81.29
   1   2   2  398.06   67.29
   1   2   2  421.36   95.59
   1   2   2  430.76   56.29
   2  -2   2  411.96   84.29
   2  -2   2  403.36   43.50
  -2  -2  -2  429.46   79.79
   2  -2   2  466.45   49.50
   2  -2   2  313.97   91.59
  -2  -2  -2  515.15   75.19
  -2  -2  -2  465.85   52.29
   2   2   2  548.75   75.79
  -2   2  -2  466.75   65.89
   2   2   2  526.95   99.79
   2   2   2  398.96   59.29
  -2   2  -2  443.86   83.89
   2   2   2  457.05   57.59
  -3  -2  -2  260.87   55.39
  -3  -2  -2  318.37   53.99
   3  -2   2  260.67  101.49
   3  -2   2  246.68   35.50
  -3  -2  -2  273.87   76.99
   3  -2   2  393.56   58.69
   3  -2   2  176.18   49.50
  -3   2  -2  223.28   47.10
   3   2   2  297.87   54.19
  -3   2  -2  231.58   46.30
  -3   2  -2  307.57   76.39
   3   2   2  281.07   65.59
  -4  -2  -2 3403.96  179.08
   4  -2   2 3531.75  226.58
   4  -2   2 2941.71  173.38
  -4  -2  -2 3469.65  168.28
   4  -2   2 3409.56  163.78
   4  -2   2 3244.28  188.28
  -4   2  -2 3378.36  182.18
   4   2   2 3681.43  171.48
  -4   2  -2 3349.66  176.78
  -4   2  -2 3302.27  163.78
  -4   2  -2 3267.07  200.28
   4   2   2 3412.36  186.38
   5  -2   2 1841.82  174.48
  -5  -2  -2 1291.07  106.49
   5  -2   2 1260.57  108.09
   5  -2   2 1156.58   81.99
  -5  -2  -2 1386.36   93.79
  -5  -2  -2 1293.37  149.49
  -5   2  -2 1166.08  100.49
  -5   2  -2 1172.88   85.59
   5   2   2 1304.77  114.19
   5   2   2 1520.55   95.29
  -5   2  -2 1194.18  132.29
  -6  -2  -2  377.66   74.79
   6  -2   2  380.26   90.99
  -6  -2  -2  437.76   90.29
  -6  -2  -2  363.16   97.99
  -6   2  -2  408.26   84.19
  -6   2  -2  260.07   75.79
   6   2   2  413.16   95.49
  -6   2  -2  410.86   71.09
  -7  -2  -2  186.98   47.50
   7  -2   2  143.39   50.59
  -7  -2  -2  376.66  114.49
  -7  -2  -2  223.18   62.59
  -7   2  -2  107.59   74.19
  -7   2  -2   99.59   46.60
  -7   2  -2  168.18   56.99
   7   2   2  249.68   64.29
   8  -2   2   41.80   56.49
  -8  -2  -2   26.20   56.99
  -8  -2  -2   11.80   49.10
   8  -2   2  190.38  115.19
  -8  -2  -2  -98.99  107.39
  -8   2  -2  -14.90   79.49
  -8   2  -2    4.90   50.19
   8   2   2   14.00   98.79
  -8   2  -2   38.70   52.59
  -7  -3   2  258.67   60.89
   7  -3  -2  238.78   60.89
  -7  -3   2  459.25   88.79
   7  -3  -2  332.27  108.39
   7  -3  -2  145.99   66.99
  -7  -3   2  410.46   79.99
  -7   3   2  173.38   56.39
  -6  -3   2  166.98   71.09
   6  -3  -2  231.28   91.69
   6  -3  -2   76.99   55.69
  -6  -3   2  141.99   75.69
   6  -3  -2   50.09   52.39
  -6  -3   2  129.19   59.79
   6   3  -2  -73.09   65.79
  -6   3   2   66.09   49.90
   5  -3  -2   -6.00   49.70
  -5  -3   2    9.60   61.49
   5  -3  -2   26.80   86.59
  -5  -3   2   66.09   68.29
   5  -3  -2  -59.39   61.29
  -5  -3   2   48.10   51.89
   5   3  -2   -8.40   61.89
  -5   3   2  -12.00   45.20
  -4  -3   2  529.65   84.39
   4  -3  -2  446.36   75.69
   4  -3  -2  720.33   73.49
  -4  -3   2  549.25   82.89
   4  -3  -2  332.77   96.69
  -4  -3   2  584.04  113.79
   4   3  -2  463.15  109.09
   3  -3  -2  705.53  116.49
  -3  -3   2  760.02   83.89
   3  -3  -2  898.01   72.19
   3  -3  -2  705.73  146.59
  -3  -3   2  727.53  102.89
  -3  -3   2  820.62  126.09
   3  -3  -2  767.32   77.79
  -2  -3   2  203.08   62.59
  -2  -3   2  129.49   46.20
   2  -3  -2  163.68   33.50
  -2  -3   2  148.79   81.09
   2  -3  -2  171.18   43.60
   2  -3  -2  130.39   63.39
   2  -3  -2  191.58   77.79
   2  -3  -2  140.49   55.59
   2   3  -2  144.49   51.79
   2   3  -2  -11.10   45.50
  -2   3   2   78.99   37.00
   1  -3  -2   69.09   80.79
   1  -3  -2  207.28   29.60
   1  -3  -2   93.59   62.49
   1  -3  -2  167.58   38.30
  -1  -3   2  112.89   84.39
  -1  -3   2   56.49   54.59
  -1  -3   2  121.69   42.80
   1  -3  -2  133.29   49.10
   1   3  -2  104.49   48.90
  -1   3   2  195.38   38.80
   1   3  -2  227.28   51.09
   0  -3  -2   92.99   67.69
   0  -3   2  120.39   84.29
   0  -3   2   83.09   51.49
   0  -3  -2  104.89   52.09
   0  -3  -2   93.09   68.59
   0  -3  -2   30.10   46.70
   0  -3   2   51.29   38.20
   0   3   2  102.99   36.80
   0   3  -2   90.89   44.40
   0   3  -2   92.49   44.40
   1  -3   2  876.81   99.69
  -1  -3  -2  781.22  124.49
   1  -3   2  736.93  111.39
  -1  -3  -2  627.44   84.49
   1  -3   2  632.84   65.19
   1  -3   2  561.14   97.49
  -1   3  -2  709.93   54.99
   1   3   2  837.12   73.59
  -1   3  -2  822.72   91.69
   2  -3   2  277.37   54.69
   2  -3   2  277.17  100.19
   2  -3   2  182.48   57.09
  -2  -3  -2  295.77   73.49
  -2  -3  -2  165.88   49.20
  -2   3  -2  214.88   37.40
  -2   3  -2  144.69   46.30
   2   3   2  288.57   45.90
   3  -3   2   53.19   44.90
   3  -3   2   21.50  102.99
  -3  -3  -2   81.39   24.20
   3  -3   2   76.89   40.80
   3  -3   2   81.59   36.10
  -3  -3  -2   68.39   71.89
  -3  -3  -2   70.39   54.09
   3   3   2   99.99   58.59
   3   3   2   -0.50   45.80
   3   3   2   93.29   40.60
  -3   3  -2   48.10   38.50
  -3   3  -2   77.39   49.20
   4  -3   2  140.29   37.20
  -4  -3  -2  136.89   56.29
  -4  -3  -2  172.68   79.39
   4  -3   2  110.79   51.59
   4  -3   2   38.10  101.99
  -4  -3  -2  116.49   31.30
   4   3   2   99.79   52.09
   4   3   2   54.09   57.79
  -4   3  -2   46.60   47.00
  -4   3  -2   72.99   74.59
  -4   3  -2   59.39   42.70
  -5  -3  -2  376.36   66.49
  -5  -3  -2  313.87   60.59
   5  -3   2  447.46   64.99
   5  -3   2  349.77  110.19
   5  -3   2  532.15   77.09
   5  -3   2  483.55   93.29
  -5  -3  -2  245.28   91.39
  -5   3  -2  359.36   79.39
   5   3   2  156.08   62.59
  -5   3  -2  262.57   76.59
   5   3   2  284.27   65.79
   6  -3   2  281.27  118.19
   6  -3   2  128.29   54.99
   6  -3   2  204.98   53.39
  -6  -3  -2  300.67   97.49
  -6  -3  -2  158.18   43.20
  -6  -3  -2  231.88   65.89
  -6   3  -2  182.58   76.89
  -6   3  -2  158.58   52.59
   6   3   2   85.89   60.69
   4  -4  -2   93.09  102.19
   4  -4  -2   14.60   58.29
  -4  -4   2  169.58   76.39
  -4  -4   2   99.19   57.29
   4  -4  -2   29.10   67.79
  -4  -4   2   71.99   89.59
   4   4  -2  134.29   58.19
   3  -4  -2  114.49   57.39
  -3  -4   2  219.68   55.39
  -3  -4   2  281.57   75.49
   3  -4  -2  178.28   98.79
   3  -4  -2  271.67   75.99
  -3  -4   2  317.07   98.69
   3   4  -2  278.47   62.99
  -2  -4   2  125.89   91.49
  -2  -4   2  254.87   53.49
   2  -4  -2  228.68   50.59
   2  -4  -2  205.48   96.09
   2  -4  -2  161.88   76.59
  -2  -4   2  311.67   71.19
   2  -4  -2  219.38   58.29
   2  -4  -2  128.99   54.19
   2   4  -2  221.88   54.99
  -2   4   2  162.18   48.00
  -1  -4   2 1167.28  167.08
  -1  -4   2  959.40   92.99
  -1  -4   2 1083.09  126.49
   1  -4  -2 1012.30  159.68
   1  -4  -2 1091.79  135.89
   1  -4  -2  832.02  106.09
   1   4  -2 1202.38  108.99
  -1   4   2 1035.40   95.29
   0  -4   2  660.33   81.29
   0  -4  -2  832.32  130.49
   0  -4   2  952.30  171.18
   0  -4  -2  659.03   90.99
   0  -4  -2  742.13  137.19
   0  -4   2  577.24  119.69
   0  -4   2  686.43  113.59
   0   4  -2  745.83   97.69
   0   4   2  593.34   80.39
  -1  -4  -2  175.68   87.19
   1  -4   2   21.70   43.40
  -1  -4  -2  199.98   74.29
   1  -4   2  172.48  104.39
   1  -4   2   -9.20   51.49
   1  -4   2  122.09   63.79
  -1  -4  -2  181.98   55.99
   1   4   2  135.39   42.00
  -1   4  -2  103.09   51.79
   2  -4   2    7.10  103.49
   2  -4   2   52.49   44.20
  -2  -4  -2   84.59   54.79
  -2  -4  -2   45.30   84.79
  -2  -4  -2   26.60   71.49
   2  -4   2  165.48   60.19
   2  -4   2  112.59   63.79
   2   4   2  127.69   41.70
  -2   4  -2  115.39   53.39
   3  -4   2  183.68   60.39
  -3  -4  -2   71.69   77.79
   3  -4   2   85.59  120.09
  -3  -4  -2  116.09   78.79
  -3  -4  -2  137.89   57.69
   3  -4   2    5.30   60.29
   3   4   2  151.78   45.00
  -3   4  -2   44.40   40.80
  -3   4  -2  101.69   54.79
 -10   0   3  173.78   60.29
 -10   0   3  225.68   71.29
  -9   0   3  100.39   54.29
  -9   0   3   97.29   62.79
  -8   0   3  176.18   54.49
  -8   0   3  182.18   63.39
  -7   0   3  921.01   97.09
  -7   0   3  929.31   98.99
  -6   0   3 2084.99  131.99
  -6   0   3 1928.21  126.49
   5   0  -3    0.00   45.20
  -5   0   3  -43.60   54.29
  -5   0   3    1.70   50.09
   5   0  -3   33.90   47.30
  -4   0   3  217.48   59.49
   4   0  -3  258.77   54.19
  -4   0   3  144.59   51.29
   4   0  -3  230.48   47.40
   3   0  -3  156.28   48.30
  -3   0   3  135.89   53.99
   3   0  -3  164.28   43.90
  -3   0   3  175.78   45.40
   2   0  -3  134.79   35.20
   2   0  -3  363.26   77.69
   2   0  -3  136.49   45.20
  -2   0   3  133.99   43.70
  -1   0   3  341.57   61.49
   1   0  -3  355.36   62.39
  -1   0   3  305.47   69.49
  -1   0   3  372.86   54.69
   1   0  -3  576.94   90.19
   0   0   3    6.90   61.19
   0   0  -3   85.99   39.50
   0   0  -3    1.20   26.00
   0   0   3   18.60   28.10
   0   0  -3   27.50   28.00
   0   0  -3  153.58   62.69
   0   0   3   46.90   28.10
   0   0   3  116.79   38.50
   1   0   3   18.50   28.20
   1   0   3  171.68   74.69
  -1   0  -3   11.70   28.00
  -1   0  -3  192.98   78.59
  -1   0  -3   57.09   33.30
   1   0   3   88.39   29.20
  -2   0  -3  203.08   37.20
   2   0   3  585.54  132.69
   2   0   3  135.39   44.10
   2   0   3  190.78   37.60
  -2   0  -3  334.17   83.29
  -2   0  -3  146.89   41.40
   2   0   3  327.17   51.19
   3   0   3 4430.76  256.17
   3   0   3 4456.95  219.48
  -3   0  -3 4418.56  214.28
   3   0   3 4418.56  212.38
   3   0   3 4392.56  216.68
  -3   0  -3 4750.82  257.37
  -3   0  -3 4539.75  221.08
  -4   0  -3 1045.10  158.58
   4   0   3 1250.87   92.59
   4   0   3 1327.97  157.78
  -4   0  -3 1166.78   98.09
   4   0   3 1100.79   92.29
   4   0   3 1164.88   95.99
  -4   0  -3 1139.29   90.69
   5   0   3 1049.20   95.89
  -5   0  -3 1226.38  160.98
  -5   0  -3 1206.88   92.09
   5   0   3 1224.38   90.69
   5   0   3 1570.54  161.58
  -5   0  -3 1155.68   99.99
   6   0   3  324.47   82.19
   6   0   3  510.85   98.09
  -6   0  -3  494.25   85.89
  -6   0  -3  475.45   77.49
  -6   0  -3  547.55  106.19
  -7   0  -3  320.47   59.79
   7   0   3  360.66   81.39
  -7   0  -3  334.67  100.49
   7   0   3  647.24  150.28
  -7   0  -3  509.15   89.49
  -8   0  -3 1060.29  157.88
  -8   0  -3 1097.19  108.09
   8   0   3 1186.18  157.78
   8   0   3  932.71   99.29
  -8   0  -3 1042.70  107.39
   9   0   3  254.67  101.09
   9   0   3   60.09   52.19
  -9   0  -3  119.39   61.29
  -9   0  -3   71.89   58.99
  -9   0  -3   24.40   90.29
  -9  -1   3   31.40   53.39
  -9  -1   3   47.30   61.39
   9  -1  -3   47.10   48.20
  -9   1   3   -6.40   55.09
  -9   1   3   58.49   59.99
  -8  -1   3   29.50   49.30
  -8  -1   3    6.30   57.79
   8  -1  -3   66.19   46.10
  -8   1   3   35.20   56.19
  -8   1   3  -10.70   57.79
   7  -1  -3   35.20   43.50
  -7  -1   3   90.69   61.79
  -7  -1   3   75.19   48.80
   7  -1  -3  -14.20   85.99
  -7   1   3   23.50   52.09
  -7   1   3   60.49   58.89
   6  -1  -3  120.49   46.70
  -6  -1   3   82.69   49.40
  -6  -1   3   88.19   61.19
   6  -1  -3   49.90   71.29
   6   1  -3  116.69   43.30
  -6   1   3  105.59   59.49
  -6   1   3   21.50   56.09
  -5  -1   3  719.63   77.49
  -5  -1   3  669.43   88.09
   5  -1  -3  722.73   83.39
   5  -1  -3  767.42  109.99
  -5  -1   3  684.73   82.19
   5  -1  -3  654.03   84.69
   5  -1  -3  940.31   82.39
   5   1  -3  716.23   74.59
   5   1  -3  702.03   82.69
  -5   1   3  709.83   96.69
  -5   1   3  771.22   88.49
  -4  -1   3 7455.45  333.27
  -4  -1   3 7338.37  332.17
   4  -1  -3 7275.37  335.27
   4  -1  -3 7175.08  335.37
   4  -1  -3 7096.09  332.47
  -4  -1   3 6194.88  354.16
  -4  -1   3 7048.99  329.27
   4  -1  -3 7272.07  339.17
  -4   1   3 6857.91  333.37
   4   1  -3 7372.26  330.47
   4   1  -3 7421.96  333.27
   3  -1  -3  681.63   77.29
  -3  -1   3  899.81   68.49
   3  -1  -3  931.51   83.29
   3  -1  -3  808.22   81.49
  -3  -1   3  728.63   82.09
  -3  -1   3  875.11   99.49
  -3   1   3  657.73   82.29
   3   1  -3  736.83   66.39
   3   1  -3  828.22   79.29
  -3   1   3  779.52   84.99
   2  -1  -3  807.52   69.39
  -2  -1   3  876.51  111.59
   2  -1  -3  624.84   71.49
   2  -1  -3  814.82   77.89
  -2  -1   3  783.12   76.79
   2   1  -3  645.44   90.09
   2   1  -3  850.61   95.89
  -2   1   3 1007.90   83.29
   2   1  -3  836.02   70.69
   2   1  -3  982.30   63.69
  -2   1   3  906.91   90.19
  -1  -1   3  338.17   38.60
   1  -1  -3  372.36   53.99
   1  -1  -3  434.36   65.79
   1  -1  -3  360.96   46.50
  -1  -1   3  339.97   38.40
  -1  -1   3  304.37   80.69
   1  -1  -3  219.48   60.79
   1   1  -3  335.47   59.89
  -1   1   3  217.88   51.39
   1   1  -3  320.87   69.89
  -1   1   3  242.78   53.39
   0  -1  -3  426.46   80.89
   0  -1   3  299.77   82.49
   0  -1   3  330.57   47.20
   0  -1   3  225.08   52.99
   0  -1  -3  266.47   64.29
   0  -1   3  283.67   32.10
   0   1  -3  331.17   30.80
   0   1   3  402.36   54.19
   0   1   3  336.07   66.79
   0   1  -3  294.67   75.79
   0   1  -3  243.58   52.49
   0   1   3  369.86   69.19
   0   1  -3  235.48   40.20
  -1  -1  -3  -60.89   37.50
   1  -1   3  102.69   86.79
   1  -1   3    4.10   43.40
  -1  -1  -3   14.40   45.00
  -1  -1  -3  -78.39   75.79
   1  -1   3  -79.69   36.30
  -1   1  -3   37.20   89.39
   1   1   3  121.99   40.90
   1   1   3  -23.60   62.69
  -1   1  -3  -31.00   33.80
   1   1   3   47.90   50.39
  -1   1  -3  -28.60   42.80
   2  -1   3  579.94   81.79
  -2  -1  -3  737.53   87.19
  -2  -1  -3  818.32   96.29
  -2  -1  -3  603.44   70.69
   2  -1   3  716.23  169.18
   2  -1   3  608.04   81.19
  -2   1  -3  590.64   74.79
  -2   1  -3  717.23  154.98
   2   1   3  675.33   76.29
   2   1   3  651.63  118.79
   2   1   3  507.05   73.89
  -2   1  -3  651.33   49.60
  -2   1  -3  674.23   83.29
   3  -1   3  633.94   80.69
  -3  -1  -3  677.33  100.89
  -3  -1  -3  666.13   79.69
   3  -1   3  711.73   86.89
   3   1   3  724.73   80.39
   3   1   3  591.94   77.59
  -3   1  -3  705.53   86.09
  -3   1  -3  697.43   82.59
  -3   1  -3  599.44  102.69
   3   1   3  803.32  128.29
  -3   1  -3  680.43   60.99
   4  -1   3  201.18   50.99
  -4  -1  -3  123.09   51.59
   4  -1   3  113.99   50.59
  -4  -1  -3  127.09  100.89
  -4  -1  -3  116.19   48.90
   4   1   3  172.98   73.79
  -4   1  -3  155.68   93.79
  -4   1  -3  159.28   40.30
  -4   1  -3   78.49   47.90
   4   1   3  110.19   45.10
   4   1   3  173.88   46.50
  -5  -1  -3   48.70   97.69
  -5  -1  -3  -21.20   44.50
  -5  -1  -3    6.80   51.39
   5  -1   3   -3.60   48.50
   5   1   3   69.99   45.50
   5   1   3    2.70   69.69
  -5   1  -3   46.00   44.40
  -5   1  -3    9.20   49.00
  -5   1  -3   44.80   87.59
  -6  -1  -3   81.69   98.69
  -6  -1  -3   75.29   47.20
  -6  -1  -3   99.89   54.39
   6  -1   3   21.70   41.90
  -6   1  -3   78.29   53.09
  -6   1  -3   96.89   46.30
   6   1   3   87.99   73.99
  -6   1  -3   14.90   83.19
  -7  -1  -3  177.38   52.59
  -7  -1  -3  161.28   57.89
   7  -1   3  164.78   50.09
   7   1   3  173.28   75.29
  -7   1  -3  213.28   54.19
  -7   1  -3  211.68   86.59
  -7   1  -3  158.48   52.69
   8  -1   3   99.19   49.80
  -8  -1  -3  170.58   64.59
   8  -1   3  108.09  102.69
  -8  -1  -3   95.79   52.69
  -8  -1  -3  135.19  102.39
   8   1   3  181.88   71.49
  -8   1  -3  176.58   60.99
  -8   1  -3   84.59   57.09
  -8  -2   3    9.40   45.20
  -8  -2   3   62.89   61.19
   8  -2  -3   -2.50  152.08
   8  -2  -3  119.59   64.09
  -8  -2   3   -4.80   57.59
   8  -2  -3  -12.10   55.39
  -8  -2   3   94.79   81.09
  -8   2   3   29.60   53.39
  -8   2   3   14.70   55.49
  -7  -2   3  249.08   62.39
   7  -2  -3   46.60   89.89
  -7  -2   3  280.37   64.69
  -7  -2   3  140.89   43.60
  -7  -2   3  200.58   57.99
   7  -2  -3  127.59   54.89
  -7   2   3  106.29   57.59
  -7   2   3  152.08   54.29
  -6  -2   3  239.28   57.79
  -6  -2   3  197.98   62.99
  -6  -2   3  222.28   41.10
   6  -2  -3  124.99   78.69
  -6  -2   3  260.57   59.39
   6   2  -3  185.08   40.70
  -6   2   3  104.39   53.49
  -6   2   3  124.29   50.39
   5  -2  -3  161.68   54.19
   5  -2  -3   75.29   44.60
  -5  -2   3  165.58   65.59
   5  -2  -3   33.10   69.69
  -5  -2   3  219.58   57.69
   5  -2  -3  134.09   41.90
  -5  -2   3   97.29   56.09
   5   2  -3  204.08   37.10
  -5   2   3  100.89   48.00
  -5   2   3  116.69   49.10
   4  -2  -3  576.14   68.69
  -4  -2   3  856.21  117.59
   4  -2  -3  584.24   85.09
  -4  -2   3  849.12   92.69
   4  -2  -3  800.52   80.69
   4  -2  -3  723.73   72.49
  -4  -2   3  770.72   80.99
   4  -2  -3  594.24   82.19
  -4   2   3  653.33   80.89
   4   2  -3  733.63   74.89
   4   2  -3  841.32   62.89
  -4   2   3  773.82   79.89
   4   2  -3  562.94   82.69
   3  -2  -3  604.14   67.69
   3  -2  -3  541.35   92.79
   3  -2  -3  904.51   72.09
  -3  -2   3  687.73   75.69
   3  -2  -3  414.26   83.89
  -3  -2   3  652.33   86.89
  -3  -2   3  718.13  124.99
   3   2  -3  725.23   52.89
   3   2  -3  854.81  111.09
   3   2  -3  604.44   71.19
   3   2  -3  735.33   73.89
   2  -2  -3  430.76   72.29
   2  -2  -3  618.94  111.49
   2  -2  -3  465.25   94.89
  -2  -2   3  611.04   72.69
  -2  -2   3  708.83   94.79
   2  -2  -3  873.81   73.89
   2  -2  -3  711.53   66.29
   2  -2  -3  465.75   85.89
   2   2  -3  612.24   51.59
   2   2  -3  632.54  104.89
   2   2  -3  573.44   65.89
   2   2  -3  668.93   42.70
  -1  -2   3  328.07   86.79
  -1  -2   3  334.87   41.80
  -1  -2   3  349.37   48.40
   1  -2  -3  309.87   57.99
   1  -2  -3  215.38   69.19
   1  -2  -3  341.27   55.89
   1  -2  -3  201.18   42.60
   1   2  -3  334.27   40.70
  -1   2   3  315.17   50.99
  -1   2   3  264.07   60.79
   1   2  -3  309.27   57.39
   1   2  -3  260.57   33.50
   1   2  -3  388.46   75.39
  -1   2   3  313.97   60.09
   0  -2   3  405.06   96.19
   0  -2   3  376.46   49.90
   0  -2  -3  247.28   70.29
   0  -2   3  315.27   89.29
   0   2  -3  362.16   57.99
   0   2   3  369.36   50.19
   0   2  -3  395.46   87.39
   0   2   3  342.37   54.69
   0   2  -3  333.37   44.70
   0   2  -3  385.06   77.39
   0   2   3  367.86   63.89
   0   2   3  493.15   66.99
   1  -2   3   32.30   48.80
  -1  -2  -3  152.48   62.59
   1  -2   3   39.30   94.39
  -1  -2  -3  285.57   55.49
  -1  -2  -3  119.49   55.99
   1  -2   3  130.69   27.30
   1   2   3   77.49   29.60
  -1   2  -3  129.19   76.39
  -1   2  -3   88.29   34.30
   1   2   3  142.39   53.49
   1   2   3  133.69   61.99
   1   2   3   99.29   35.80
  -1   2  -3   57.89   42.90
  -2  -2  -3  212.58   35.60
   2  -2   3  232.48   99.69
   2  -2   3  211.08   28.20
   2  -2   3  172.88   51.39
  -2  -2  -3  242.08   54.79
  -2   2  -3  223.98   54.29
  -2   2  -3  165.98   42.00
  -2   2  -3  229.58   81.29
   2   2   3  272.47   65.59
   2   2   3  209.98   68.09
   2   2   3  245.18   41.60
   2   2   3  218.48   53.99
   3  -2   3  439.36   51.29
   3  -2   3  278.17   93.79
   3  -2   3  346.37   45.90
   3  -2   3  197.68   43.10
  -3  -2  -3  421.56   86.19
   3  -2   3  339.57   56.79
  -3  -2  -3  350.46   59.39
  -3  -2  -3  278.87   61.19
  -3   2  -3  310.37   55.69
  -3   2  -3  315.07   82.89
   3   2   3  316.97   68.19
  -3   2  -3  215.08   48.20
   3   2   3  424.76   62.79
   4  -2   3 2425.46  209.18
   4  -2   3 2272.37  120.29
  -4  -2  -3 2440.26  184.28
  -4  -2  -3 2522.95  130.99
  -4  -2  -3 2337.27  140.39
   4  -2   3 2255.77  136.79
   4  -2   3 2416.06  145.19
  -4   2  -3 2303.97  143.29
  -4   2  -3 2341.87  121.19
   4   2   3 2651.73  132.79
  -4   2  -3 2290.47  139.29
  -4   2  -3 2345.17  176.68
   4   2   3 2432.66  163.58
  -5  -2  -3   37.40   88.79
   5  -2   3   44.70   48.20
  -5  -2  -3   37.10   50.69
  -5  -2  -3   50.99   40.00
   5  -2   3  197.48  116.29
  -5   2  -3   40.20   45.10
   5   2   3    9.90   67.69
  -5   2  -3   17.50   34.50
  -5   2  -3  -34.20   78.29
  -6  -2  -3  113.09   59.39
   6  -2   3   42.10   48.90
  -6  -2  -3  170.28  109.89
  -6  -2  -3   63.19   43.10
   6   2   3  125.59   81.79
  -6   2  -3  112.59   80.09
  -6   2  -3   18.50   49.10
  -7  -2  -3  125.99   58.99
   7  -2   3   92.79   53.49
  -7  -2  -3   96.19   48.20
  -7  -2  -3  204.68  233.68
   7  -2   3  178.08   45.20
   7   2   3   59.09   71.89
  -7   2  -3   66.19   79.19
  -7   2  -3   76.79   55.99
  -7   2  -3  102.79   44.50
  -8  -2  -3  265.87  117.19
  -8  -2  -3  343.17   59.59
  -8  -2  -3  506.15  100.59
   8  -2   3  231.88   58.49
   8  -2   3 1018.60  220.68
  -8   2  -3  562.74  132.89
  -8   2  -3  397.86   79.29
  -8   2  -3  424.26   99.39
   8   2   3  534.95  110.99
   7  -3  -3  -88.59   69.09
  -7  -3   3  116.29   81.99
   7  -3  -3 -110.49   92.39
   7  -3  -3   16.00   59.99
  -7  -3   3  161.38   64.49
  -7   3   3   21.40   51.39
  -6  -3   3   56.49   56.89
   6  -3  -3 -146.99   51.49
  -6  -3   3   30.90  100.69
   6  -3  -3  -78.89   43.00
   6  -3  -3   75.39   81.69
  -6  -3   3   25.70   80.69
  -6   3   3   26.30   47.70
   5  -3  -3  -87.49   51.49
  -5  -3   3  137.89   65.49
  -5  -3   3  194.98   80.99
   5  -3  -3   31.10   41.70
   5  -3  -3  -36.80   66.29
   5  -3  -3  103.89   84.99
  -5  -3   3  109.59   53.49
   5   3  -3   84.79   65.09
   4  -3  -3  101.69   53.69
   4  -3  -3   67.89   86.99
  -4  -3   3  112.09   64.59
  -4  -3   3   80.29   80.09
   4  -3  -3   40.40   68.09
  -4  -3   3   81.69   50.09
   4  -3  -3  112.49   39.50
   4   3  -3   77.49   60.39
  -3  -3   3  282.97   86.69
   3  -3  -3  284.87   70.39
   3  -3  -3  245.88   41.00
   3  -3  -3  122.69   56.89
   3  -3  -3  319.97   91.49
  -3  -3   3  317.97   54.09
  -3  -3   3  223.28   65.89
   3   3  -3  232.88   51.99
   2  -3  -3  121.49   56.39
  -2  -3   3  135.19   86.49
   2  -3  -3  445.56   90.59
  -2  -3   3  186.78   58.49
  -2  -3   3  198.18   44.80
   2  -3  -3  257.97   54.49
   2  -3  -3  193.38   84.39
   2  -3  -3  217.88   74.19
   2   3  -3  265.57   56.59
  -2   3   3  162.18   40.40
   2   3  -3  152.98   46.70
  -1  -3   3  155.08   84.69
   1  -3  -3   98.59   28.80
  -1  -3   3  157.28   55.89
   1  -3  -3  187.18   70.39
   1  -3  -3  183.28   80.69
   1  -3  -3  -29.30   38.90
   1  -3  -3   45.50   49.40
   1   3  -3   91.19   47.00
   1   3  -3   63.39   44.80
  -1   3   3  107.99   35.00
   0  -3  -3  391.16   41.90
   0  -3   3  291.47   91.19
   0  -3   3  615.24  109.99
   0  -3  -3  571.74   88.89
   0  -3  -3  375.36   78.69
   0  -3  -3  297.47   51.19
   0  -3   3  329.97   59.09
   0   3  -3  379.06   67.69
   0   3  -3  351.96   86.39
   0   3   3  401.96   62.09
  -1  -3  -3  837.32  123.09
   1  -3   3  887.21  159.28
   1  -3   3  801.62   98.99
   1  -3   3  686.03   66.99
  -1  -3  -3  839.42   89.49
  -1  -3  -3  847.12   61.79
  -1  -3  -3  900.01   53.89
   1  -3   3  720.63   63.49
   1  -3   3  800.02   63.59
   1   3   3  777.42   68.89
  -1   3  -3  761.22   57.69
  -1   3  -3  769.42   92.09
  -2  -3  -3   71.99   74.79
   2  -3   3  124.79  101.09
  -2  -3  -3   85.79   24.10
  -2  -3  -3   76.49   53.99
   2  -3   3   94.49   31.60
   2  -3   3   59.79   51.69
   2   3   3   70.19   57.89
  -2   3  -3   46.00   63.19
   2   3   3   77.99   31.70
  -2   3  -3   54.79   34.10
  -2   3  -3   35.50   50.89
  -3  -3  -3  557.54   85.29
   3  -3   3  700.13  105.69
  -3  -3  -3  525.15   53.39
   3  -3   3  404.46   53.19
   3  -3   3  504.95   56.49
   3  -3   3  339.57  107.29
  -3  -3  -3  552.44  131.59
   3  -3   3  294.97   69.19
   3   3   3  434.26   98.49
  -3   3  -3  622.14   72.89
  -3   3  -3  607.64   89.99
   3   3   3  685.83   71.79
  -3   3  -3  616.34  112.59
   3   3   3  448.26   62.59
   4  -3   3  332.77   53.59
  -4  -3  -3  153.58   53.59
   4  -3   3  297.17   61.39
  -4  -3  -3  285.67   55.39
   4  -3   3  166.68  101.99
  -4  -3  -3  334.47   89.09
  -4   3  -3  220.28   75.39
  -4   3  -3  142.69   46.40
  -4   3  -3  292.37   56.29
   4   3   3  246.48   66.59
   4   3   3  266.67   53.99
   5  -3   3  385.46  122.39
   5  -3   3  513.45   99.39
   5  -3   3  692.83   76.79
  -5  -3  -3  453.05   94.09
  -5  -3  -3  540.85   71.09
  -5  -3  -3  572.94  104.99
   5  -3   3  591.54   61.99
  -5   3  -3  344.57   84.49
  -5   3  -3  420.16   92.79
   5   3   3  610.04   75.79
   5   3   3  576.64  106.89
  -5   3  -3  451.55   85.69
  -6  -3  -3   38.80   62.49
  -6  -3  -3   10.60   43.10
   6  -3   3   84.89   52.89
   6  -3   3   90.09  127.59
  -6  -3  -3   40.60   95.89
  -6   3  -3   -5.80   49.90
   6   3   3   27.10   62.19
  -6   3  -3   -0.10   75.79
   4  -4  -3  213.48   71.09
   4  -4  -3  352.76   90.99
   4  -4  -3  291.57  107.89
  -4  -4   3  208.08   77.29
   4   4  -3  469.05  109.09
  -3  -4   3  100.29   68.39
   3  -4  -3  118.99   97.59
  -3  -4   3   68.69   93.79
   3  -4  -3   77.19   75.49
   3  -4  -3   50.79   60.79
  -3  -4   3   69.39   53.49
   3   4  -3  144.09   59.79
   2  -4  -3  209.18   59.49
  -2  -4   3  150.68   95.89
  -2  -4   3  334.27   54.09
  -2  -4   3  104.09   69.09
   2  -4  -3   97.89   55.59
   2  -4  -3  153.98   55.39
   2  -4  -3  200.78   87.49
   2  -4  -3  297.97   78.79
   1  -4  -3   98.09   81.29
   1  -4  -3  139.89   61.49
  -1  -4   3  288.67  103.79
  -1  -4   3  176.18   49.50
  -1  -4   3  132.09   63.39
   1  -4  -3  113.79   72.09
   1   4  -3  141.89   51.39
  -1   4   3  179.28   42.10
   0  -4   3  274.07  108.39
   0  -4   3  320.67   74.69
   0  -4   3  179.18   63.39
   0  -4  -3  218.98   93.09
   0  -4  -3  216.18   75.99
   0  -4   3  186.78   47.80
   0  -4  -3  168.58   57.49
   0   4  -3  277.67   56.49
   0   4   3  344.17   67.89
   0   4  -3  278.87   55.09
   1  -4   3  309.67   71.69
  -1  -4  -3  224.68   62.29
   1  -4   3  579.64  115.49
   1  -4   3  166.98  102.99
  -1  -4  -3  309.17   80.29
  -1  -4  -3  198.08   79.29
   1  -4   3  190.68   45.80
   1   4   3  250.77   43.80
  -1   4  -3  314.57   63.39
   2  -4   3  -10.70   41.90
   2  -4   3   10.70  115.39
  -2  -4  -3  -35.50   53.19
  -2  -4  -3   60.69   76.29
  -2  -4  -3   59.49   75.99
   2  -4   3  -53.59   61.09
   2   4   3  -12.70   35.60
  -2   4  -3   47.30   48.90
   3  -4   3    3.50   63.39
   3  -4   3  141.49  144.99
  -3  -4  -3   50.99   58.89
   3  -4   3  212.68   64.89
  -3  -4  -3  132.69   79.89
   3  -4   3   94.29   39.50
  -3  -4  -3  240.08   92.39
  -3   4  -3   50.59   42.40
  -3   4  -3   63.19   51.89
   3   4   3  123.19   40.00
 -10   0   4  -24.50   62.89
 -10   0   4   53.79   65.79
  -9   0   4  262.07   70.99
  -9   0   4  222.68   61.09
  -8   0   4  639.14   97.39
  -8   0   4  763.92  102.29
  -7   0   4 4095.09  213.88
  -7   0   4 4320.27  218.38
  -6   0   4   82.19   55.49
  -6   0   4   66.39   51.39
  -5   0   4  804.42   89.99
   5   0  -4  899.41   85.49
  -5   0   4  825.12   90.89
   5   0  -4  861.11   88.69
   4   0  -4  888.01   85.59
  -4   0   4  929.01   98.39
  -4   0   4 1009.50   90.99
   4   0  -4  892.01   93.59
  -3   0   4  545.55   63.79
   3   0  -4  588.64   76.09
  -3   0   4  651.33   88.19
   3   0  -4  620.54   74.19
   2   0  -4  201.88   66.09
   2   0  -4  242.88   44.80
  -2   0   4  280.37   46.70
  -2   0   4   85.09   59.69
  -1   0   4  318.67   80.99
   1   0  -4  406.66   58.19
   1   0  -4  503.15   75.39
  -1   0   4  414.76   57.99
  -1   0   4  380.16   68.49
   0   0  -4  166.88   80.19
   0   0   4  -55.99   36.10
   0   0  -4    7.70   35.70
   0   0   4  124.09   78.39
   0   0  -4  -44.40   33.20
   0   0  -4   97.39   49.10
   1   0   4 1057.79  151.08
  -1   0  -4 1536.25  155.28
  -1   0  -4 1398.46   78.79
   1   0   4 1068.59   79.59
   1   0   4 1451.45   86.99
   1   0   4  953.40   92.39
  -1   0  -4  934.21   97.49
  -1   0  -4 1327.07   82.79
   2   0   4  124.89   47.80
   2   0   4  146.79   38.00
  -2   0  -4  180.58   40.30
  -2   0  -4  191.78   40.90
  -2   0  -4  304.97   96.39
  -2   0  -4  132.09   48.70
   2   0   4  234.78   38.60
   2   0   4  263.17   97.49
   3   0   4   54.99   44.30
   3   0   4  102.89   90.29
   3   0   4   55.89   38.00
  -3   0  -4   31.60   90.09
  -3   0  -4   29.00   48.40
   3   0   4   37.10   36.80
  -3   0  -4   25.70   41.70
  -4   0  -4 5481.55  265.87
  -4   0  -4 5492.55  304.77
   4   0   4 5941.41  266.37
  -4   0  -4 5723.73  272.77
   4   0   4 5760.52  270.27
   4   0   4 5347.46  307.07
   4   0   4 5677.73  272.17
   5   0   4 1203.88   92.79
  -5   0  -4 1075.29   90.79
   5   0   4 1286.17  166.08
  -5   0  -4 1232.48  102.49
   5   0   4 1193.98   87.09
  -5   0  -4 1220.28  170.88
  -6   0  -4  642.14   89.59
   6   0   4  673.13   83.29
  -6   0  -4  675.53   84.79
   6   0   4  741.73  153.68
  -6   0  -4  710.13  143.59
  -7   0  -4 1059.59   94.19
  -7   0  -4  990.60  104.39
   7   0   4  883.51   95.49
   7   0   4 1466.25  171.28
  -7   0  -4 1181.78  179.58
  -8   0  -4 1074.39  102.89
   8   0   4 1691.93  282.47
  -8   0  -4 1068.69  107.19
  -8   0  -4 1155.18  177.48
   8   0   4  998.20   99.69
   9   0   4  244.58  110.89
  -9   0  -4   20.80   65.89
  -9  -1   4   18.90   62.79
   9  -1  -4   78.69   46.60
  -9  -1   4   32.30   50.99
  -9   1   4   25.30   61.19
  -9   1   4   10.20   62.69
   8  -1  -4  122.69   86.09
   8  -1  -4  416.66   78.29
  -8  -1   4  222.98   64.99
  -8  -1   4  229.68   54.89
  -8   1   4  229.98   63.29
  -8   1   4  249.97   65.79
   7  -1  -4  299.37   81.39
  -7  -1   4  468.75   82.89
  -7  -1   4  418.66   83.79
   7  -1  -4  627.04   81.09
  -7   1   4  390.46   91.59
  -7   1   4  436.86   90.09
   6  -1  -4  736.83  116.09
   6  -1  -4  998.60   93.39
  -6  -1   4  907.11   88.09
  -6  -1   4  850.31  100.39
  -6   1   4  829.92   95.09
  -6   1   4  950.80  101.09
   6   1  -4  980.50   81.89
  -5  -1   4  789.72   84.29
   5  -1  -4  777.62   84.99
  -5  -1   4  804.62   86.09
   5  -1  -4  642.54  103.29
  -5  -1   4  679.73   66.89
  -5  -1   4  820.72   87.29
   5  -1  -4  802.82   85.69
   5  -1  -4 1057.09   89.29
   5   1  -4  876.21   75.79
  -5   1   4  798.82   91.19
   5   1  -4  855.21   81.69
  -5   1   4  753.12   90.49
   4  -1  -4 4633.34  229.88
  -4  -1   4 4282.37  239.68
  -4  -1   4 4747.33  232.58
  -4  -1   4 4510.85  221.38
   4  -1  -4 4790.52  229.38
   4  -1  -4 4905.11  233.08
   4  -1  -4 4775.52  230.18
   4   1  -4 4986.30  224.48
   4   1  -4 4812.12  227.38
  -4   1   4 4676.93  231.08
   3  -1  -4  378.86   60.19
  -3  -1   4  627.44  104.79
   3  -1  -4  567.84   77.69
  -3  -1   4  500.65   84.29
   3  -1  -4  561.24   77.69
   3   1  -4  547.25   68.09
  -3   1   4  586.44   77.89
  -3   1   4  673.93   81.79
   3   1  -4  527.55   68.99
   3   1  -4  634.14   86.69
   3   1  -4  561.44   71.49
  -2  -1   4  399.66   54.29
  -2  -1   4  477.55   67.69
   2  -1  -4  459.65   72.09
   2  -1  -4  436.26   72.19
  -2  -1   4  529.15  121.99
  -2   1   4  584.64   80.29
   2   1  -4  408.76   75.69
   2   1  -4  446.36   69.19
   2   1  -4  491.45   64.69
  -2   1   4  419.96   88.49
   1  -1  -4 1950.20  124.19
  -1  -1   4 1966.90  105.39
   1  -1  -4 1896.61  147.89
  -1  -1   4 2441.96  140.89
   1  -1  -4 2068.29  115.79
  -1  -1   4 1888.01  168.28
   1  -1  -4 2080.19  125.69
  -1  -1   4 1985.60  115.09
  -1   1   4 1822.12  141.89
  -1   1   4 1866.01  129.59
   1   1  -4 2264.37  115.99
   1   1  -4 1973.70  154.38
   1   1  -4 1952.90  138.39
   0  -1   4  725.53   95.99
   0  -1   4  814.82  156.58
   0  -1  -4  978.80   93.59
   0  -1  -4  623.64  130.49
   0  -1   4 1051.99   83.19
   0  -1   4  794.42   46.40
   0   1  -4  730.63   97.49
   0   1   4  692.73  109.39
   0   1  -4  525.95   78.09
   0   1   4  787.12   87.59
   0   1  -4  887.11  149.79
   0   1  -4  757.12   44.80
   0   1   4  923.71   82.39
  -1  -1  -4 5057.29  231.18
  -1  -1  -4 4596.24  271.87
   1  -1   4 4534.65  229.68
   1  -1   4 4809.52  235.88
  -1  -1  -4 4783.92  229.58
   1  -1   4 4637.74  282.97
   1   1   4 4668.03  253.67
   1   1   4 4823.72  229.38
  -1   1  -4 4369.56  265.47
  -1   1  -4 5040.90  234.38
   1   1   4 5020.10  231.28
  -1   1  -4 4585.14  228.28
   1   1   4 5004.60  215.78
   2  -1   4  422.86  111.29
   2  -1   4  478.55   81.99
  -2  -1  -4  432.86   97.89
  -2  -1  -4  444.86   73.89
   2  -1   4  415.66   74.19
  -2  -1  -4  455.45   81.29
  -2   1  -4  481.65   84.89
   2   1   4  475.05   73.39
  -2   1  -4  463.25   74.29
   2   1   4  344.67   77.69
   2   1   4  497.05   72.09
  -2   1  -4  436.26   42.00
  -2   1  -4  316.77   89.59
  -3  -1  -4  165.68   46.50
  -3  -1  -4  154.38  116.39
   3  -1   4  124.49   47.40
   3  -1   4  125.19  108.89
   3  -1   4  234.68   48.90
  -3  -1  -4  110.69   50.49
   3   1   4  189.18   44.50
  -3   1  -4  117.49   50.39
  -3   1  -4  174.78   34.80
   3   1   4  106.49   80.79
  -3   1  -4   39.60   84.59
  -3   1  -4  161.38   47.00
   3   1   4  244.08   45.20
  -4  -1  -4 1025.30   94.19
   4  -1   4  972.50   94.69
   4  -1   4  991.60   97.09
  -4  -1  -4 1029.00   92.09
  -4  -1  -4 1268.47  192.28
   4  -1   4 1528.05  176.18
  -4   1  -4 1030.70   78.29
   4   1   4 1136.59   96.59
   4   1   4  957.40   83.49
  -4   1  -4 1006.10   94.49
  -4   1  -4 1003.10  153.78
   4   1   4 1117.09  142.69
  -5  -1  -4   88.39   47.60
  -5  -1  -4   18.70   94.59
  -5  -1  -4   77.49   49.20
   5  -1   4   75.99   48.80
   5   1   4  139.29   80.49
  -5   1  -4   55.49   43.10
  -5   1  -4    6.20   95.49
  -5   1  -4   75.99   47.90
  -6  -1  -4  157.48   48.40
   6  -1   4  162.08   52.49
   6  -1   4  346.57  107.19
  -6  -1  -4  132.59   54.09
  -6  -1  -4   52.89  105.79
   6   1   4  139.29   81.09
  -6   1  -4  121.99   50.59
  -6   1  -4  270.57   97.39
  -6   1  -4  141.69   49.40
  -7  -1  -4  214.58   62.09
   7  -1   4  283.97  115.99
  -7  -1  -4  109.69  104.49
   7  -1   4  102.99   50.79
  -7  -1  -4   93.29   50.49
   7   1   4  137.19   78.49
  -7   1  -4  110.99   52.19
  -7   1  -4  131.29   52.59
   8  -1   4   31.20   50.79
  -8  -1  -4   65.39   52.79
   8  -1   4  -19.80  105.69
  -8  -1  -4   86.29   64.49
  -8  -1  -4  -67.59  108.99
  -8   1  -4   59.59   55.39
   8   1   4  118.99   87.09
  -8   1  -4   32.20   55.69
  -8   1  -4   68.69   92.39
   8   1   4    5.30   48.40
  -8  -2   4   57.19   44.10
   8  -2  -4   40.10   94.49
  -8  -2   4  239.98   75.59
   8  -2  -4   49.80   48.20
  -8  -2   4   37.70   61.79
  -8  -2   4   90.79   68.09
  -8   2   4  -13.40   55.89
  -8   2   4   26.60   52.29
   7  -2  -4  146.59   45.60
  -7  -2   4  403.66   79.09
  -7  -2   4  379.46   67.19
  -7  -2   4  450.45   94.09
   7  -2  -4  220.28   92.59
  -7   2   4  220.48   59.49
  -7   2   4  214.98   56.79
  -6  -2   4  243.38   53.99
  -6  -2   4  251.17   61.29
   6  -2  -4  182.88   49.50
  -6  -2   4  205.48   65.59
   6  -2  -4  212.48   77.09
  -6   2   4  118.89   50.39
   6   2  -4  270.17   61.89
  -6   2   4  164.28   53.29
  -5  -2   4   65.19   69.99
   5  -2  -4  230.08   71.99
   5  -2  -4  100.39   38.00
  -5  -2   4  134.39   52.39
  -5  -2   4  121.49   50.99
   5  -2  -4   33.20   52.49
  -5   2   4   78.69   43.60
  -5   2   4  110.29   53.09
   5   2  -4  108.39   36.10
   5   2  -4  161.38   56.59
   4  -2  -4  379.56   71.09
  -4  -2   4  458.55   79.99
   4  -2  -4  153.08   76.39
  -4  -2   4  426.66   58.29
  -4  -2   4  393.26   79.99
   4  -2  -4  261.67   41.70
   4   2  -4  400.66   59.19
   4   2  -4  390.76   53.29
   4   2  -4  414.66   67.49
   4   2  -4  616.94  118.39
   3  -2  -4  603.44   65.49
   3  -2  -4  510.45   86.49
  -3  -2   4  483.55   81.29
  -3  -2   4  576.14  122.49
   3  -2  -4  353.06   75.99
   3  -2  -4  551.54   72.29
   3  -2  -4  358.06   73.29
   3   2  -4  389.06   66.59
   3   2  -4  380.76   64.19
   3   2  -4  468.05  103.49
   3   2  -4  412.26   47.90
   2  -2  -4  452.65   89.69
   2  -2  -4  704.23   72.19
   2  -2  -4  574.84  110.19
  -2  -2   4  598.84   70.19
   2  -2  -4  712.33   68.59
   2  -2  -4  634.04   80.49
  -2  -2   4  598.14  138.39
  -2   2   4  591.14   95.59
   2   2  -4  654.53   64.39
   2   2  -4  590.24   61.09
   2   2  -4  591.74  109.39
   2   2  -4  553.44  105.99
  -1  -2   4  711.03   63.39
  -1  -2   4  852.11  112.79
   1  -2  -4  788.72   96.99
   1  -2  -4  701.73  123.49
  -1  -2   4  962.40  152.18
   1   2  -4  717.23   58.29
  -1   2   4  621.24   95.49
   1   2  -4  640.74   62.59
  -1   2   4  707.53  100.69
   1   2  -4  672.63  123.99
   1   2  -4  737.03   98.29
   0  -2   4  410.66  100.89
   0  -2   4  438.26  108.09
   0  -2  -4  423.96   87.89
   0  -2   4  399.86   46.80
   0  -2   4  326.17   63.19
   0   2  -4  412.36   53.79
   0   2  -4  462.35   83.89
   0   2   4  447.76   73.79
   0   2   4  453.35   62.09
   0   2   4  502.95   80.29
   0   2  -4  330.37   41.50
   0   2   4  410.46   41.50
   0   2  -4  400.56   88.69
   1  -2   4  358.46   33.00
  -1  -2  -4  295.47   77.39
   1  -2   4  376.96   34.00
   1  -2   4  464.15   82.99
  -1  -2  -4  452.05   65.89
   1  -2   4  351.46  107.09
  -1  -2  -4  375.46   60.89
   1  -2   4  363.46   47.20
  -1   2  -4  376.36   83.59
   1   2   4  431.76   71.69
   1   2   4  390.16   67.09
   1   2   4  393.96   62.09
  -1   2  -4  323.67   61.09
  -1   2  -4  264.47   82.19
   1   2   4  328.27   40.30
  -2  -2  -4 1203.78   80.39
  -2  -2  -4 1113.39   88.39
   2  -2   4 1183.48  168.08
   2  -2   4 1041.00  100.39
   2  -2   4  787.42   85.79
  -2  -2  -4 1115.19  144.09
   2   2   4 1170.78   77.69
   2   2   4 1013.40   94.09
   2   2   4  989.60  128.89
  -2   2  -4  969.10  149.49
  -2   2  -4 1096.09  103.79
  -2   2  -4 1092.49   86.39
   3  -2   4  357.86   41.70
  -3  -2  -4  330.67   67.49
   3  -2   4  266.37  111.69
   3  -2   4  138.39   48.40
  -3  -2  -4  238.68   55.59
   3  -2   4  273.07   35.90
  -3  -2  -4  473.05   95.89
   3  -2   4  291.97   52.39
  -3   2  -4  219.78   46.50
   3   2   4  360.86   75.09
   3   2   4  361.16   65.89
  -3   2  -4  219.88   49.10
  -3   2  -4  216.88   91.49
   4  -2   4 1320.87   82.99
  -4  -2  -4 1547.15  100.79
   4  -2   4 1294.17  115.79
  -4  -2  -4 1676.23  158.88
  -4  -2  -4 1639.84  113.49
   4  -2   4 1618.14  208.38
  -4   2  -4 1537.75  110.39
   4   2   4 1735.23   98.19
  -4   2  -4 1730.73  159.08
  -4   2  -4 1447.06   83.79
   4   2   4 1590.34  144.39
  -4   2  -4 1442.86  112.89
   5  -2   4  290.37  121.09
  -5  -2  -4  326.47   99.79
   5  -2   4  170.48   54.69
  -5  -2  -4  175.08   46.80
  -5  -2  -4  239.58   57.79
  -5   2  -4  218.48   89.59
  -5   2  -4  209.58   36.30
   5   2   4  291.87   77.79
  -5   2  -4  114.09   48.90
   6  -2   4   34.60   37.10
   6  -2   4   -3.60   44.30
  -6  -2  -4  -86.99  109.59
  -6  -2  -4   14.10   59.19
  -6  -2  -4  -24.90   44.40
   6  -2   4  259.07  117.39
  -6   2  -4   25.70   88.59
   6   2   4   73.89   74.49
  -6   2  -4  -66.79   49.20
  -6   2  -4   -1.10   36.50
   7  -2   4  342.77  118.69
  -7  -2  -4   22.20   59.39
   7  -2   4  112.59   46.60
  -7  -2  -4   64.99  132.79
  -7  -2  -4    3.10   46.90
   7  -2   4  -10.90   50.49
   7   2   4   19.80   75.49
  -7   2  -4   21.10   87.79
  -7   2  -4   29.70   42.30
  -7   2  -4   36.80   55.39
  -7  -3   4  235.88   60.49
  -7  -3   4  289.57   76.99
  -7  -3   4   95.49  107.89
   7  -3  -4   27.30   71.09
  -6  -3   4   49.30   56.49
  -6  -3   4   82.79   86.19
   6  -3  -4  -37.40   43.00
   6  -3  -4   21.40   80.59
  -6  -3   4   45.00   75.19
   6   3  -4  -62.19   64.09
  -5  -3   4   54.89   82.69
   5  -3  -4 -124.29   80.59
  -5  -3   4   16.20   49.99
  -5  -3   4   23.80   69.99
   5  -3  -4  -51.89   60.09
   5   3  -4   33.00   36.50
   5   3  -4 -122.69   59.29
  -4  -3   4   94.09   85.19
   4  -3  -4  127.79   64.19
  -4  -3   4   76.89   58.29
  -4  -3   4  149.19   50.09
   4  -3  -4   39.60   83.09
   4  -3  -4  102.79   60.79
   4  -3  -4   70.89   74.69
   4   3  -4  153.08   63.69
  -3  -3   4  200.88   88.79
   3  -3  -4   74.19   63.39
   3  -3  -4   60.29   58.49
   3  -3  -4  141.19   87.99
  -3  -3   4  180.38   61.19
   3  -3  -4   90.69   69.19
  -3  -3   4  142.89   47.60
   3  -3  -4  120.59   37.80
   3   3  -4   70.79   51.29
   2  -3  -4  376.66   80.79
  -2  -3   4  476.05   90.19
  -2  -3   4  709.23  146.79
   2  -3  -4  513.45  121.49
  -2  -3   4  484.95   67.79
   2  -3  -4  325.37   59.19
   2  -3  -4  462.65   60.29
   2  -3  -4  577.74  122.69
   2   3  -4  669.03   97.59
   2   3  -4  355.66   68.79
   1  -3  -4  534.25   73.69
  -1  -3   4  453.75   65.09
   1  -3  -4  527.25   57.19
   1  -3  -4  444.06   86.59
  -1  -3   4  635.24  105.79
  -1  -3   4  492.05  101.89
   1  -3  -4  559.24  117.49
   1   3  -4  559.44   86.49
   1   3  -4  419.86   52.89
  -1   3   4  466.05   62.19
   0  -3  -4 2063.39  130.89
   0  -3  -4 2153.38  109.49
   0  -3   4 2059.09  112.29
   0  -3   4 2085.69  192.98
   0  -3  -4 2297.47  112.39
   0  -3  -4 2044.90  159.18
   0  -3   4 1971.40  121.09
   0  -3   4 2105.29  148.49
   0   3  -4 2033.60  155.28
   0   3  -4 2190.28  104.39
   0   3   4 2163.18  112.39
   0   3  -4 2072.89  136.99
   0   3   4 2025.20  144.79
   1  -3   4  388.96  109.39
  -1  -3  -4  434.06   88.39
   1  -3   4  423.76   58.09
  -1  -3  -4  444.86   80.49
   1  -3   4  256.77   57.09
   1  -3   4  355.16   50.39
  -1  -3  -4  558.94   59.19
   1  -3   4  364.86   49.70
   1   3   4  322.07   50.89
  -1   3  -4  411.46   53.99
  -1   3  -4  374.66   86.19
  -1   3  -4  401.16   76.29
   1   3   4  297.97   62.39
   2  -3   4  389.06  117.49
   2  -3   4  349.57   45.80
  -2  -3  -4  417.16   85.19
   2  -3   4  528.05  105.49
  -2  -3  -4  542.95   58.49
   2  -3   4  439.46   48.50
   2  -3   4  681.93   66.59
  -2  -3  -4  359.46   63.49
   2   3   4  509.05   56.99
  -2   3  -4  473.85   67.09
   2   3   4  413.26   99.29
  -2   3  -4  629.14   91.29
  -2   3  -4  487.95   94.49
   2   3   4  593.74   69.59
  -3  -3  -4  539.45   60.79
   3  -3   4  239.68  102.69
   3  -3   4  565.14  110.39
  -3  -3  -4  449.66   88.19
   3  -3   4  720.63   73.39
  -3  -3  -4  564.34   97.49
  -3   3  -4  622.64   92.49
   3   3   4  495.15  105.39
   3   3   4  571.14   65.89
  -3   3  -4  436.86   75.09
  -3   3  -4  389.26   80.19
   3   3   4  454.75   52.09
   4  -3   4   44.00   29.60
   4  -3   4   24.50   49.90
  -4  -3  -4   96.79   55.59
  -4  -3  -4   55.39   91.79
   4  -3   4  -59.39  110.09
  -4  -3  -4   10.40   36.80
   4   3   4   55.29   44.50
  -4   3  -4   26.00   43.70
   4   3   4   95.79   67.79
  -4   3  -4   60.89   84.29
  -4   3  -4   32.00   42.60
  -5  -3  -4  171.28   44.20
   5  -3   4  233.28   35.20
   5  -3   4  213.48  123.59
   5  -3   4  345.97   62.69
  -5  -3  -4  277.77  100.39
   5  -3   4  236.98   62.79
  -5  -3  -4  207.38   65.29
   5   3   4  233.78   73.19
  -5   3  -4  152.98   52.59
  -5   3  -4  195.48   84.69
  -5   3  -4  148.79   50.79
   6  -3   4  135.79   48.60
   6  -3   4  198.48   57.69
   6  -3   4  134.49  142.39
  -6  -3  -4  115.29   63.49
  -6  -3  -4  254.17  107.99
  -6  -3  -4  216.08   50.99
  -6   3  -4  141.79   88.89
  -6   3  -4  110.49   54.49
   6   3   4  156.68   72.39
  -3  -4   4    9.10   63.59
  -3  -4   4   53.39   51.19
   3  -4  -4  110.49   95.19
  -3  -4   4   63.29   98.19
   3  -4  -4   40.70   81.69
   3  -4  -4   73.79   54.09
   3  -4  -4  -52.79   61.79
   3  -4  -4  -31.00   62.09
   3   4  -4   75.49   58.69
  -2  -4   4   51.29   46.20
   2  -4  -4    2.90   56.19
   2  -4  -4  -27.40   76.49
   2  -4  -4    7.10   82.29
  -2  -4   4   53.89   97.99
  -2  -4   4    9.90   66.29
   2   4  -4   86.79   53.79
  -1  -4   4  365.56  109.09
   1  -4  -4  205.48   62.49
  -1  -4   4  362.06   72.39
   1  -4  -4  249.08   81.59
  -1  -4   4  189.68   64.79
   1  -4  -4  185.08   91.19
  -1   4   4  254.77   45.40
   1   4  -4  305.37   60.49
   0  -4   4  101.69   43.10
   0  -4   4   73.59  110.29
   0  -4   4   45.70   61.99
   0  -4  -4  201.58   76.99
   0  -4  -4  163.88   80.59
   0  -4   4  264.07   77.49
   0  -4  -4  168.88   63.69
   0   4   4  275.67   61.99
   0   4  -4  182.68   53.99
  -1  -4  -4   44.00   55.39
  -1  -4  -4   63.29   76.29
   1  -4   4  140.49   72.59
   1  -4   4   75.49  114.39
   1  -4   4   45.30   63.89
  -1  -4  -4  130.99   75.79
   1  -4   4  111.69   40.00
  -1   4  -4  162.68   58.69
   1   4   4  119.49   35.00
   2  -4   4   27.40   63.39
  -2  -4  -4   60.69   58.99
   2  -4   4  104.19  126.99
  -2  -4  -4  103.19   83.99
   2  -4   4  129.89   68.69
   2  -4   4   21.40   36.30
   2   4   4   88.39   34.90
  -2   4  -4   27.90   37.50
  -2   4  -4   62.39   54.29
 -10   0   5  145.39   53.39
 -10   0   5  134.39   65.39
  -9   0   5   -7.80   54.39
  -9   0   5   30.90   59.49
  -8   0   5  253.87   67.89
  -8   0   5  239.78   55.49
  -7   0   5 4423.86  227.38
  -7   0   5 4487.95  227.38
  -6   0   5  -13.00   53.09
  -6   0   5   32.40   51.59
  -5   0   5   57.99   58.79
   5   0  -5   28.70   40.60
   5   0  -5   61.69   58.79
   4   0  -5  277.17   56.89
  -4   0   5  179.78   64.79
   4   0  -5  124.29   66.79
  -4   0   5  180.78   33.20
   4   0  -5  244.58   50.29
   4   0  -5  232.18   48.30
  -3   0   5 1523.55  102.89
   3   0  -5 1540.85  101.99
   3   0  -5 1624.94  119.39
   3   0  -5 1573.64   98.69
  -3   0   5 1309.97  113.19
   3   0  -5 1208.68  144.69
  -2   0   5  581.84   82.59
  -2   0   5  593.74   83.29
   2   0  -5  452.95   97.79
  -2   0   5  438.56   61.39
   2   0  -5  567.04   67.59
   2   0  -5  872.11  116.99
  -1   0   5  131.39   48.50
   1   0  -5  124.59   38.10
  -1   0   5  103.39   87.79
   1   0  -5  350.86   85.39
   1   0  -5  184.38   52.49
  -1   0   5  186.98   44.30
   0   0   5  299.07   50.39
   0   0  -5  298.47   46.10
   0   0   5  585.54   87.39
   0   0   5  350.76  112.09
   0   0  -5  345.07   57.09
   0   0  -5  248.98   42.10
   0   0  -5  742.83  153.68
  -1   0  -5 2573.34  128.79
   1   0   5 2615.64  130.69
   1   0   5 2222.08  210.98
   1   0   5 2375.06  129.59
  -1   0  -5 2567.64  129.89
  -1   0  -5 2399.26  140.39
   1   0   5 2269.67  138.19
  -1   0  -5 2505.85  201.98
   2   0   5    0.90   36.50
   2   0   5   -6.80   97.39
  -2   0  -5   84.09  100.69
   2   0   5   -6.50   43.90
  -2   0  -5  -32.10   44.90
  -2   0  -5   33.60   40.10
  -2   0  -5   -7.90   36.60
   2   0   5  -23.90   36.10
  -3   0  -5 3628.64  190.58
  -3   0  -5 3510.25  181.78
   3   0   5 3837.62  190.48
   3   0   5 3574.54  248.18
   3   0   5 3696.13  184.98
  -3   0  -5 3824.92  231.58
   3   0   5 3649.83  180.68
   4   0   5 2296.07  138.09
   4   0   5 2569.04  144.49
   4   0   5 2442.86  130.89
   4   0   5 2210.98  205.68
  -4   0  -5 2782.02  205.08
  -4   0  -5 2579.64  136.69
  -4   0  -5 2409.86  145.39
   5   0   5 2053.49  195.18
  -5   0  -5 2022.90  130.79
   5   0   5 2110.39  117.29
   5   0   5 1869.11  122.39
  -5   0  -5 2031.90  120.89
  -5   0  -5 2077.79  293.97
  -6   0  -5  772.92   94.49
   6   0   5 1026.20  166.98
   6   0   5  646.54   83.79
  -6   0  -5 1008.10  180.48
  -6   0  -5  699.73   86.09
   7   0   5   89.69  100.59
  -7   0  -5   30.00   54.49
  -7   0  -5    8.30   53.89
   7   0   5   -9.10   42.50
  -7   0  -5   47.00  113.29
  -8   0  -5  -57.99  110.99
   8   0   5   66.29   51.39
  -8   0  -5  100.79   58.29
   8   0   5  118.19   97.29
  -8   0  -5   42.60   55.09
  -9  -1   5    6.60   47.70
  -9  -1   5   62.59   65.79
  -9   1   5   24.60   55.49
  -9   1   5   62.99   63.69
   8  -1  -5  242.88   83.39
  -8  -1   5  328.47   64.09
  -8  -1   5  438.86   83.89
  -8   1   5  442.36   93.19
  -8   1   5  234.78   58.89
   7  -1  -5 1011.30   81.49
  -7  -1   5  817.72   87.49
  -7  -1   5  901.51  103.19
   7  -1  -5  802.62  112.29
  -7   1   5  864.91  100.59
  -7   1   5  880.71   98.59
  -6  -1   5  333.17   63.69
   6  -1  -5  250.17   62.49
  -6   1   5  247.88   58.79
   6   1  -5  287.27   54.19
  -6   1   5  189.48   52.19
   5  -1  -5 1904.01  107.19
  -5  -1   5 1523.65   91.09
  -5  -1   5 1633.94  108.89
   5  -1  -5 1532.65  116.69
   5  -1  -5 1578.04  119.79
  -5  -1   5 1667.23  113.09
   5   1  -5 1594.24  107.99
  -5   1   5 1555.14  117.09
   5   1  -5 1509.15  101.29
  -4  -1   5   43.60   69.59
  -4  -1   5   17.40   52.79
   4  -1  -5   50.69   52.39
   4  -1  -5  -17.30   47.40
   4  -1  -5  -59.99   63.89
   4   1  -5   22.30   37.50
   4   1  -5   49.40   47.20
  -4   1   5  -16.80   53.89
   4   1  -5    3.50   40.50
   4   1  -5  -44.80   65.89
  -4   1   5  -19.90   42.40
   3  -1  -5 3099.49  162.78
  -3  -1   5 3084.89  196.68
  -3  -1   5 3048.40  163.28
   3  -1  -5 3004.80  191.48
   3  -1  -5 3063.29  163.48
   3   1  -5 3160.98  158.38
  -3   1   5 2996.50  170.98
  -3   1   5 3378.26  169.28
   3   1  -5 3378.06  180.08
   3   1  -5 3175.58  156.38
   3   1  -5 2974.30  172.98
  -2  -1   5 1304.97   87.99
  -2  -1   5 1466.05  159.08
   2  -1  -5 1258.87  125.29
  -2  -1   5 1220.68  104.29
   2  -1  -5 1242.38   93.19
   2  -1  -5 1190.68  117.99
   2   1  -5 1453.45   89.39
   2   1  -5 1405.86  120.09
   2   1  -5 1533.55  133.89
  -2   1   5 1423.46  119.39
   2   1  -5 1235.08   99.19
  -1  -1   5  727.83  169.98
   1  -1  -5  615.24   89.99
  -1  -1   5  603.94   77.19
  -1  -1   5  521.35   58.79
   1  -1  -5  643.84   81.59
   1  -1  -5  596.74   78.29
   1  -1  -5  675.83   90.79
   1   1  -5  416.36   99.89
   1   1  -5  540.85   53.99
   1   1  -5  516.65   95.29
  -1   1   5  473.45   99.99
  -1   1   5  451.45  101.89
   0  -1   5  861.21   51.49
   0  -1   5 1021.60  185.38
   0  -1  -5  820.02  158.28
   0  -1   5  854.21   87.09
   0  -1  -5 1090.99   90.89
   0  -1   5  750.72  105.69
   0  -1  -5  882.91   96.19
   0   1  -5  665.23   90.59
   0   1  -5 1070.69  151.28
   0   1  -5  849.22  103.39
   0   1   5  833.22   93.79
   0   1   5  966.90  131.49
   0   1   5  940.41   82.49
   0   1  -5  867.51   50.59
  -1  -1  -5 1474.65  103.89
   1  -1   5 1400.46  112.29
  -1  -1  -5  943.01  177.58
   1  -1   5 1203.68   95.99
   1  -1   5 1501.95  198.28
  -1  -1  -5 1217.88  106.99
  -1   1  -5 1302.27  172.18
   1   1   5 1306.67  104.19
  -1   1  -5 1264.87   99.59
   1   1   5 1357.06  137.79
  -1   1  -5 1362.86  103.39
   1   1   5 1256.97   67.29
   1   1   5 1294.87   97.79
   2  -1   5  356.56   81.19
  -2  -1  -5  311.77   51.89
   2  -1   5  385.36  118.49
  -2  -1  -5  329.47   62.19
  -2  -1  -5  320.27  104.29
   2  -1   5  398.46   79.49
  -2   1  -5  378.56   37.60
  -2   1  -5  342.47   77.69
  -2   1  -5  418.76  106.09
  -2   1  -5  345.07   54.19
   2   1   5  313.77   51.09
   2   1   5  413.16   70.29
   2   1   5  532.85   96.39
   2   1   5  320.47   47.40
  -3  -1  -5  576.14   84.19
   3  -1   5  596.84   81.99
   3  -1   5  574.44  112.89
  -3  -1  -5  538.55  113.89
  -3  -1  -5  443.46   78.39
   3   1   5  628.04   78.39
  -3   1  -5  707.03  157.08
   3   1   5  506.25   58.49
  -3   1  -5  492.45   81.39
  -3   1  -5  498.85   53.29
   3   1   5  437.46   74.89
  -3   1  -5  493.45   85.89
   3   1   5  533.75   97.29
   4  -1   5  181.48   50.59
   4  -1   5  279.77  107.09
  -4  -1  -5  158.48   48.40
  -4  -1  -5  216.48   54.29
  -4  -1  -5  277.97  132.59
   4   1   5  251.07   91.39
  -4   1  -5  194.58   41.50
  -4   1  -5  149.29   48.60
   4   1   5  177.08   37.40
  -4   1  -5  133.99   47.50
  -4   1  -5  173.48   93.19
   4   1   5  375.56   81.69
   5  -1   5  299.67  108.49
  -5  -1  -5  158.78   55.59
  -5  -1  -5  204.78   98.09
  -5  -1  -5   97.19   47.50
   5  -1   5   49.40   43.70
  -5   1  -5   71.79   51.39
   5   1   5   63.89   38.80
  -5   1  -5   47.20   91.29
  -5   1  -5  105.19   43.30
   5   1   5   92.79   86.39
   6  -1   5   86.19   44.20
  -6  -1  -5   66.59   53.49
  -6  -1  -5   16.00  110.09
   6  -1   5  183.28   46.10
  -6  -1  -5   32.70   47.70
   6  -1   5  186.08  110.99
   6   1   5  104.59   87.29
   6   1   5   17.30   42.30
  -6   1  -5   41.90   47.30
  -6   1  -5   58.29   51.99
   7  -1   5  217.08  112.59
  -7  -1  -5   62.89   51.09
   7  -1   5   49.80   45.50
  -7  -1  -5  105.49   58.99
   7   1   5   12.30   43.90
  -7   1  -5   28.50   56.99
  -7   1  -5   97.39   52.79
  -7   1  -5  -33.10   99.19
   7   1   5   83.69   85.99
  -8  -1  -5  139.49   57.69
   8  -1   5  139.69  107.59
   8  -1   5  110.29   56.39
  -8  -1  -5  155.38   60.59
  -8  -1  -5   61.59  118.99
  -8   1  -5   77.19   55.39
   8   1   5  129.29   48.60
   8   1   5  221.48   88.09
  -8   1  -5  211.88  104.99
  -8   1  -5  105.59   56.89
  -8  -2   5  197.28   61.69
  -8  -2   5    7.10   61.69
   8  -2  -5  156.08   98.39
  -8  -2   5   52.79   66.79
  -8   2   5  -12.40   59.09
  -7  -2   5  454.75   80.59
   7  -2  -5  293.37   84.19
  -7  -2   5  263.27   68.29
  -7  -2   5  328.77   68.79
   7  -2  -5  149.39   49.99
  -7   2   5  163.68   51.09
  -7   2   5  123.79   53.99
   6  -2  -5  300.07   94.29
  -6  -2   5  310.17   62.49
  -6  -2   5  340.07   79.29
  -6  -2   5  334.67   80.39
  -6   2   5  201.38   59.49
   6   2  -5  239.78   44.30
   6   2  -5  341.67   68.19
  -5  -2   5  910.91   91.69
   5  -2  -5  724.43   84.09
  -5  -2   5  873.01  135.49
  -5  -2   5 1080.29   94.99
   5   2  -5 1159.48  110.19
   5   2  -5 1026.70   75.29
  -5   2   5 1028.20   95.69
  -4  -2   5   27.00   48.30
  -4  -2   5   13.20   82.89
   4  -2  -5   63.79   39.50
  -4  -2   5   33.20   49.90
   4  -2  -5  -26.80   32.60
   4   2  -5   12.60   30.50
   4   2  -5   20.60   50.59
   4   2  -5   57.19   75.49
   4   2  -5   18.40   40.70
   3  -2  -5  500.55   77.29
   3  -2  -5  735.63  123.69
   3  -2  -5  771.92   72.79
   3  -2  -5  796.02   94.99
  -3  -2   5  712.53  149.79
   3  -2  -5  662.23   76.29
  -3  -2   5  669.53   85.99
   3   2  -5  617.24   97.69
  -3   2   5  868.01   98.19
   3   2  -5  680.53  106.49
   3   2  -5  535.25   74.99
   3   2  -5  605.74   59.29
   3   2  -5  671.53   69.79
   2  -2  -5  422.36   61.19
  -2  -2   5  650.83   72.29
   2  -2  -5  516.25   69.89
   2  -2  -5  579.94   81.49
   2  -2  -5  699.63   64.29
   2  -2  -5  545.35  111.69
   2  -2  -5  515.55   65.99
  -2  -2   5  639.64  106.19
  -2  -2   5  513.65   64.49
  -2   2   5  468.05   98.19
   2   2  -5  650.03   69.19
   2   2  -5  591.04  104.39
   2   2  -5  579.04   61.69
   2   2  -5  659.23   84.09
   1  -2  -5  694.33   99.39
  -1  -2   5  803.02   73.79
  -1  -2   5 1039.60  132.29
  -1  -2   5  778.32  165.98
   1  -2  -5  785.02   56.09
  -1  -2   5  809.42   61.69
   1  -2  -5  646.84  120.49
   1   2  -5  816.52  124.99
  -1   2   5  748.53  111.09
   1   2  -5  748.33   57.79
  -1   2   5  566.84  101.59
   1   2  -5  743.93   70.49
  -1   2   5  742.53   87.59
   1   2  -5  735.83  102.29
   0  -2   5  535.05   43.10
   0  -2   5  500.25   70.29
   0  -2   5  463.85  108.69
   0  -2  -5  611.54   94.69
   0  -2   5  441.26   97.09
   0  -2  -5  660.13   95.19
   0   2   5  599.34   91.49
   0   2  -5  551.14   93.39
   0   2  -5  548.35   49.90
   0   2  -5  549.05   61.09
   0   2   5  628.34  105.59
   0   2   5  503.05   88.49
   0   2  -5  638.34   93.69
  -1  -2  -5 1272.47   97.39
   1  -2   5 1410.96  183.88
   1  -2   5 1106.09  111.99
   1  -2   5 1432.66   99.59
  -1  -2  -5 1337.07  145.89
  -1  -2  -5 1331.27   95.69
   1   2   5 1340.47   98.49
  -1   2  -5 1301.17  155.78
   1   2   5 1667.13  148.29
   1   2   5 1356.06  133.99
  -1   2  -5 1241.68   91.19
  -1   2  -5 1298.67  107.19
  -2  -2  -5 1318.47   95.49
  -2  -2  -5 1303.57   97.19
  -2  -2  -5 1411.36  162.78
   2  -2   5  921.91  183.88
   2  -2   5 1306.37  122.69
   2  -2   5 1253.97   92.19
   2   2   5 1099.69  102.09
   2   2   5 1329.37  140.69
  -2   2  -5  878.71  118.19
  -2   2  -5 1546.95  160.78
   2   2   5 1237.78   76.99
  -2   2  -5 1377.96   92.19
  -3  -2  -5 2131.89  132.79
  -3  -2  -5 2051.99  185.68
   3  -2   5 2149.08  137.49
  -3  -2  -5 1981.60  138.29
   3  -2   5 2329.27  128.79
   3  -2   5 2020.90  226.48
   3   2   5 1999.30  176.38
  -3   2  -5 2312.57  136.49
  -3   2  -5 1835.42  210.38
  -3   2  -5 2102.49  127.69
   3   2   5 2194.88  126.29
  -4  -2  -5  375.06   74.49
   4  -2   5  233.38   36.60
   4  -2   5  374.56  120.49
   4  -2   5  261.17   52.99
  -4  -2  -5  394.96   63.59
  -4   2  -5  217.18   49.10
   4   2   5  387.26   78.39
  -4   2  -5  280.47   40.90
  -4   2  -5  389.46   96.89
  -4   2  -5  276.17   51.29
  -5  -2  -5  230.88   58.89
  -5  -2  -5  502.55  119.49
  -5  -2  -5  310.37   51.09
   5  -2   5  187.28   51.19
   5  -2   5  446.16  125.69
   5  -2   5  371.86   59.69
   5   2   5  331.17   78.99
  -5   2  -5  364.76   82.49
  -5   2  -5  368.66   90.89
  -5   2  -5  256.27   49.20
  -5   2  -5  232.08   90.79
  -6  -2  -5  299.97  124.39
  -6  -2  -5  401.66   80.49
  -6  -2  -5  327.37   62.69
   6  -2   5  435.86   91.79
   6  -2   5  616.64   75.59
   6  -2   5  325.87  122.09
  -6   2  -5  383.06   87.79
  -6   2  -5  254.27   95.69
  -6   2  -5  349.77   59.09
   6   2   5  393.86   82.89
   7  -2   5   25.10   49.90
  -7  -2  -5    7.90   50.99
  -7  -2  -5  -66.99  116.59
  -7  -2  -5   35.60   64.19
   7  -2   5   89.49  128.09
   7   2   5   67.49   82.69
  -7   2  -5   95.69   97.09
  -7   2  -5   44.60   54.09
  -7   2  -5   20.10   40.70
   7  -3  -5  -24.30   47.20
   7  -3  -5 -103.39   86.79
   7  -3  -5 -175.28   72.19
  -7  -3   5   54.59   56.79
  -7  -3   5   77.89   64.49
  -6  -3   5   36.80   89.29
   6  -3  -5  -64.79   79.69
   6  -3  -5 -134.09   58.69
  -6  -3   5   44.40   67.29
  -6  -3   5   47.40   56.89
   6   3  -5  114.39   50.09
   6   3  -5  -33.10   66.69
  -5  -3   5   84.99   87.59
  -5  -3   5  101.59   58.79
  -5  -3   5  112.09   55.09
   5  -3  -5 -146.59   64.49
   5  -3  -5 -101.29   73.59
   5  -3  -5   84.19   58.99
   5  -3  -5  -17.20   78.89
   5   3  -5   13.50   38.80
   5   3  -5   79.09   27.50
   5   3  -5   12.10   58.99
  -4  -3   5   82.39   87.89
   4  -3  -5  -73.09   62.79
   4  -3  -5   -3.40   87.69
   4  -3  -5   -1.00   57.59
   4  -3  -5  119.09   43.90
  -4  -3   5   39.90   50.59
   4  -3  -5   40.20   68.89
  -4  -3   5   -8.40   56.29
   4   3  -5   17.40   59.99
   4   3  -5   77.99   24.10
   3  -3  -5    4.20   60.39
  -3  -3   5   42.50   54.79
   3  -3  -5   42.10   59.49
  -3  -3   5   90.99   46.00
   3  -3  -5  134.39   39.30
   3  -3  -5   26.10   74.29
  -3  -3   5   75.59   88.79
   3  -3  -5   68.59   37.70
   3  -3  -5   91.19   71.09
   3   3  -5   65.49   53.29
  -2  -3   5  645.74  108.09
  -2  -3   5  541.65   70.69
   2  -3  -5  570.14  130.19
   2  -3  -5  498.85   64.19
   2  -3  -5  469.05   68.39
   2   3  -5  414.86   51.99
   2   3  -5  573.84  104.19
   1  -3  -5  219.08   66.09
   1  -3  -5  314.17   61.69
   1  -3  -5  298.77   47.80
  -1  -3   5  443.36  108.79
   1  -3  -5  314.37   61.19
  -1  -3   5  272.67   67.79
  -1  -3   5  385.16   60.49
   1   3  -5  250.67   75.19
   1   3  -5  343.67   36.60
   1   3  -5  274.87   45.30
  -1   3   5  264.97   63.99
   1   3  -5  342.07   84.59
   0  -3   5 2283.07  117.19
   0  -3   5 2272.67  157.98
   0  -3  -5 2385.86  168.48
   0  -3  -5 2551.74  124.59
   0  -3   5 2068.49  120.39
   0  -3   5 2079.19  206.78
   0  -3  -5 2272.47  139.39
   0   3  -5 2415.36  117.59
   0   3  -5 2315.07  145.19
   0   3  -5 2263.87  118.39
   0   3  -5 2171.58  160.08
   0   3   5 2419.86  152.28
  -1  -3  -5  656.43   97.09
  -1  -3  -5  617.14  135.19
   1  -3   5  872.21  166.48
   1  -3   5  457.95   79.79
   1  -3   5  705.73   48.00
   1  -3   5  615.54  108.99
  -1   3  -5  792.82  133.89
   1   3   5  766.32  108.29
   1   3   5  612.64   49.90
  -1   3  -5  649.74   64.19
  -1   3  -5  620.94   95.79
  -2  -3  -5  460.05   62.49
   2  -3   5  344.27  110.39
   2  -3   5  240.28   59.29
  -2  -3  -5  206.98   80.39
  -2  -3  -5  194.68   58.89
   2   3   5  333.57   63.89
   2   3   5  320.17   70.99
   2   3   5  336.87   42.90
  -2   3  -5  208.08   45.20
  -2   3  -5  271.47   81.09
  -2   3  -5  245.68   54.49
  -3  -3  -5   53.09   56.29
   3  -3   5   73.29   60.19
  -3  -3  -5   42.60   37.30
  -3  -3  -5   90.49   90.09
   3  -3   5    0.50  109.99
   3   3   5  -56.39   43.10
  -3   3  -5  -16.10   41.80
  -3   3  -5   10.60   47.50
   3   3   5   10.30   67.69
  -3   3  -5  -12.60   72.89
   3   3   5   72.29   29.90
   4  -3   5   -6.10  111.69
  -4  -3  -5  136.29   43.00
  -4  -3  -5  115.49   60.89
   4  -3   5  151.38   52.49
  -4  -3  -5  288.17   99.59
   4   3   5  104.09   73.09
   4   3   5  193.18   43.40
  -4   3  -5  186.08   84.09
  -4   3  -5  110.39   50.99
  -4   3  -5   92.09   47.80
  -5  -3  -5  394.76   77.99
   5  -3   5  331.17   48.00
  -5  -3  -5  247.38   64.59
   5  -3   5  241.18  137.89
  -5  -3  -5  453.85  105.29
   5  -3   5  461.05  101.69
  -5   3  -5  303.37   62.79
  -5   3  -5  230.38   57.19
  -5   3  -5  230.78   89.39
   5   3   5  280.27   78.89
   5   3   5  146.19   57.99
   3  -4  -5  -44.50   60.79
   3  -4  -5  -43.90   65.49
  -3  -4   5   36.80   49.70
  -3  -4   5   -3.00  104.59
   3  -4  -5   36.20   77.39
  -3  -4   5  157.58   70.99
   3  -4  -5   38.50   92.69
   3   4  -5  139.39   59.99
   2  -4  -5   21.80   90.19
   2  -4  -5   12.20   58.59
   2  -4  -5   -8.30   73.79
  -2  -4   5    9.70   62.49
  -2  -4   5  -17.80   47.70
  -2  -4   5   47.90  109.29
   2   4  -5   50.69   54.19
  -1  -4   5  109.09   63.39
   1  -4  -5  124.59   77.69
  -1  -4   5  247.28   50.29
   1  -4  -5  124.89   60.89
  -1  -4   5  186.98  116.89
  -1  -4   5  228.88   76.49
   1  -4  -5  227.18   78.69
   1   4  -5  164.58   51.19
   0  -4   5   24.10   61.79
   0  -4   5  157.48   77.29
   0  -4  -5  177.08   84.19
   0  -4   5  237.98   43.20
   0  -4  -5  232.78   83.79
   0  -4   5  158.38  116.69
   0  -4  -5  105.19   62.59
   0   4  -5  210.38   59.99
   1  -4   5  144.79   36.30
   1  -4   5  129.59   68.19
  -1  -4  -5   76.19   61.49
   1  -4   5  204.48  129.19
  -1  -4  -5  216.38   90.49
   1   4   5  196.68   34.10
  -1   4  -5   87.09   32.30
  -1   4  -5  182.88   61.19
   2  -4   5  322.07   52.29
  -2  -4  -5  198.08   62.39
   2  -4   5  520.85  126.29
  -2  -4  -5  261.57   94.69
   2   4   5  295.77   53.29
  -2   4  -5  316.87   66.59
  -2   4  -5  204.68   43.40
 -10   0   6  -13.60   70.19
 -10   0   6  -10.70   58.29
  -9   0   6  225.48   61.19
  -9   0   6  232.68   68.69
  -8   0   6  199.68   67.09
  -8   0   6   79.29   49.80
  -7   0   6 4787.82  240.18
  -7   0   6 4757.52  240.68
  -6   0   6   40.60   54.99
  -5   0   6   -2.30   54.89
   5   0  -6  -92.19   68.99
   5   0  -6   -7.10   47.30
   5   0  -6   48.60   51.49
  -4   0   6   34.00   56.79
   4   0  -6   13.40   42.90
   4   0  -6   45.70   49.70
   4   0  -6  -45.40   75.59
  -4   0   6    4.30   44.40
   4   0  -6   88.79   58.69
   3   0  -6  319.07   77.19
   3   0  -6  351.76   71.59
  -3   0   6  395.96   80.99
  -3   0   6  208.58   63.49
  -3   0   6  175.58   57.49
   3   0  -6  242.18   74.79
   2   0  -6  234.78   64.99
   2   0  -6  302.57   82.99
   2   0  -6  219.08   51.49
  -2   0   6  197.28   57.29
  -2   0   6  226.58   52.49
  -2   0   6   83.79   88.29
  -1   0   6  430.26  103.99
   1   0  -6  510.95   68.79
   1   0  -6  661.63   84.79
   1   0  -6  910.81  153.38
  -1   0   6  515.55   69.29
  -1   0   6  444.76   95.59
   1   0  -6  719.53   97.49
   0   0  -6 1052.19   83.39
   0   0  -6 1271.07  163.98
   0   0   6  823.82  190.68
   0   0   6 1002.00   97.59
   0   0  -6  796.82   86.09
   0   0   6 1048.50  106.49
   0   0  -6  849.61  104.59
   1   0   6 5795.92  344.07
  -1   0  -6 6486.35  303.27
  -1   0  -6 6153.88  342.47
   1   0   6 6419.06  297.77
  -1   0  -6 6582.34  293.47
  -1   0  -6 6336.37  294.57
   1   0   6 6466.45  301.77
   1   0   6 6228.78  293.17
   2   0   6 1395.06  101.19
   2   0   6 1340.97   95.59
   2   0   6 1079.79  187.28
  -2   0  -6 1374.86   92.99
   2   0   6 1376.46   94.89
  -2   0  -6 1260.37  179.58
  -2   0  -6 1563.14   96.99
   3   0   6 1328.07   93.99
   3   0   6 1371.66  101.89
  -3   0  -6 1382.56  167.48
   3   0   6 1202.58  193.28
  -3   0  -6 1322.77  104.19
  -3   0  -6 1364.36   90.29
   3   0   6 1090.89   86.39
  -4   0  -6  214.58  103.99
  -4   0  -6  204.38   58.19
   4   0   6  318.67   50.19
   4   0   6  167.38   42.80
  -4   0  -6  198.78   53.19
   4   0   6  211.98  104.69
   5   0   6  202.58   48.10
  -5   0  -6  321.97  110.89
   5   0   6  381.46   72.39
  -5   0  -6  214.78   52.49
  -5   0  -6  321.67   51.19
   5   0   6  421.86  105.29
   6   0   6  679.23   85.79
  -6   0  -6  716.13   97.49
   6   0   6  528.05  113.99
  -6   0  -6  652.83   85.59
  -6   0  -6  652.93  130.39
  -7   0  -6  728.53  100.19
   7   0   6  911.21  175.98
   7   0   6  685.83   90.39
  -7   0  -6  475.15  130.79
  -7   0  -6  616.04   96.79
  -8   0  -6  257.27   64.19
   8   0   6  213.48   52.39
   8   0   6  358.86  107.79
  -8   0  -6  108.69  124.69
  -8   0  -6  278.97   62.39
  -9  -1   6   73.99   63.49
  -9   1   6   91.19   62.79
  -9   1   6   23.80   49.99
   8  -1  -6  329.77   82.99
  -8  -1   6  470.05   83.29
  -8   1   6  469.35   91.29
  -8   1   6  335.77   67.99
   7  -1  -6  507.75  101.99
  -7  -1   6  618.64   91.79
  -7   1   6  651.83   93.69
   6  -1  -6   -5.20   56.29
  -6  -1   6   72.39   55.09
  -6   1   6   40.60   54.59
   6   1  -6  -71.49   62.39
  -5  -1   6   61.99   54.69
   5  -1  -6  -63.19   68.19
  -5  -1   6   46.50   50.29
   5   1  -6   71.39   40.80
   5   1  -6    4.60   74.69
  -5   1   6  126.89   55.29
   4  -1  -6  293.57   54.29
  -4  -1   6  383.46   56.69
   4  -1  -6  271.77   49.70
  -4  -1   6  321.87   74.89
   4  -1  -6  242.88   83.29
   4   1  -6  341.07   71.39
   4   1  -6  330.47   58.49
  -4   1   6  391.96   63.99
  -4   1   6  255.57   52.59
   4   1  -6  385.26   69.09
   4   1  -6  416.96   56.49
   3  -1  -6 1757.02  209.88
   3  -1  -6 1828.92  115.49
  -3  -1   6 1943.01  115.19
   3  -1  -6 1844.72  112.79
  -3  -1   6 1729.33  160.08
   3   1  -6 1782.02  141.29
  -3   1   6 1811.72  124.99
   3   1  -6 1921.41  109.89
   3   1  -6 1755.22  122.49
  -3   1   6 1836.12  127.79
   2  -1  -6 1873.91  129.89
  -2  -1   6 1873.41  129.39
   2  -1  -6 1951.90  171.68
  -2  -1   6 1985.50  111.39
  -2  -1   6 1891.51  171.08
   2  -1  -6 1850.51  119.49
   2   1  -6 2058.69  163.98
   2   1  -6 1957.50  107.29
  -2   1   6 1921.61  135.89
   2   1  -6 2129.09  126.79
  -2   1   6 1823.82  137.29
   2   1  -6 1804.42  136.79
  -1  -1   6   20.20   97.59
  -1  -1   6   15.40   33.00
   1  -1  -6   28.90   88.29
   1  -1  -6   67.29   46.10
  -1  -1   6   37.40   43.60
   1  -1  -6  -37.40   55.69
  -1  -1   6  151.48   64.99
   1  -1  -6   45.30   49.50
  -1   1   6   27.20   70.09
   1   1  -6   46.30   33.70
   1   1  -6   -7.10   86.99
   1   1  -6  104.09   52.09
  -1   1   6  -38.70   54.79
   1   1  -6  -30.00   46.10
   0  -1   6  974.10   99.09
   0  -1  -6 1005.50  168.08
   0  -1   6 1136.29  193.88
   0  -1  -6 1123.99   58.49
   0  -1  -6 1205.98  100.69
   0  -1  -6 1148.09  104.69
   0  -1   6 1076.89  115.59
   0   1  -6 1058.79  104.59
   0   1   6 1148.09   97.19
   0   1   6 1130.19  136.69
   0   1  -6 1127.79  102.69
   0   1  -6 1386.66  172.28
   0   1  -6 1185.38   65.29
   0   1  -6 1245.88   65.69
   0   1   6 1234.88  106.79
   1  -1   6  310.77  109.59
   1  -1   6  224.18   57.79
   1  -1   6  263.57   45.00
  -1  -1  -6  212.38   57.29
  -1  -1  -6  317.27  111.99
  -1  -1  -6  378.86   73.69
   1   1   6  262.37   53.59
   1   1   6  245.08   57.79
  -1   1  -6  236.58   30.60
   1   1   6  207.78   42.20
  -1   1  -6  266.77   32.30
  -1   1  -6  207.18   48.50
  -1   1  -6  298.97  106.09
  -1   1  -6  230.08   52.99
   1   1   6  428.26   95.49
  -2  -1  -6  117.99   59.49
  -2  -1  -6  139.79   54.09
   2  -1   6  142.39   48.80
   2  -1   6  202.78   40.70
   2  -1   6  195.98   48.40
   2  -1   6  209.48  107.49
  -2  -1  -6  225.08  116.79
   2   1   6  128.59   27.70
   2   1   6  134.89   47.40
   2   1   6  186.78   49.80
  -2   1  -6  152.18   50.79
  -2   1  -6  106.59  108.19
  -2   1  -6  166.48   47.20
  -2   1  -6  169.98   25.40
   2   1   6  140.89   87.79
   3  -1   6  356.16  109.39
  -3  -1  -6  546.35  160.58
  -3  -1  -6  383.96   59.99
   3  -1   6  451.25   82.79
   3  -1   6  419.86   46.90
   3  -1   6  313.27   53.79
  -3  -1  -6  271.77   50.29
   3   1   6  295.47   95.39
  -3   1  -6  272.27  103.29
  -3   1  -6  353.96   82.19
  -3   1  -6  365.76   85.59
   3   1   6  226.58   55.99
   3   1   6  262.17   49.10
  -3   1  -6  389.76   51.99
   3   1   6  441.56   76.09
  -4  -1  -6 2283.17  136.39
  -4  -1  -6 2106.49  216.98
   4  -1   6 2236.38  211.78
   4  -1   6 2415.96  121.89
   4  -1   6 2320.87  138.39
  -4  -1  -6 2468.25  140.19
  -4   1  -6 2303.37  140.99
  -4   1  -6 2507.45  203.18
  -4   1  -6 2260.17  139.09
  -4   1  -6 2177.48  120.49
   4   1   6 2169.78  185.48
   4   1   6 2335.67  126.09
   5  -1   6  126.29  112.79
   5  -1   6  136.99   40.30
  -5  -1  -6   85.59   47.80
   5  -1   6   88.29   43.40
  -5  -1  -6   54.99  101.29
  -5  -1  -6   89.59   53.39
  -5   1  -6  104.29   44.70
   5   1   6   66.89   42.80
  -5   1  -6  134.29   53.89
   5   1   6   68.49  115.19
   6  -1   6   81.29   48.40
   6  -1   6   83.99   44.80
  -6  -1  -6   36.10   57.99
  -6  -1  -6  -12.20  115.19
   6  -1   6   46.10  119.39
  -6  -1  -6    2.50   49.40
   6   1   6   40.50   39.20
   6   1   6   86.39   88.39
  -6   1  -6   96.29   56.79
  -6   1  -6   -0.10   94.69
  -6   1  -6   97.79   46.90
   7  -1   6  294.97  115.49
  -7  -1  -6  209.58   57.19
   7  -1   6  197.28   51.19
  -7  -1  -6  203.38   59.09
  -7  -1  -6  253.87  114.49
   7   1   6  346.57   96.59
  -7   1  -6  156.58   55.49
  -7   1  -6  226.78   55.99
  -7   1  -6  131.29  109.09
   7   1   6  169.98   47.00
  -8  -1  -6   48.20   61.99
  -8  -1  -6   30.60   55.69
  -8  -1  -6  -61.29  124.49
   8  -1   6  110.79   54.39
   8  -1   6   38.20  111.59
  -8   1  -6    2.00   52.99
  -8   1  -6   21.60  112.59
   8   1   6   39.50   49.00
  -8   1  -6    6.90   57.29
   8   1   6  151.18   85.69
  -8  -2   6   41.30   65.39
   8  -2  -6   52.99   93.29
   8  -2  -6  -57.69   47.30
  -8   2   6   15.90   60.79
   7  -2  -6  123.19   77.69
  -7  -2   6    4.20   70.99
  -7  -2   6  137.29   57.99
  -7  -2   6  108.59   47.20
  -7   2   6   17.40   52.09
   7   2  -6  221.08   74.29
   6  -2  -6  101.39   46.30
   6  -2  -6   85.49   66.59
  -6  -2   6   14.40   59.49
  -6  -2   6   -3.00   71.39
   6  -2  -6  123.79   60.29
  -6  -2   6   56.39   47.20
  -6   2   6   89.29   57.09
   6   2  -6   37.80   39.00
   6   2  -6  125.29   65.19
   5  -2  -6   87.89   45.10
  -5  -2   6   63.79   44.60
   5  -2  -6  -88.79   70.09
  -5  -2   6   23.50   55.29
  -5  -2   6   78.39   76.39
   5   2  -6   51.59   62.29
  -5   2   6   29.10   57.59
   5   2  -6    9.10   34.40
  -4  -2   6  484.15   85.49
   4  -2  -6  543.05   80.69
   4  -2  -6  625.64   75.19
  -4  -2   6  608.04  133.39
   4  -2  -6  331.97   75.19
   4   2  -6  673.63  110.69
   4   2  -6  567.84   69.99
   4   2  -6  475.25   63.09
   4   2  -6  481.95   82.99
   3  -2  -6 6202.58  301.57
   3  -2  -6 5763.22  304.57
  -3  -2   6 6789.92  296.07
  -3  -2   6 6437.46  324.07
   3  -2  -6 6151.68  293.07
   3  -2  -6 6376.56  309.97
   3  -2  -6 6176.08  293.77
   3   2  -6 6320.47  291.07
  -3   2   6 6275.17  303.47
   3   2  -6 5690.23  292.37
   3   2  -6 6336.87  288.87
   3   2  -6 6330.77  309.57
  -2  -2   6 2158.08  126.69
   2  -2  -6 2200.08  132.09
  -2  -2   6 2161.18  117.89
   2  -2  -6 2086.39  112.69
  -2  -2   6 2092.39  186.28
   2  -2  -6 1963.80  130.89
   2  -2  -6 2018.10  156.78
   2  -2  -6 2736.43  171.48
   2   2  -6 2163.98  155.98
   2   2  -6 1977.70  111.99
   2   2  -6 2046.30  122.79
   2   2  -6 1939.01  139.39
  -2   2   6 2197.88  146.49
   1  -2  -6 2038.90  165.48
  -1  -2   6 2050.89  193.68
  -1  -2   6 1921.71  116.59
   1  -2  -6 1935.31   98.19
  -1  -2   6 1926.91  145.59
  -1  -2   6 2042.30  103.49
   1  -2  -6 1823.02  132.99
   1   2  -6 1894.61  101.99
   1   2  -6 1876.11  114.09
  -1   2   6 1933.71  142.79
  -1   2   6 2092.79  132.49
   1   2  -6 2128.39  166.38
   1   2  -6 2026.30  139.29
   0  -2   6  229.48   31.20
   0  -2  -6  307.67   65.59
   0  -2  -6  179.38   85.19
   0  -2   6  268.27   65.19
   0  -2   6  311.27  111.79
   0  -2   6  265.57   51.39
   0   2  -6  239.48   42.60
   0   2  -6  211.38   91.29
   0   2   6  394.26   88.49
   0   2  -6  234.88   35.30
   0   2  -6  212.78   50.79
   0   2   6  317.37   75.99
   1  -2   6  475.85   73.59
  -1  -2  -6  387.16   82.29
   1  -2   6  350.96   61.39
  -1  -2  -6  711.93  106.59
  -1  -2  -6  474.95   78.59
  -1   2  -6  513.85   71.29
   1   2   6  588.34   83.99
  -1   2  -6  659.43  152.68
  -2  -2  -6  607.64   93.79
  -2  -2  -6  471.55   85.19
   2  -2   6  461.75  123.79
  -2  -2  -6  632.94  106.09
   2  -2   6  459.85  106.69
   2   2   6  524.15   65.69
   2   2   6  699.73  120.19
  -2   2  -6  518.15   77.99
  -2   2  -6  512.25   88.29
  -3  -2  -6   83.49   42.10
   3  -2   6  129.29  117.39
   3  -2   6   15.90   42.80
  -3  -2  -6   84.29   58.69
  -3  -2  -6  100.19   95.39
   3   2   6  100.79   74.79
   3   2   6  -73.59   46.30
  -3   2  -6   56.79   44.40
  -3   2  -6   45.20   51.29
   3   2   6   34.20   24.90
  -3   2  -6   33.70   88.09
  -4  -2  -6   77.69   51.29
  -4  -2  -6  234.18  104.89
   4  -2   6   71.19   51.89
   4  -2   6   43.50  114.49
  -4  -2  -6  171.38   46.50
  -4   2  -6  108.99   44.10
  -4   2  -6  155.18   48.20
   4   2   6  196.38   75.29
  -4   2  -6  195.68   92.49
  -4   2  -6  152.88   23.90
  -5  -2  -6  135.69  121.39
  -5  -2  -6  166.98   63.89
   5  -2   6  112.59   49.50
   5  -2   6  108.99  127.09
  -5  -2  -6  142.39   49.50
  -5   2  -6  156.08   31.60
   5   2   6  146.39   38.70
  -5   2  -6  125.29   93.69
  -5   2  -6  125.29   52.59
   5   2   6  200.98   77.29
  -5   2  -6  127.59   51.29
  -6  -2  -6  197.78  131.59
   6  -2   6   89.79   50.09
  -6  -2  -6   89.49   63.59
   6  -2   6  115.69   40.10
   6  -2   6  176.68  121.89
  -6  -2  -6   77.39   49.90
  -6   2  -6   85.99   95.79
  -6   2  -6   84.29   54.39
   6   2   6  106.19   79.39
  -6   2  -6   86.79   35.50
   6   2   6   27.40   41.70
   7  -2   6   51.49  118.99
  -7  -2  -6   -6.00   58.89
  -7  -2  -6   93.99   53.09
  -7  -2  -6   46.70  122.59
   7  -2   6   30.30   55.49
   7   2   6    1.30   46.10
  -7   2  -6   -2.70   38.90
   7   2   6   97.09   80.69
  -7   2  -6  -58.99   95.69
  -7   2  -6   -9.20   54.69
  -7  -3   6   97.19  128.19
  -7  -3   6  193.08   62.29
   7  -3  -6  -69.99   75.99
  -7  -3   6  119.79   67.69
   7  -3  -6   79.69   70.69
   7  -3  -6   91.39   90.29
   7  -3  -6  -97.69   70.39
   7   3  -6  269.77   66.49
   7   3  -6  -35.90   73.49
   6  -3  -6 -122.59   77.79
  -6  -3   6  -50.59   56.09
  -6  -3   6   58.59  102.49
   6  -3  -6  -58.29   58.89
  -6  -3   6  -34.50   73.49
   6  -3  -6  101.49   48.60
   6   3  -6  -29.20   67.59
   6   3  -6    1.50   48.70
  -5  -3   6   26.80   53.69
   5  -3  -6 -152.78   78.79
  -5  -3   6    6.70   62.19
   5  -3  -6  -31.00   62.29
   5  -3  -6  -44.10   72.09
   5  -3  -6   83.69   45.90
  -5  -3   6  -33.70  102.69
   5   3  -6   50.19   65.59
   5   3  -6   59.09   30.50
   5   3  -6  -65.19   42.20
   4  -3  -6  -63.29   76.49
   4  -3  -6  -13.00   62.09
  -4  -3   6   19.40   49.40
  -4  -3   6    7.10  100.99
   4  -3  -6  106.19   77.49
   4  -3  -6   96.59   43.60
  -4  -3   6   45.80   52.79
   4   3  -6   34.60   24.40
   4   3  -6  -59.39   33.50
   4   3  -6   81.39   55.39
   3  -3  -6  108.19   54.89
   3  -3  -6  410.66   80.09
  -3  -3   6  258.67  104.89
  -3  -3   6  314.57   60.89
   3  -3  -6  264.57   68.99
   3  -3  -6  282.07   46.50
  -3  -3   6  254.17   48.70
   3   3  -6  386.26   90.69
   3   3  -6  244.68   49.99
   3   3  -6  322.57   38.70
   2  -3  -6   25.30   39.70
  -2  -3   6   95.09  105.99
  -2  -3   6  -39.30   65.39
   2  -3  -6   18.20   65.79
   2  -3  -6   44.40   56.69
   2   3  -6  -11.40   39.10
   2   3  -6   46.30   21.80
   2   3  -6   11.50   56.89
   2   3  -6  -11.60   24.20
  -2   3   6   42.40   59.99
  -1  -3   6  250.37  101.89
  -1  -3   6  315.87   53.99
   1  -3  -6  329.77   79.19
  -1  -3   6  462.35   70.89
  -1  -3   6  204.68   67.59
   1  -3  -6  249.78   39.90
   1  -3  -6  214.78   41.10
   1  -3  -6  211.68   63.19
  -1   3   6  237.78   64.59
   1   3  -6  258.67   51.79
   1   3  -6  305.07   46.00
   1   3  -6  313.47   76.49
   1   3  -6  212.38   43.60
   0  -3   6 2125.19  199.18
   0  -3   6 1672.03  110.29
   0  -3  -6 2047.60  173.48
   0  -3  -6 2132.69  115.49
   0  -3   6 2126.19  100.39
   0  -3   6 1753.22  152.78
   0  -3  -6 1819.42  128.49
   0   3   6 2094.99  145.09
   0   3  -6 1886.31  164.48
   0   3  -6 1896.61  100.79
   0   3  -6 1952.20  105.69
   0   3  -6 1984.90  134.59
   1  -3   6  294.87   62.29
   1  -3   6  196.68   54.09
  -1  -3  -6  351.06   65.89
   1  -3   6  212.68  102.39
  -1  -3  -6  387.76   84.69
   1   3   6  449.46   72.99
  -1   3  -6  413.16   62.89
  -1   3  -6  412.36   89.99
  -1   3  -6  594.64  131.19
  -2  -3  -6  442.46   70.59
  -2  -3  -6  329.97   91.19
   2  -3   6  410.96   67.69
   2  -3   6  175.28  105.49
  -2  -3  -6  248.08   57.29
  -2   3  -6  209.58   77.89
   2   3   6  356.06   73.89
  -2   3  -6  450.55   94.29
   2   3   6  223.88   73.39
  -2   3  -6  248.38   46.30
   3  -3   6  102.59   59.99
   3  -3   6  154.18  119.59
  -3  -3  -6  139.89   96.79
  -3  -3  -6  120.79   58.19
  -3  -3  -6  129.59   44.20
  -3   3  -6   55.99   53.09
  -3   3  -6   84.09   74.99
   3   3   6    4.50   49.60
   3   3   6  193.58   36.00
   3   3   6  107.59   78.39
  -3   3  -6   22.60   43.40
   4  -3   6  124.89   60.29
  -4  -3  -6  195.38   94.99
  -4  -3  -6  152.58   45.80
  -4  -3  -6  156.08   59.99
   4  -3   6  249.68  140.39
  -4   3  -6  133.29   81.39
  -4   3  -6  194.98   53.99
   4   3   6  365.86   82.69
  -4   3  -6  129.29   49.20
  -5  -3  -6  230.48  111.59
   5  -3   6  201.18   58.79
   5  -3   6  -67.99  133.19
  -5  -3  -6   93.69   49.50
  -5  -3  -6   97.29   57.99
   5   3   6  145.29   76.09
  -5   3  -6  184.48   86.39
  -5   3  -6   78.09   51.59
  -5   3  -6  114.89   55.79
   3  -4  -6   45.90   74.09
  -3  -4   6   76.09   70.99
   3   4  -6  117.79   61.99
   2  -4  -6   55.09   72.79
   2  -4  -6   23.10   58.69
   2  -4  -6   22.20   82.59
  -2  -4   6   80.09   51.19
  -2  -4   6   -6.20   62.79
  -2  -4   6  106.69  117.89
   2   4  -6   21.00   55.29
   1  -4  -6   70.69   78.19
  -1  -4   6 -103.29   68.29
   1  -4  -6  162.68   85.99
   1  -4  -6   26.60   62.89
  -1  -4   6   70.39  118.89
  -1  -4   6   71.99   48.10
  -1  -4   6  -46.50   60.49
   1   4  -6  101.69   54.79
   0  -4   6  137.49   81.69
   0  -4  -6  168.78   63.99
   0  -4   6  242.38   42.90
   0  -4  -6  154.08   83.99
   0  -4   6   42.00  111.89
   0   4  -6  220.18   57.39
   1  -4   6   71.69  176.88
   1  -4   6   14.80   75.49
   1  -4   6   78.89   34.80
  -1  -4  -6   57.89   60.19
  -1  -4  -6  141.89   91.59
  -1   4  -6   16.30   52.39
  -1   4  -6   15.90   31.00
  -9   0   7  389.86   72.99
  -8   0   7  -16.90   60.79
  -7   0   7 2632.34  151.48
   7   0  -7 2438.66  164.58
  -6   0   7  431.16   89.29
   6   0  -7  365.36   83.49
   5   0  -7   90.09   75.99
  -5   0   7  160.98   39.30
  -5   0   7  179.78   61.19
   5   0  -7  163.18   55.39
  -4   0   7  951.00   95.19
   4   0  -7  961.50   83.79
   4   0  -7  795.72  126.39
   4   0  -7  879.31   92.89
   4   0  -7  808.42  113.39
  -4   0   7  762.02   98.99
  -3   0   7   67.39   57.49
  -3   0   7  152.88   58.59
   3   0  -7  156.18   80.89
   3   0  -7  150.68   65.49
   3   0  -7  106.69   49.20
  -3   0   7  108.49   72.49
   2   0  -7  762.12  154.58
  -2   0   7  722.53  107.99
  -2   0   7  798.52  106.19
   2   0  -7  866.91  106.49
   2   0  -7  752.12   77.09
  -2   0   7  756.22   80.49
  -1   0   7  870.41  117.09
   1   0  -7  824.72   76.79
   1   0  -7  947.91  167.58
   1   0  -7 1042.30  107.19
   1   0  -7  807.12   97.09
  -1   0   7  936.11  100.89
   0   0  -7  241.18   41.60
   0   0   7  334.37   61.49
   0   0  -7  429.06  114.99
   0   0  -7  329.37   65.79
   0   0   7  321.57   53.69
   0   0  -7  339.17   44.70
   0   0   7  270.97  104.59
   0   0  -7  305.27   61.39
   1   0   7 3212.58  256.57
  -1   0  -7 3587.94  175.88
  -1   0  -7 3664.53  175.38
   1   0   7 3501.25  173.88
  -1   0  -7 3712.43  245.98
   1   0   7 3469.95  179.28
   1   0   7 3410.56  186.98
  -2   0  -7 1381.56   87.99
   2   0   7 1305.27  201.58
   2   0   7 1220.48   96.59
  -2   0  -7 1310.57   95.99
  -2   0  -7 1455.85  173.48
  -2   0  -7 1260.07  110.29
   2   0   7 1344.87  102.09
   2   0   7 1313.77   94.59
  -3   0  -7   88.49   42.50
   3   0   7   88.79   42.20
   3   0   7  -31.10  102.19
  -3   0  -7   52.59   41.60
  -3   0  -7   24.00   44.70
   3   0   7   57.79   38.70
  -3   0  -7  108.09   98.99
   4   0   7   27.60  109.09
  -4   0  -7   27.80   44.50
  -4   0  -7   30.20  104.59
   4   0   7   23.80   38.20
   4   0   7  -35.00   41.00
  -4   0  -7   -3.70   47.20
   5   0   7  877.21  185.18
  -5   0  -7  916.01   98.49
   5   0   7  905.31   88.49
  -5   0  -7  883.71   89.49
  -6   0  -7 2103.49  127.39
  -6   0  -7 1909.01  212.68
   6   0   7 2083.79  129.09
  -6   0  -7 2009.20  134.99
   6   0   7 1777.72  196.18
  -7   0  -7  646.94  140.69
   7   0   7  917.71   98.69
  -7   0  -7  909.61   96.89
  -7   0  -7  914.31  109.79
   7   0   7  804.52  170.58
  -8   0  -7    7.70   57.59
   8   0   7  293.67  110.49
  -8   0  -7  -73.59  129.19
  -9  -1   7  134.29   63.79
  -9   1   7  166.08   60.69
  -8  -1   7  -29.60   64.89
   8  -1  -7  -10.00   63.59
  -8   1   7   24.30   54.89
   8   1  -7  117.89   68.19
   7  -1  -7   79.89   71.79
  -7  -1   7  113.89   60.89
   7  -1  -7   57.29   55.69
  -7   1   7    9.60   54.89
   7   1  -7  151.88   72.49
   6  -1  -7  520.65   90.09
   6  -1  -7  769.12  112.49
   6  -1  -7  253.87   75.89
  -6  -1   7  469.05   91.49
   6   1  -7  407.06   85.49
  -6   1   7  466.15   94.69
   5  -1  -7   -5.30   82.59
  -5  -1   7   23.30   52.09
  -5  -1   7   56.69   67.29
   5   1  -7    8.30   70.39
   5   1  -7   12.90   45.00
  -5   1   7    3.70   52.79
   5   1  -7   46.60   43.10
  -5   1   7   18.30   41.90
   4  -1  -7  585.74   89.19
   4  -1  -7  512.55  124.09
   4  -1  -7  639.64   82.29
  -4  -1   7  833.72  115.89
  -4  -1   7  742.13   86.19
   4   1  -7  576.54  129.49
   4   1  -7  774.12   77.09
  -4   1   7  661.63   86.29
  -4   1   7  614.14   89.09
   4   1  -7  702.13  105.09
   4   1  -7  685.93   75.89
  -3  -1   7 2401.86  137.29
   3  -1  -7 2542.35  183.28
   3  -1  -7 2400.26  138.29
  -3  -1   7 2426.96  180.58
   3  -1  -7 2339.97  165.48
  -3  -1   7 2273.57  148.89
  -3   1   7 2497.05  153.58
   3   1  -7 2465.65  150.48
   3   1  -7 2473.75  163.38
   3   1  -7 2557.94  131.59
  -3   1   7 2581.84  147.29
   3   1  -7 2540.25  174.28
   2  -1  -7  251.67   66.59
   2  -1  -7  415.96   93.89
   2  -1  -7  426.86   58.49
  -2  -1   7  359.06   58.89
  -2  -1   7  349.47   66.29
  -2  -1   7  267.57   95.09
   2  -1  -7  292.57   60.99
  -2   1   7  422.26   65.99
   2   1  -7  424.36   66.29
   2   1  -7  422.36  101.69
  -2   1   7  346.27   70.79
   2   1  -7  358.16   84.99
   2   1  -7  221.38   83.39
   1  -1  -7   94.09  104.99
   1  -1  -7  208.88   49.00
  -1  -1   7  118.69   48.80
   1  -1  -7  227.58   54.49
  -1  -1   7  152.18   99.79
   1  -1  -7  134.59   54.09
  -1  -1   7  179.38   35.60
  -1  -1   7  249.48   64.99
  -1   1   7   94.59   75.99
   1   1  -7  203.78   57.89
  -1   1   7  162.48   51.69
   1   1  -7  113.99   47.80
   1   1  -7  176.38   36.60
   1   1  -7  198.78   94.79
   0  -1  -7  543.15   42.80
   0  -1   7  455.45  106.69
   0  -1  -7  700.03   93.49
   0  -1  -7  493.65   91.19
   0  -1  -7  679.43  124.19
   0  -1   7  501.45  108.99
   0  -1   7  482.45   96.49
   0   1  -7  430.46   71.19
   0   1   7  629.34   96.59
   0   1  -7  442.36   90.19
   0   1   7  565.64   97.59
   0   1   7  482.45   88.89
   0   1  -7  511.45   50.99
   0   1  -7  514.05  104.99
   0   1  -7  562.84   83.09
  -1  -1  -7  200.28  105.49
  -1  -1  -7  389.26   59.39
   1  -1   7  322.87   52.99
   1  -1   7  328.57  106.79
  -1  -1  -7  439.96  124.99
   1  -1   7  263.27   56.09
   1   1   7  332.77   59.49
   1   1   7  342.57   57.19
   1   1   7  314.47   53.19
  -1   1  -7  354.46   39.70
  -1   1  -7  390.86  109.99
   1   1   7  524.55   97.79
  -1   1  -7  411.16   40.60
  -1   1  -7  352.76   80.09
  -2  -1  -7  327.67   60.09
   2  -1   7  178.18  102.49
   2  -1   7   74.59   46.60
  -2  -1  -7  136.49   54.79
   2  -1   7  189.38   46.70
  -2  -1  -7  388.66  134.59
   2   1   7  135.99   52.99
  -2   1  -7  225.08  110.59
   2   1   7  272.17   54.39
  -2   1  -7   87.89   48.80
   2   1   7  262.27   98.29
   2   1   7  174.98   29.70
  -2   1  -7  231.98   39.70
  -2   1  -7  190.48   50.09
   3  -1   7  568.94   88.19
   3  -1   7  507.75   60.69
   3  -1   7  543.55  123.29
  -3  -1  -7  514.15   83.09
  -3  -1  -7  711.23  146.19
  -3  -1  -7  560.04   85.39
  -3   1  -7  560.24  114.49
   3   1   7  700.83   83.19
  -3   1  -7  544.15   54.29
   3   1   7  617.54  104.89
   3   1   7  566.34   60.99
  -3   1  -7  571.24   87.09
  -3   1  -7  487.75   85.19
  -4  -1  -7 1028.40   94.49
   4  -1   7  921.81  192.48
   4  -1   7  855.61   69.29
   4  -1   7  910.31   96.39
  -4  -1  -7  805.22  186.98
  -4  -1  -7  937.81   94.19
  -4   1  -7  959.20   72.59
   4   1   7  992.60   79.29
   4   1   7  818.92  163.88
  -4   1  -7  959.20  101.29
  -4   1  -7  966.80   96.69
  -4   1  -7  560.34  191.18
  -5  -1  -7  -25.20   51.39
   5  -1   7   21.80  117.49
  -5  -1  -7  -87.99  111.89
   5  -1   7    9.00   40.40
  -5  -1  -7   49.70   50.99
   5  -1   7   15.40   45.10
  -5   1  -7  -13.40   47.90
  -5   1  -7  -74.79   96.79
  -5   1  -7   -7.80   39.50
   5   1   7   -7.90   37.80
   5   1   7   41.40   90.69
   6  -1   7   -2.00   41.90
  -6  -1  -7   66.29   57.39
  -6  -1  -7   53.29   51.69
   6  -1   7  -55.29   47.40
   6  -1   7   -2.90  110.09
  -6  -1  -7    8.60  119.49
  -6   1  -7   64.79   47.20
   6   1   7  152.38   94.69
  -6   1  -7  -76.59   94.99
   6   1   7   25.00   40.70
  -6   1  -7   43.10   51.19
  -7  -1  -7  153.18   58.79
  -7  -1  -7  244.28   63.49
   7  -1   7   14.60  119.39
   7  -1   7  206.48   55.09
  -7  -1  -7  -52.59  113.99
   7   1   7  198.98   49.40
  -7   1  -7  168.58  107.69
   7   1   7  202.98   97.49
  -7   1  -7  196.58   54.79
  -7   1  -7  190.08   57.29
  -8  -2   7   -2.70   59.39
   8  -2  -7  -62.69   47.70
   8  -2  -7   62.79   70.89
   8  -2  -7   -4.60   83.79
  -8   2   7    3.00   55.19
   8   2  -7   70.99   71.39
  -7  -2   7   -6.50   59.29
  -7  -2   7   -5.30   72.79
  -7  -2   7   41.70   42.20
   7  -2  -7  166.98   80.79
   7  -2  -7   49.00   71.89
   7  -2  -7  118.49   59.29
   7   2  -7   64.69   70.49
  -7   2   7  -54.59   58.99
   6  -2  -7  -89.69   53.69
  -6  -2   7   46.80   44.50
  -6  -2   7   -5.50   56.29
   6  -2  -7  130.99   47.00
   6  -2  -7   29.40   77.39
  -6  -2   7   67.69   82.79
   6   2  -7   12.70   40.30
  -6   2   7  -17.30   58.29
   6   2  -7   14.70   67.49
  -5  -2   7  121.89   89.49
  -5  -2   7  157.08   57.39
   5  -2  -7  175.48   47.80
   5  -2  -7  112.79   77.79
   5   2  -7  197.88   40.80
   5   2  -7  216.98   56.69
  -5   2   7  132.09   55.99
   5   2  -7  179.28   66.09
   4  -2  -7   37.40   64.49
   4  -2  -7   73.89   69.09
   4  -2  -7  146.09   44.50
   4  -2  -7  173.68   71.59
  -4  -2   7  100.09   50.69
  -4  -2   7   55.79   92.79
   4   2  -7  110.19   59.49
   4   2  -7   91.49   49.00
  -4   2   7  102.89   53.69
   4   2  -7   66.79   37.80
   4   2  -7  118.89   59.09
   4   2  -7   89.99   44.90
   3  -2  -7 3395.26  206.88
   3  -2  -7 3704.63  189.28
   3  -2  -7 3214.98  187.18
   3  -2  -7 3157.78  171.68
  -3  -2   7 3584.24  233.68
  -3  -2   7 3556.74  173.68
   3  -2  -7 3406.96  170.48
   3   2  -7 3476.25  169.68
   3   2  -7 3434.96  180.28
  -3   2   7 3466.95  191.28
   3   2  -7 3351.16  198.58
   3   2  -7 3249.48  196.98
   2  -2  -7  823.72  112.59
  -2  -2   7  873.01   95.39
  -2  -2   7  945.51  178.18
   2  -2  -7  768.92  131.49
  -2  -2   7  901.31   70.19
   2  -2  -7  802.32   64.39
   2   2  -7  709.73  104.09
  -2   2   7  866.61   92.39
   2   2  -7  872.61   68.69
  -2   2   7  906.11  113.79
   2   2  -7  969.50  137.29
   2   2  -7  773.32   85.69
  -1  -2   7  610.04  119.19
  -1  -2   7  333.37   49.70
   1  -2  -7  438.76   68.79
  -1  -2   7  404.56  108.49
  -1  -2   7  343.87   50.49
   1  -2  -7  294.87   86.79
  -1   2   7  443.06   97.59
   1   2  -7  359.76   88.99
   1   2  -7  338.87   44.60
   1   2  -7  352.86   74.59
  -1   2   7  348.67  117.29
   1   2  -7  357.36   66.79
   0  -2   7   55.89   45.70
   0  -2   7    8.00   61.69
   0  -2  -7   21.30   92.49
   0  -2  -7  131.99   63.69
   0   2   7   98.19   74.29
   0   2   7   60.09   48.20
   0   2  -7   12.50   43.60
   0   2  -7    5.30   85.69
   0   2  -7   43.00   49.90
   1  -2   7  236.68   53.09
  -1  -2  -7  259.07   56.69
  -1  -2  -7  197.28   53.09
   1  -2   7  267.87  122.59
  -1   2  -7  136.89   42.40
   1   2   7  203.88   54.39
   1   2   7  223.68   72.79
  -1   2  -7  166.98   50.69
  -2  -2  -7  109.49   89.59
   2  -2   7  144.89   59.29
   2  -2   7  224.58  116.99
  -2  -2  -7  161.18   61.19
  -2  -2  -7  154.08   48.10
  -2   2  -7  126.69   53.39
   2   2   7   26.40   54.09
   2   2   7  127.99   72.59
  -2   2  -7  152.38   93.49
  -2   2  -7   71.09   44.00
  -3  -2  -7  227.38   46.80
   3  -2   7  258.87  120.09
   3  -2   7  324.47   61.19
  -3  -2  -7  241.28   62.89
  -3  -2  -7  325.67   98.09
  -3   2  -7  221.68   52.29
  -3   2  -7  196.38   50.59
  -3   2  -7  204.98   91.09
   3   2   7  224.08   75.19
   3   2   7  225.48   40.40
  -4  -2  -7  294.67   61.79
  -4  -2  -7  198.38   49.99
   4  -2   7  213.78   50.49
   4  -2   7  119.49  116.69
  -4  -2  -7  287.67  122.69
  -4   2  -7  150.08   47.20
   4   2   7  309.47   50.69
  -4   2  -7  157.58   97.39
   4   2   7  267.97   77.59
  -4   2  -7  156.38   49.60
   5  -2   7  339.87  126.39
   5  -2   7  363.46   53.49
  -5  -2  -7  813.62  143.09
  -5  -2  -7  617.54   87.49
  -5  -2  -7  618.94   93.29
   5  -2   7  543.85   92.29
  -5   2  -7  484.25   94.69
   5   2   7  667.33   67.09
   5   2   7  519.95  120.89
  -5   2  -7  438.76   94.69
  -5   2  -7  462.05   48.80
  -5   2  -7  422.76  103.69
   6  -2   7  -17.40   47.40
   6  -2   7   14.80   40.20
   6  -2   7    0.10  123.09
  -6  -2  -7   50.49   62.19
  -6  -2  -7   -1.70  126.79
  -6  -2  -7   31.60   51.49
  -6   2  -7   29.80   98.29
  -6   2  -7   -3.50   51.89
   6   2   7   47.00   38.50
  -6   2  -7   34.80   32.70
   6   2   7   60.99   73.69
  -6  -3   7  215.38   65.19
   6  -3  -7  -25.70   58.79
   6  -3  -7   28.00   91.59
   6  -3  -7  141.09   52.49
   6  -3  -7  118.99   70.49
  -6  -3   7  128.99   97.79
   6  -3  -7  -27.00   77.99
   6   3  -7   68.69   67.49
   6   3  -7   62.89   83.89
  -5  -3   7   64.99   60.29
  -5  -3   7   48.60   99.99
   5  -3  -7 -175.38   81.19
   5  -3  -7    5.40   63.79
   5  -3  -7  -65.59   69.99
   5  -3  -7   81.89   47.50
   5  -3  -7   34.70   67.19
  -5  -3   7   99.59   61.69
   5   3  -7  -35.20   45.40
   5   3  -7   62.89   32.10
   5   3  -7  106.19   65.99
  -4  -3   7   56.19   54.49
  -4  -3   7    2.70   54.19
  -4  -3   7    7.50   97.19
   4  -3  -7    7.70   67.69
   4  -3  -7    9.70   65.09
   4  -3  -7  -98.69   71.79
   4   3  -7   46.50   57.29
   4   3  -7  -20.40   27.10
   4   3  -7  -24.80   36.50
  -3  -3   7  146.59   50.69
   3  -3  -7  119.39   37.60
   3  -3  -7   67.09   65.19
  -3  -3   7  138.19  101.79
   3  -3  -7   27.80   70.39
   3   3  -7   46.80   42.10
   3   3  -7   68.19   29.60
   3   3  -7  118.99   54.49
   2  -3  -7  117.69   58.69
   2  -3  -7  507.35   86.09
  -2  -3   7  244.28   46.80
  -2  -3   7  317.47  104.69
   2  -3  -7  201.48   82.69
   2  -3  -7  301.27   68.99
   2   3  -7  146.69   42.40
   2   3  -7  363.86   53.99
   2   3  -7  188.78   58.89
   2   3  -7  246.38   71.29
  -2   3   7  232.68   62.09
   1  -3  -7  554.44   86.69
  -1  -3   7  415.96   56.39
  -1  -3   7  189.48   68.49
   1  -3  -7  242.68   86.49
   1  -3  -7  283.07   66.59
  -1  -3   7  310.97  104.89
  -1  -3   7  479.95   75.99
   1   3  -7  322.67   43.80
   1   3  -7  382.26   54.79
  -1   3   7  315.77   69.19
   1   3  -7  438.36   90.99
   1   3  -7  330.87   81.09
   0  -3   7  437.96   78.29
   0  -3  -7  314.47   63.39
   0  -3   7  294.67   48.40
   0  -3  -7  403.96   89.29
   0  -3   7  309.77  107.29
   0  -3   7  353.86   38.10
   0   3  -7  270.17   75.99
   0   3  -7  382.06   60.49
   0   3  -7  367.26   90.99
   0   3   7  254.87   66.69
  -1  -3  -7   79.89   89.69
  -1  -3  -7  127.99   64.49
   1  -3   7  136.79   59.09
   1  -3   7    8.40  114.09
  -1   3  -7   62.49   73.39
  -1   3  -7  110.39   38.30
   1   3   7  199.68   74.99
  -1   3  -7   72.09   49.00
  -2  -3  -7  288.67   58.49
  -2  -3  -7  497.15   81.29
  -2  -3  -7  520.75  104.69
   2  -3   7  190.28  113.79
  -2   3  -7  415.56   99.49
  -2   3  -7  427.66   74.09
   2   3   7  401.36   83.49
   2   3   7  529.25   85.69
  -2   3  -7  417.96   98.09
  -3  -3  -7  112.19  103.49
   3  -3   7  -37.10  126.49
   3  -3   7   56.99   55.89
  -3  -3  -7   51.79   44.50
  -3  -3  -7    5.00   56.99
   3   3   7  -51.49   68.29
  -3   3  -7   -6.10   49.00
   3   3   7  -86.79   50.69
  -3   3  -7   17.90   44.40
  -3   3  -7   30.90   86.99
  -4  -3  -7   62.99   55.89
   4  -3   7  -22.90  131.29
   4  -3   7  105.99   61.89
  -4  -3  -7  224.48  108.69
  -4  -3  -7  147.99   49.20
   4   3   7   81.09   70.69
   4   3   7  108.29   25.70
  -4   3  -7   60.69   50.39
  -4   3  -7  102.39   50.79
  -4   3  -7   40.70   93.59
  -5  -3  -7   36.00   60.79
  -5  -3  -7  211.58  117.19
   5  -3   7   89.49  140.59
   5  -3   7  158.78   61.69
   5   3   7  109.09   76.69
  -5   3  -7    3.40   92.59
  -2  -4   7    3.00   65.89
  -1  -4   7  112.29   47.00
   1  -4  -7   30.90   62.69
  -1  -4   7   -0.80  111.29
  -1  -4   7  -70.19   77.89
   1  -4  -7  101.59   88.29
   1   4  -7   79.19   56.39
   0  -4  -7   38.50   96.39
   0  -4   7   37.60  150.88
   9   0  -8   74.39   72.29
  -9   0   8   19.50   62.19
  -8   0   8   77.19   67.29
   8   0  -8  161.88   79.09
  -7   0   8 1137.19  112.19
   7   0  -8 1227.68  146.09
  -6   0   8  322.17   65.19
  -6   0   8  286.77   44.50
   6   0  -8  251.27   84.79
   5   0  -8   97.49   81.99
   5   0  -8   94.89   64.59
  -5   0   8   76.49   43.80
  -5   0   8   59.99   51.79
   4   0  -8   23.40   75.99
  -4   0   8  -22.10   50.79
   4   0  -8  -17.60   73.09
  -4   0   8  -32.60   66.29
   4   0  -8   40.00   51.09
  -3   0   8  142.89   60.29
   3   0  -8  124.29   65.59
   3   0  -8  107.69   51.49
  -3   0   8   95.29   58.49
  -3   0   8    2.70   76.49
   3   0  -8   49.10   86.39
   2   0  -8 2226.38  193.28
  -2   0   8 2306.97  152.78
  -2   0   8 2471.65  132.39
   2   0  -8 2358.66  151.08
  -2   0   8 2241.08  195.08
   2   0  -8 2152.18  145.99
   2   0  -8 2322.67  127.59
   1   0  -8  159.38  107.69
   1   0  -8   78.09   43.10
   1   0  -8  108.89   42.50
   1   0  -8  159.88   50.49
  -1   0   8   84.79   53.19
   1   0  -8  219.48  107.99
  -1   0   8  120.99  104.19
   0   0  -8   69.29   43.50
   0   0   8  -19.80   52.39
   0   0  -8   -4.80   43.10
   0   0   8   63.29   48.90
   0   0  -8  -18.70   49.20
   0   0   8    7.10  100.69
   0   0  -8   58.99  110.09
   0   0  -8   10.50   35.60
   1   0   8 1467.85  127.59
  -1   0  -8 1942.31  109.09
   1   0   8 1871.41  109.59
  -1   0  -8 2133.39  201.78
  -1   0  -8 1818.12  126.49
  -1   0  -8 1813.32  109.49
   1   0   8 1744.13  115.99
   1   0   8 1877.71  209.08
  -2   0  -8  166.08   44.80
   2   0   8  110.79   48.50
   2   0   8  136.19   42.70
  -2   0  -8  194.18  110.89
  -2   0  -8   42.50   54.19
   2   0   8   64.29   38.20
   2   0   8  142.09  113.59
  -2   0  -8   68.49   38.60
   3   0   8  324.37   69.49
  -3   0  -8  443.86   88.59
  -3   0  -8  359.16   75.79
   3   0   8  339.57   66.29
  -3   0  -8  292.77   59.99
  -3   0  -8  501.75  115.09
   3   0   8  314.77  122.39
   4   0   8  168.78   42.00
   4   0   8   92.19   44.80
  -4   0  -8  221.88   49.60
  -4   0  -8  176.58   51.79
  -4   0  -8  121.39  141.39
   4   0   8  252.17  108.79
  -5   0  -8  274.87  120.99
  -5   0  -8  284.27   59.09
  -5   0  -8  397.46   77.79
   5   0   8  328.97   74.99
   5   0   8  480.05  118.49
   6   0   8  504.65   82.69
  -6   0  -8  461.05   94.39
   6   0   8  766.22  176.78
  -6   0  -8  519.55   84.99
  -6   0  -8  416.56  122.09
   7   0   8  141.19  108.69
  -7   0  -8   26.60  132.29
   7   0   8   43.00   47.50
  -7   0  -8   54.39   55.09
  -7   0  -8   60.19   54.69
   9  -1  -8  -27.30   74.39
  -9  -1   8   65.59   61.49
  -9   1   8   47.00   63.79
   9   1  -8   73.79   75.89
   8  -1  -8  228.78   67.09
   8  -1  -8  295.77   84.39
  -8  -1   8  224.18   68.89
   8   1  -8  254.47   85.69
  -8   1   8  230.98   67.49
   7  -1  -8   83.69   57.89
  -7  -1   8   82.79   62.29
   7  -1  -8   65.19   78.59
   7   1  -8  151.48   74.09
  -7   1   8   85.59   62.99
  -6  -1   8 1208.78  106.09
   6  -1  -8 1208.68  147.29
  -6  -1   8 1307.47  107.29
  -6   1   8 1176.78  110.59
   6   1  -8 1238.58  140.09
   5  -1  -8  305.27   83.19
  -5  -1   8  202.88   55.59
  -5  -1   8  262.47   68.19
   5   1  -8  274.17   75.89
   5   1  -8  326.47   61.09
  -5   1   8  265.37   60.09
   5   1  -8  335.37   72.29
  -5   1   8  225.38   52.39
  -4  -1   8 1237.18   98.99
  -4  -1   8 1133.29  144.89
   4  -1  -8 1266.67  140.59
   4  -1  -8 1006.10  153.78
   4   1  -8 1227.68  135.59
   4   1  -8 1385.36  116.89
  -4   1   8 1217.38  111.19
   4   1  -8 1345.47   91.69
  -4   1   8 1182.78  107.39
   3  -1  -8  800.92   87.69
  -3  -1   8  749.73   85.29
  -3  -1   8  923.01  105.89
   3  -1  -8  803.62  107.59
   3  -1  -8  718.83  154.68
  -3  -1   8  838.72  143.79
  -3   1   8  879.11  104.39
   3   1  -8  997.50  112.99
  -3   1   8  853.01  101.59
   3   1  -8  836.22  134.09
  -3   1   8  744.93   93.99
   3   1  -8  836.92   80.49
   3   1  -8  723.93  114.89
   2  -1  -8  244.38  106.09
   2  -1  -8  460.25   95.29
   2  -1  -8  478.15   97.79
  -2  -1   8  499.95   67.99
   2  -1  -8  431.26   83.49
  -2  -1   8  486.55   95.89
  -2  -1   8  449.06   92.09
  -2   1   8  526.65  103.29
   2   1  -8  553.04   68.19
   2   1  -8  530.45   97.79
   2   1  -8  410.96   66.49
  -2   1   8  352.06   75.19
   2   1  -8  604.94   99.29
  -1  -1   8  434.26   58.59
  -1  -1   8  446.16   89.39
   1  -1  -8  354.36   62.99
  -1  -1   8  338.17   98.89
   1  -1  -8  423.56   61.79
   1  -1  -8  450.45   95.29
   1  -1  -8  335.77  114.09
  -1  -1   8  537.65  109.39
   1  -1  -8  387.76   79.69
   1   1  -8  535.05   98.99
   1   1  -8  442.96   58.49
   1   1  -8  436.86  105.89
  -1   1   8  425.46   87.19
   1   1  -8  395.86   60.89
  -1   1   8  404.46   82.69
   0  -1   8  132.49   56.79
   0  -1   8  108.59   57.99
   0  -1   8  172.58  101.29
   0  -1  -8  102.39   24.50
   0  -1  -8  125.59   56.69
   0  -1  -8  160.88   56.89
   0   1   8  150.38   92.59
   0   1  -8  125.99   49.40
   0   1  -8  119.69  105.29
   0   1   8   33.90   58.59
   0   1  -8  157.88   30.20
   0   1  -8   93.49   56.99
   0   1   8  110.59   54.39
   0   1  -8  156.78   33.90
  -1  -1  -8 1737.93  127.49
  -1  -1  -8 1713.83  116.69
   1  -1   8 1629.64  130.79
   1  -1   8 1851.21  195.68
   1  -1   8 2077.79  157.88
  -1  -1  -8 1926.71  213.98
   1   1   8 1615.74  116.59
  -1   1  -8 1815.12   95.09
   1   1   8 1744.93  132.49
  -1   1  -8 1886.21  120.89
  -1   1  -8 1841.32  124.29
  -1   1  -8 1871.21   94.79
   1   1   8 1927.91  102.49
   1   1   8 1760.82  180.08
  -1   1  -8 1846.02  190.28
  -2  -1  -8  432.06  145.89
  -2  -1  -8  190.08   55.99
   2  -1   8  145.39   53.69
   2  -1   8  352.26  180.48
   2  -1   8  191.18   34.90
  -2  -1  -8  127.19   56.49
   2   1   8  133.69   56.69
  -2   1  -8   97.89   48.80
  -2   1  -8  210.48   30.80
   2   1   8  316.77   96.69
  -2   1  -8  166.38   48.50
   2   1   8  117.59   54.69
   2   1   8  160.68   32.60
  -2   1  -8  249.58  107.59
   3  -1   8  164.08   37.40
   3  -1   8  131.99  112.59
  -3  -1  -8  139.29   58.69
  -3  -1  -8  165.38   49.60
   3  -1   8  250.57   52.19
  -3  -1  -8  282.27  125.69
  -3   1  -8  167.58   48.60
  -3   1  -8  162.58  114.19
  -3   1  -8  188.28   48.20
   3   1   8  297.67   57.09
   3   1   8  185.58   98.39
  -3   1  -8  181.48   32.50
   4  -1   8  598.24  130.29
   4  -1   8  604.14   74.19
  -4  -1  -8  646.74   90.89
  -4  -1  -8  771.22  123.89
  -4  -1  -8  865.01   89.69
   4  -1   8  802.42   87.19
  -4   1  -8  749.82   91.09
   4   1   8  749.03  161.58
  -4   1  -8  748.23  179.18
   4   1   8  753.22   72.99
  -4   1  -8  862.91  102.89
  -4   1  -8  750.12   66.39
  -5  -1  -8 -188.88  114.89
  -5  -1  -8    9.60   56.99
  -5  -1  -8   74.39   53.99
   5  -1   8  -94.29  115.79
   5  -1   8   39.60   44.90
   5  -1   8  -60.29   38.50
   5   1   8   62.69   95.49
  -5   1  -8  -58.19  108.99
   5   1   8   60.39   39.70
  -5   1  -8   74.09   39.50
  -5   1  -8   11.00   49.10
   6  -1   8   93.39   48.40
  -6  -1  -8   54.99   51.49
   6  -1   8  -44.90   46.80
  -6  -1  -8   76.39   60.39
  -6  -1  -8 -143.19  118.69
   6  -1   8 -123.19  110.99
   6   1   8   25.70   46.70
  -6   1  -8   69.59   45.40
  -6   1  -8  101.59  106.69
  -6   1  -8   57.09   53.69
   6   1   8   98.09   96.59
   7  -1   8   20.50  117.99
  -7  -1  -8 -233.78  117.79
   7  -1   8   39.50   49.30
  -7  -1  -8   65.09   59.39
  -7  -1  -8   70.79   65.19
  -7   1  -8   72.69   56.19
   7   1   8   82.49   50.09
   7   1   8  116.69   97.19
  -7   1  -8   96.79   52.19
  -7   1  -8  125.29  111.89
   8  -2  -8  274.17   87.39
  -8  -2   8  244.68   66.39
   8  -2  -8  320.77   84.89
  -8   2   8  207.48   60.49
   8   2  -8  579.04  130.59
   7  -2  -8  306.77   75.59
   7  -2  -8  386.06   86.19
  -7  -2   8  362.56   72.19
  -7  -2   8  347.57   69.19
  -7  -2   8  252.37   78.19
   7  -2  -8  408.36   87.39
  -7   2   8  339.77   68.69
   7   2  -8  600.04  125.99
  -6  -2   8   96.69   57.79
   6  -2  -8   63.79   78.99
  -6  -2   8   11.30   83.49
  -6  -2   8   71.79   42.60
  -6   2   8   51.49   62.29
   6   2  -8  112.69   66.39
   5  -2  -8   76.79   73.49
  -5  -2   8   69.39   51.99
  -5  -2   8    9.90   94.49
   5   2  -8   42.10   39.90
   5   2  -8  -14.90   67.09
   5   2  -8   38.40   54.29
   4  -2  -8   93.59   65.39
  -4  -2   8  114.49   47.10
   4  -2  -8  177.08   70.59
  -4  -2   8  127.09  100.29
   4  -2  -8   91.89   70.99
   4   2  -8   62.89   43.70
   4   2  -8   62.59   39.00
   4   2  -8  122.49   67.79
   4   2  -8  161.18   62.09
   4   2  -8  106.59   67.29
  -4   2   8  126.69   75.99
  -3  -2   8 2082.49  127.29
   3  -2  -8 2138.09  134.99
   3  -2  -8 1931.61  164.28
   3  -2  -8 2030.30  111.49
  -3  -2   8 1877.91  124.19
   3  -2  -8 1895.11  134.19
  -3  -2   8 1809.92  204.78
   3   2  -8 2013.30  149.39
   3   2  -8 1897.91  128.89
   3   2  -8 1863.81  157.88
   3   2  -8 2000.20  111.89
  -2  -2   8  377.66   89.89
   2  -2  -8  352.46   68.09
  -2  -2   8  226.08  114.09
   2  -2  -8  240.78   47.90
   2  -2  -8  327.97   90.29
  -2  -2   8  304.57   42.70
  -2   2   8  285.77   76.29
   2   2  -8  336.07   50.39
   2   2  -8  291.57   39.20
   2   2  -8  344.17   87.09
   2   2  -8  284.57   55.89
  -1  -2   8  228.88   32.80
   1  -2  -8  247.88   62.39
  -1  -2   8  231.98   48.60
  -1  -2   8  324.37   73.49
   1  -2  -8  367.46  163.18
  -1   2   8  183.38   74.59
   1   2  -8  239.78   58.49
   1   2  -8  285.37   90.99
   1   2  -8  234.68   40.90
   1   2  -8  133.79   48.80
  -1   2   8  243.58   61.69
   0  -2   8  648.14  114.29
   0  -2   8  426.46   87.79
   0  -2  -8  635.24  104.19
   0  -2   8  493.05  122.69
   0  -2  -8  705.53   90.99
   0  -2  -8  711.83  117.19
   0   2   8  576.54   86.79
   0   2  -8  517.75   84.59
   0   2  -8  578.74   96.89
   0   2   8  532.85  121.39
   1  -2   8   33.80   52.59
  -1  -2  -8  161.18   99.59
   1  -2   8   79.69  110.19
  -1  -2  -8  147.69   55.49
   1  -2   8  128.49   54.49
  -1  -2  -8  178.68   52.99
   1   2   8  190.08   80.09
  -1   2  -8  135.29   47.90
  -1   2  -8  113.79   88.69
   1   2   8  196.98   55.79
  -1   2  -8  133.39   44.90
  -2  -2  -8  360.46  105.49
   2  -2   8  287.47   62.69
  -2  -2  -8  316.67   55.49
   2  -2   8  157.88  116.69
  -2  -2  -8  461.35   84.39
   2   2   8  146.69   64.29
  -2   2  -8  364.46   95.79
   2   2   8  455.55   83.19
  -2   2  -8  267.37   52.19
  -2   2  -8  239.28   55.89
  -3  -2  -8   31.00  108.19
  -3  -2  -8    8.70   44.90
  -3  -2  -8  -21.00   57.99
   3  -2   8  -30.70  119.09
   3  -2   8   41.60   52.99
  -3   2  -8  -27.70   90.79
   3   2   8   27.00   19.20
  -3   2  -8  -10.50   47.10
  -3   2  -8   -8.70   45.40
   3   2   8   27.30   70.29
   4  -2   8  227.48   54.39
  -4  -2  -8  146.99   51.09
   4  -2   8   30.00  113.09
  -4  -2  -8  189.78   62.29
  -4  -2  -8  134.99  119.79
   4   2   8  233.08   49.40
  -4   2  -8  170.78   53.29
  -4   2  -8  234.28   58.59
  -4   2  -8  243.58  101.99
   4   2   8  122.59   71.69
  -5  -2  -8  409.26   92.29
   5  -2   8  456.05   95.99
   5  -2   8  106.99  124.29
  -5  -2  -8  300.07  133.99
  -5  -2  -8  221.08   60.09
  -5   2  -8  415.46   88.39
  -5   2  -8  220.18   55.29
   5   2   8  377.76   62.19
  -5   2  -8  283.17   41.60
  -5   2  -8  259.57  105.09
   5   2   8  215.68   74.39
  -6  -2  -8   67.79  128.29
  -6  -2  -8   10.70   51.69
   6  -2   8   17.60   52.49
  -6  -2  -8   -9.10   62.79
   6  -2   8  -54.59  127.09
   6   2   8    2.90   39.10
  -6   2  -8   39.90   32.30
   6   2   8   33.80   75.49
  -6   2  -8  -31.50   50.79
  -6   2  -8  -52.69  103.79
   6  -3  -8  845.92   96.99
   6  -3  -8  882.01  136.59
   6  -3  -8  395.36   87.19
   6  -3  -8  594.54  101.89
  -6  -3   8  602.44  124.69
  -6  -3   8  729.13  107.19
  -6  -3   8  789.92  104.49
   6   3  -8  691.83   89.39
   6   3  -8  540.75   97.19
  -5  -3   8    2.20  109.89
  -5  -3   8  143.49   57.89
  -5  -3   8   -8.90   56.29
   5  -3  -8  100.59   70.39
   5  -3  -8   12.40   73.99
   5  -3  -8 -130.69   70.59
   5  -3  -8   -0.60   67.79
   5  -3  -8   59.39   44.70
   5   3  -8   44.70   35.50
   5   3  -8   64.29   65.79
  -4  -3   8    9.00   51.59
   4  -3  -8   17.30   70.69
   4  -3  -8   30.30   75.29
  -4  -3   8   79.99  109.69
   4  -3  -8   90.39   40.70
   4   3  -8   82.89   61.19
   4   3  -8   13.90   32.10
   4   3  -8   38.90   36.80
   3  -3  -8   47.20   61.49
   3  -3  -8  169.48   87.19
  -3  -3   8   70.09  108.69
   3  -3  -8  103.69   36.00
  -3  -3   8   50.89   46.40
   3   3  -8   91.69   69.99
  -3   3   8   89.79   62.19
   3   3  -8   41.50   55.99
   3   3  -8   49.80   32.40
   3   3  -8  -27.80   40.90
   2  -3  -8  113.79   61.09
  -2  -3   8   91.29   42.30
   2  -3  -8  176.18   84.89
  -2  -3   8   64.39  113.59
  -2   3   8   98.19   58.69
   2   3  -8  -24.10   37.20
   2   3  -8  293.67   62.49
   2   3  -8   99.59   82.29
   2   3  -8   57.59   54.99
   1  -3  -8  -28.70   85.39
  -1  -3   8  -47.40  113.19
  -1  -3   8  -78.49   70.29
  -1  -3   8   19.90   42.70
   1  -3  -8   38.10   63.79
  -1  -3   8    7.90   31.40
   1  -3  -8  101.99   56.49
   1   3  -8   36.10   50.09
  -1   3   8   17.30   63.49
   1   3  -8   19.30   31.80
   1   3  -8  -74.09   33.30
   1   3  -8   45.10   72.19
   0  -3  -8  329.67   64.09
   0  -3   8  202.48   56.59
   0  -3   8  299.97  123.79
   0  -3   8  279.57   71.69
   0  -3  -8  522.45  101.89
   0   3  -8  381.56   91.49
   0   3   8  481.55   80.69
   0   3  -8  355.46   90.79
  -1  -3  -8   80.59   96.79
  -1  -3  -8  126.59   46.90
  -1  -3  -8  -15.90   58.49
   1  -3   8   25.50   59.09
   1  -3   8  -51.29  124.19
  -1   3  -8  -49.30   88.29
  -1   3  -8    2.30   39.30
   1   3   8  175.98   57.49
  -1   3  -8   22.20   48.20
   1   3   8    4.20   67.79
   2  -3   8   34.40  130.69
  -2  -3  -8  103.29   51.59
   2  -3   8   55.79   58.69
  -2  -3  -8  -29.80   57.09
  -2  -3  -8  155.58  103.19
  -2   3  -8   35.20   43.50
  -2   3  -8   38.50   86.79
   2   3   8   -3.50   67.29
  -2   3  -8   92.39   53.09
  -3  -3  -8   13.90   96.99
  -3  -3  -8   -5.40   59.59
  -3  -3  -8   47.00   45.70
   3  -3   8   37.20  131.19
   3  -3   8   27.00   61.19
   3   3   8   10.10   71.59
  -3   3  -8  144.19   96.09
  -3   3  -8  -20.80   46.40
  -3   3  -8   25.50   54.09
   4  -3   8  251.47   69.29
  -4  -3  -8  121.09   63.19
  -4  -3  -8  215.98  113.89
   4  -3   8  -37.50  139.09
  -4  -3  -8  200.18   53.99
  -4   3  -8   63.69   53.39
  -4   3  -8  205.88   62.79
  -4   3  -8  116.39  100.59
   4   3   8  109.69   82.39
  -9   0   9  106.29   64.59
   9   0  -9  264.97   86.59
   8   0  -9   91.29   85.39
  -8   0   9   23.90   62.09
  -7   0   9  257.27   59.69
   7   0  -9  491.45   92.29
  -6   0   9   15.00   36.80
   6   0  -9  -36.10   61.69
  -6   0   9   20.30   57.39
   6   0  -9   37.50   83.59
   5   0  -9   36.30   78.49
   5   0  -9  101.39   71.79
  -5   0   9   81.99   51.69
  -5   0   9   97.69   52.49
   4   0  -9 2964.90  195.18
  -4   0   9 3009.10  191.08
   4   0  -9 3073.39  165.18
   4   0  -9 3173.78  180.48
  -4   0   9 3231.48  169.08
  -3   0   9   21.50   55.19
  -3   0   9  -61.79   77.59
   3   0  -9    8.30   62.69
  -3   0   9   17.90   50.69
   3   0  -9  113.99   93.69
   3   0  -9   32.00   47.20
   2   0  -9  696.83   77.19
   2   0  -9  690.13  101.09
  -2   0   9  529.75   95.29
  -2   0   9  470.25  103.49
  -2   0   9  595.54  104.59
   2   0  -9  657.23   97.29
   2   0  -9  794.62  114.99
  -1   0   9  -43.70  104.49
   1   0  -9   59.69  106.59
   1   0  -9   83.29   61.49
   1   0  -9   -1.70   41.10
  -1   0   9  -12.70   52.49
   1   0  -9  -11.40   39.00
   1   0  -9  -18.00   49.50
   0   0  -9  241.68   42.90
   0   0  -9  224.18   55.79
   0   0  -9  396.46   80.39
   0   0  -9  359.86   63.79
   0   0   9  267.87   56.89
   0   0   9  411.26  115.19
   0   0   9  254.07   55.79
  -1   0  -9 1689.93  106.19
   1   0   9 1569.34  113.39
   1   0   9 1638.94  192.98
  -1   0  -9 1872.01  106.39
   1   0   9 1762.32  141.39
  -1   0  -9 1547.45  127.79
  -1   0  -9 1984.90  201.08
   1   0   9 1580.74  109.19
  -2   0  -9   -0.50   44.30
   2   0   9   28.20   46.70
  -2   0  -9  -44.70   53.79
   2   0   9 -175.08  201.28
  -2   0  -9   85.29  104.49
  -2   0  -9    3.10   37.60
   2   0   9   30.20   44.60
   3   0   9   -8.70   45.20
  -3   0  -9   28.50   45.50
  -3   0  -9   73.59  112.29
   3   0   9    7.30  108.49
  -3   0  -9  -21.10   48.70
  -3   0  -9   47.40   39.80
   4   0   9   70.39   51.29
  -4   0  -9   -5.30  114.39
  -4   0  -9  117.59   55.19
  -4   0  -9   84.89   48.40
   4   0   9  151.08  107.39
   4   0   9  134.99   42.10
  -5   0  -9   14.20   52.39
   5   0   9  130.39  114.99
  -5   0  -9    4.70   49.00
  -5   0  -9   29.80  118.69
   5   0   9    4.10   42.10
  -6   0  -9   49.20   54.19
   6   0   9  216.28  111.99
  -6   0  -9   -4.20  119.19
   6   0   9   59.59   44.60
  -6   0  -9  107.59   52.39
   7   0   9  323.97  117.39
  -7   0  -9   86.19   58.29
  -7   0  -9  -26.30  136.99
   7   0   9  102.59   50.59
  -7   0  -9   37.20   61.09
  -9  -1   9   73.89   63.49
   9  -1  -9   62.79   85.39
   9   1  -9  116.99   78.89
  -9   1   9  112.99   69.69
   8  -1  -9   47.30   91.09
   8  -1  -9   34.60   59.99
  -8  -1   9   16.40   59.49
  -8   1   9   44.50   59.89
   8   1  -9  108.49   81.79
  -7  -1   9   92.69   62.69
   7  -1  -9  108.09   58.99
   7  -1  -9   76.29   78.99
  -7   1   9   78.29   62.69
   7   1  -9   76.09   79.79
  -6  -1   9  914.11   99.19
   6  -1  -9  692.93  132.69
   6  -1  -9  667.53  103.59
  -6  -1   9  961.30  111.69
  -6   1   9  789.32   78.89
   6   1  -9 1019.80  138.99
  -6   1   9  914.41  100.49
   6   1  -9  871.71   84.69
  -5  -1   9  572.64   83.59
   5  -1  -9  635.24  127.19
   5  -1  -9  742.93  150.58
  -5  -1   9  565.74  123.29
   5   1  -9  548.35  114.19
  -5   1   9  726.93   85.29
   5   1  -9  743.83  108.69
  -5   1   9  652.43   84.89
  -4  -1   9  405.36   82.09
   4  -1  -9  471.15  104.39
  -4  -1   9  321.77   90.49
   4  -1  -9  283.27   71.49
   4   1  -9  534.65  107.29
  -4   1   9  469.95   92.09
   4   1  -9  354.86   68.39
  -4   1   9  371.46   65.39
   4   1  -9  415.16   88.69
   4   1  -9  727.43  119.19
   3  -1  -9  610.44  112.89
  -3  -1   9  750.52  103.99
  -3  -1   9  514.05   87.99
   3  -1  -9  602.54  113.19
  -3  -1   9  656.23  149.39
   3   1  -9  585.24  108.99
  -3   1   9  544.95  107.49
   3   1  -9  492.35   94.99
   3   1  -9  627.54   76.49
   3   1  -9  669.93  101.09
   2  -1  -9  521.95  100.19
   2  -1  -9  698.53  105.69
   2  -1  -9  564.64  124.99
   2  -1  -9  572.04   88.29
  -2  -1   9  591.04   90.19
  -2  -1   9  609.14   69.59
  -2  -1   9  486.95  106.89
   2   1  -9  779.22   96.09
  -2   1   9  572.94  127.79
   2   1  -9  455.55  102.59
   2   1  -9  676.13   69.79
   2   1  -9  703.63  107.79
  -2   1   9  725.13  112.39
   1  -1  -9  453.85   57.79
   1  -1  -9  654.23  142.39
   1  -1  -9  411.06   73.59
  -1  -1   9  702.93  113.79
   1  -1  -9  575.74   96.39
  -1  -1   9  458.35  107.79
   1  -1  -9  439.96   67.19
  -1  -1   9  496.35   93.29
  -1   1   9  535.25   94.29
  -1   1   9  395.16   92.79
   1   1  -9  554.54   62.49
   1   1  -9  419.86   93.69
   1   1  -9  463.75   98.39
   0  -1  -9  123.49   27.20
   0  -1   9  178.38  112.29
   0  -1  -9  155.48  132.89
   0  -1  -9  125.79   57.39
   0  -1   9  108.19   64.19
   0  -1  -9  106.79   54.59
   0  -1   9   67.79   53.29
   0   1   9   97.99   61.49
   0   1   9  135.89   58.69
   0   1   9   76.29   89.89
   0   1  -9  108.19   44.80
   0   1  -9  156.58   34.60
   0   1  -9  159.88   33.00
   0   1  -9   84.39  113.19
   0   1  -9   57.19   53.59
  -1  -1  -9 1393.56  240.98
   1  -1   9 1077.09  105.99
   1  -1   9  772.82  174.48
  -1  -1  -9 1009.10  115.59
  -1  -1  -9 1162.48   70.59
  -1  -1  -9 1072.59   95.79
  -1   1  -9 1069.49  112.99
  -1   1  -9 1021.70   99.49
  -1   1  -9 1225.28   69.69
  -1   1  -9 1200.28  194.88
   1   1   9 1201.58   82.99
   1   1   9 1101.89  107.19
  -1   1  -9 1153.98   72.29
  -2  -1  -9  753.22  192.48
  -2  -1  -9  851.71   95.89
   2  -1   9  853.71  195.08
   2  -1   9  844.62   98.29
  -2  -1  -9  770.42  102.09
  -2   1  -9  584.84  104.49
  -2   1  -9  854.81  184.18
  -2   1  -9  757.52   97.29
  -2   1  -9  846.82   59.89
   2   1   9  840.82  157.38
   2   1   9  886.51   71.69
  -3  -1  -9  136.49   52.49
  -3  -1  -9  109.69   56.39
   3  -1   9   95.19   36.00
   3  -1   9  135.49   46.30
   3  -1   9  141.19  116.89
  -3  -1  -9  193.58  116.99
   3   1   9  168.58   36.40
  -3   1  -9  152.68  107.09
  -3   1  -9  146.39   49.80
   3   1   9  126.29   93.99
  -3   1  -9  148.59   33.50
  -3   1  -9  145.29   55.09
   4  -1   9  394.56   86.99
   4  -1   9  243.38   43.90
  -4  -1  -9  253.67   53.49
  -4  -1  -9  254.27   55.19
   4  -1   9  235.38  121.29
  -4  -1  -9  239.28  115.39
  -4   1  -9  327.27   56.39
  -4   1  -9  293.17   55.79
   4   1   9  382.36   65.19
  -4   1  -9  265.47   57.99
   4   1   9  371.26  101.19
  -4   1  -9  136.99  116.39
  -5  -1  -9   79.09  125.59
   5  -1   9   16.20   49.00
   5  -1   9 -130.89  110.69
   5  -1   9   75.09   45.40
  -5  -1  -9  176.08   60.69
  -5  -1  -9  105.29   53.99
   5   1   9  139.89   41.30
  -5   1  -9  132.69   54.49
  -5   1  -9  -69.49  114.69
   5   1   9   91.39   95.49
   6  -1   9   19.70  103.39
   6  -1   9  124.59   49.60
  -6  -1  -9  137.99  125.49
   6  -1   9  -77.29   47.40
  -6  -1  -9   85.19   62.29
  -6  -1  -9   57.49   54.49
   6   1   9   80.29   43.70
  -6   1  -9   73.09   58.79
  -6   1  -9  110.49  114.29
  -6   1  -9  107.19   46.40
   6   1   9  100.69   99.39
   8  -2  -9  122.69   92.09
  -8  -2   9  206.48   72.59
   8  -2  -9  255.07   86.59
   8  -2  -9  156.58   88.19
   8   2  -9  325.17   89.99
  -8   2   9  248.48   68.79
   7  -2  -9  244.58   85.39
  -7  -2   9   88.49   77.29
   7  -2  -9  485.85  153.68
  -7  -2   9  165.88   45.00
  -7  -2   9  213.88   69.89
  -7   2   9  233.58   69.99
   7   2  -9  272.17   75.89
   6  -2  -9   22.40   75.39
  -6  -2   9  -62.79   81.59
  -6  -2   9  -28.50   58.99
  -6   2   9  -21.10   58.39
   6   2  -9  -77.09   64.89
   6   2  -9   29.40   57.59
   5  -2  -9  130.89   72.79
   5  -2  -9   68.59   79.79
  -5  -2   9  107.69   56.09
  -5  -2   9  127.49   95.29
   5   2  -9  100.69   57.19
   5   2  -9   94.69   64.19
   5   2  -9  106.69   68.59
   5   2  -9   48.00   44.80
  -5   2   9  107.69   55.09
   4  -2  -9   91.99   58.29
   4  -2  -9   98.69   84.99
  -4  -2   9   99.89   49.80
   4  -2  -9   62.59   59.39
  -4  -2   9  112.69   99.09
   4   2  -9   65.59   52.69
  -4   2   9   73.49   59.99
   4   2  -9  116.09   73.79
   4   2  -9  108.19   66.29
   4   2  -9  108.59   45.10
  -3  -2   9 1021.10  179.08
   3  -2  -9  973.10  112.59
   3  -2  -9 1180.88  114.09
  -3   2   9 1061.79  112.79
   3   2  -9 1027.80  142.59
   3   2  -9 1055.79   80.69
   3   2  -9  810.52  100.39
   3   2  -9 1080.79  117.99
   2  -2  -9  234.98   57.49
  -2  -2   9  108.99  130.89
  -2  -2   9  270.77   56.19
   2  -2  -9  151.98   67.09
   2  -2  -9  252.07   96.09
   2  -2  -9  153.48   28.20
  -2  -2   9  189.88   40.30
   2   2  -9  141.89   49.40
   2   2  -9  169.78   46.60
   2   2  -9  143.69   86.59
   2   2  -9  258.47   52.39
  -2   2   9  163.78   71.99
  -1  -2   9  138.79   29.40
  -1  -2   9  122.99   49.10
   1  -2  -9  299.57   61.39
  -1  -2   9  209.18   65.19
   1  -2  -9  165.78   64.69
   1  -2  -9  268.17  102.29
  -1  -2   9  122.89  108.39
   1   2  -9   10.50  156.68
   1   2  -9  130.09   28.20
   1   2  -9  220.68   59.49
  -1   2   9  260.27   78.59
   1   2  -9  203.98   51.79
   0  -2   9  839.92  120.19
   0  -2  -9  807.62  108.49
   0  -2  -9  785.72   93.29
   0  -2  -9  786.52  165.08
   0  -2   9  815.32  194.48
   0   2  -9  820.22  154.68
   0   2  -9  806.82   90.09
   0   2   9  832.22  133.09
   0   2  -9  771.72  101.29
  -1  -2  -9  145.49   52.49
  -1  -2  -9   57.39  108.49
  -1  -2  -9    6.60   55.79
   1  -2   9   34.00  107.19
   1  -2   9   49.20   52.39
  -1   2  -9   52.79   48.00
  -1   2  -9   76.29   45.00
  -1   2  -9   79.09   97.49
   1   2   9  120.69   75.59
  -2  -2  -9  328.47  113.69
  -2  -2  -9  186.88   52.79
  -2  -2  -9  313.97   67.89
   2  -2   9   71.69  108.59
   2  -2   9  223.38   61.39
   2   2   9  280.77   74.39
  -2   2  -9  205.28   55.19
  -2   2  -9  208.08   52.59
  -2   2  -9  139.29  101.79
  -3  -2  -9  231.78   61.39
  -3  -2  -9  249.78   53.89
  -3  -2  -9  364.66  140.19
   3  -2   9  238.38  115.19
   3  -2   9  330.37   62.49
  -3   2  -9  215.78  103.09
  -3   2  -9  213.38   48.70
   3   2   9  245.58   77.19
  -3   2  -9  241.68   55.09
  -4  -2  -9   83.69   57.69
   4  -2   9   70.09  124.09
  -4  -2  -9  182.98   53.49
  -4  -2  -9  202.98  126.69
   4  -2   9   61.59   49.80
   4   2   9   77.39   75.59
   4   2   9  119.69   28.70
  -4   2  -9  132.19   54.59
  -4   2  -9   68.39   47.10
  -4   2  -9  128.79  106.69
   5  -2   9  101.09  123.09
  -5  -2  -9  179.48   64.39
   5  -2   9  167.58   56.29
  -5  -2  -9  170.08   56.69
  -5  -2  -9  234.88  145.09
  -5   2  -9  188.18  109.09
  -5   2  -9  167.58   59.59
   5   2   9  191.68   81.79
   5   2   9  245.88   60.19
  -5   2  -9  189.88   58.39
   6  -3  -9   24.40   69.09
  -6  -3   9   -0.80  119.19
   6  -3  -9  153.18   90.09
   6  -3  -9  390.86   85.99
   6  -3  -9    6.80   85.59
  -6  -3   9  224.58   64.89
   6  -3  -9  244.88   78.09
  -6  -3   9  195.68   64.89
   6   3  -9   57.29   58.09
   6   3  -9  166.98   74.39
   5  -3  -9   37.20   88.79
   5  -3  -9  510.45  111.59
  -5  -3   9   73.39   60.99
   5  -3  -9  120.09   47.80
   5  -3  -9   43.80   70.09
  -5  -3   9  191.88   59.89
  -5  -3   9   -6.70  117.19
   5   3  -9  183.58   70.69
  -4  -3   9   36.00   50.69
   4  -3  -9   23.10   70.49
  -4  -3   9   11.60  117.99
   4  -3  -9   77.49   39.40
   4  -3  -9   -0.80   83.59
   4   3  -9   37.30   76.19
   4   3  -9   63.29   38.80
  -4   3   9  -41.50   59.79
   4   3  -9   69.79   51.59
   4   3  -9  101.69   40.60
  -3  -3   9  101.69   47.10
   3  -3  -9  262.57   60.19
  -3  -3   9  271.77  121.39
   3  -3  -9   32.60   70.29
   3  -3  -9   99.99   79.19
   3   3  -9  124.59   77.49
   3   3  -9  158.88   58.79
   3   3  -9  101.89   42.70
  -3   3   9  112.19   66.29
   2  -3  -9  268.07   92.89
   2  -3  -9  485.85  104.29
  -2  -3   9  189.28   42.30
  -2  -3   9  285.07  124.69
   2  -3  -9  153.38   65.79
  -2   3   9  165.38   68.69
   2   3  -9  231.08   83.69
   2   3  -9  180.08   56.39
   2   3  -9  126.59   39.40
   1  -3  -9   53.29   59.89
  -1  -3   9 -143.79  122.99
   1  -3  -9  -23.70   65.19
  -1  -3   9   27.60   27.00
   1  -3  -9  142.89   94.99
  -1  -3   9   41.20   46.90
  -1  -3   9  -83.59   75.19
   1   3  -9   65.69   40.90
   1   3  -9   72.39   57.29
   1   3  -9    1.40   83.19
  -1   3   9   45.50   68.39
   0  -3   9  250.67  130.19
   0  -3  -9  187.88   58.59
   0  -3  -9  285.57   98.19
   0  -3   9  137.09   57.69
   0  -3   9   81.59   64.19
   0   3  -9  234.78   53.99
   0   3  -9  240.18   90.59
   0   3   9  111.19   70.29
   0   3  -9  373.96   69.99
   1  -3   9    8.10  125.59
  -1  -3  -9  132.19  109.29
  -1  -3  -9  -63.09   61.39
   1  -3   9   67.39   65.19
  -1  -3  -9  128.19   50.39
  -1   3  -9   21.00   48.80
   1   3   9   72.99   73.49
  -1   3  -9   -5.70   88.49
  -1   3  -9   61.99   44.00
  -2  -3  -9  108.49   95.69
  -2  -3  -9  163.68   57.59
   2  -3   9   73.49   57.09
  -2  -3  -9   66.39   58.59
   2  -3   9  -38.20  127.79
  -2   3  -9   56.09   91.29
  -2   3  -9   67.79   46.50
   2   3   9   49.30   81.79
  -2   3  -9   61.29   55.59
  -3  -3  -9   54.99  111.19
   3  -3   9   34.20  127.09
   3  -3   9   85.39   60.69
  -3  -3  -9    7.20   63.09
  -3  -3  -9   78.69   48.70
  -3   3  -9   48.10   50.79
  -3   3  -9   44.80   98.69
   3   3   9   39.00   79.79
  -3   3  -9   42.30   51.09
  -9   0  10  -23.70   63.49
   9   0 -10   38.40   83.19
   8   0 -10  -53.79   79.29
  -8   0  10  -18.70   60.49
  -7   0  10  124.09   62.59
   7   0 -10  193.18   79.99
  -6   0  10  126.19   42.20
   6   0 -10   65.19   76.69
   6   0 -10  141.89   71.79
  -6   0  10   27.50   52.99
  -5   0  10  440.36  100.79
   5   0 -10  275.87   81.69
   5   0 -10  338.47   78.99
  -5   0  10  263.57   58.49
  -4   0  10  322.47   59.09
  -4   0  10  325.27   79.29
   4   0 -10  234.58   70.99
   4   0 -10  300.37   87.19
   3   0 -10 2286.07  151.68
  -3   0  10 2300.67  136.29
   3   0 -10 2320.17  157.18
   3   0 -10 2371.76  135.29
   3   0 -10 2424.86  190.48
  -3   0  10 2443.86  177.38
   2   0 -10 7270.67  361.06
   2   0 -10 7730.93  346.57
   2   0 -10 7261.27  355.96
  -2   0  10 7653.73  385.96
   1   0 -10 4186.18  217.18
  -1   0  10 3938.81  262.27
   1   0 -10 3838.92  259.27
   1   0 -10 4192.18  206.78
   1   0 -10 4201.68  200.68
   0   0 -10 1894.41  142.89
   0   0 -10 2563.74  204.38
   0   0 -10 1964.50  125.29
   0   0  10 2196.08  141.99
   0   0  10 2262.27  213.38
   0   0 -10 2164.38  121.69
   0   0 -10 2335.47  128.79
  -1   0 -10 2633.74  214.28
   1   0  10 2323.27  142.39
   1   0  10 2250.67  219.78
  -1   0 -10 2107.99  130.69
  -1   0 -10 2227.88  130.09
   1   0  10 2341.37  135.39
  -1   0 -10 2257.17  146.39
   2   0  10  -14.00   43.90
  -2   0 -10    9.80   39.20
  -2   0 -10  -44.40   47.70
   2   0  10  -17.20  101.99
   2   0  10    5.80   44.30
  -2   0 -10   -8.70   50.89
  -2   0 -10   47.60  106.69
  -3   0 -10   92.09  112.39
   3   0  10   22.60   41.50
  -3   0 -10   55.59   40.10
   3   0  10   31.80   44.10
  -3   0 -10   16.50   53.79
   3   0  10   17.40  107.19
  -3   0 -10   26.80   46.60
   4   0  10  -18.10  107.89
  -4   0 -10   29.90   46.00
   4   0  10   -8.40   42.10
  -4   0 -10  -59.49  116.59
  -4   0 -10  -16.80   55.49
  -5   0 -10  216.08  125.99
  -5   0 -10  304.47   57.09
   5   0  10  170.68  115.79
  -5   0 -10  327.87   61.79
   5   0  10  411.76   81.19
  -6   0 -10   55.79   54.29
   6   0  10   23.20   46.20
   6   0  10  102.59  110.99
  -6   0 -10   22.70   56.29
  -6   0 -10   80.19  128.29
   9  -1 -10   84.39   93.19
  -9  -1  10   38.10   62.99
   9   1 -10  101.69   82.39
  -9   1  10   93.19   62.39
   8  -1 -10   75.09   91.69
   8  -1 -10   50.59   87.29
  -8  -1  10  -58.09   61.89
   8  -1 -10   74.29   61.59
   8   1 -10   27.90   83.39
  -8   1  10   11.70   63.19
  -7  -1  10   91.49   57.39
   7  -1 -10  275.47  102.59
   7  -1 -10   97.49   82.69
   7   1 -10   24.80   76.69
  -7   1  10   26.20   55.19
  -6  -1  10  539.45  119.39
   6  -1 -10  805.92  172.28
  -6  -1  10  447.46   90.99
   6  -1 -10  338.47   82.59
   6   1 -10  458.25   81.59
  -6   1  10  429.86   68.79
   6   1 -10  469.95   95.49
  -6   1  10  376.86   58.79
  -5  -1  10   69.39   52.29
  -5  -1  10   74.09   86.29
   5  -1 -10  287.67  111.99
   5  -1 -10  106.89   72.49
   5   1 -10  113.89   77.59
   5   1 -10   79.09   61.79
  -5   1  10  143.29   57.29
  -5   1  10   95.89   57.99
   4  -1 -10  128.79   69.19
  -4  -1  10   70.89   50.49
  -4  -1  10   76.69   86.39
   4  -1 -10   -2.90  116.99
   4   1 -10  123.79   49.60
   4   1 -10  115.39   79.49
   4   1 -10  145.09   67.79
   4   1 -10   51.59   59.59
  -4   1  10   22.50   59.39
  -4   1  10  146.69   64.99
  -3  -1  10 1466.45  122.69
  -3  -1  10 1453.75  174.48
   3  -1 -10 1512.55  124.29
  -3  -1  10 1446.06  101.39
   3  -1 -10 1472.65  237.08
   3  -1 -10 1495.55  128.19
   3   1 -10 1274.57  166.78
  -3   1  10 1309.37  130.99
   3   1 -10 1299.87  123.89
   3   1 -10 1336.47   96.39
   3   1 -10 1386.36  119.79
   2  -1 -10 1361.66  212.58
   2  -1 -10  954.80  109.79
   2  -1 -10  975.10   90.19
   2  -1 -10  955.60  102.69
  -2  -1  10 1152.68  178.88
  -2  -1  10 1045.30   79.69
  -2  -1  10  955.40   97.69
   2   1 -10  742.53  130.09
  -2   1  10 1054.19  131.69
   2   1 -10  934.91  107.09
   2   1 -10 1207.38  112.59
   2   1 -10 1030.60   77.69
   1  -1 -10  553.44   90.79
  -1  -1  10  906.71  117.39
   1  -1 -10  647.94  132.39
  -1  -1  10  624.54  118.69
  -1  -1  10  608.24   93.89
   1  -1 -10  683.23  101.39
   1  -1 -10  540.95   65.49
   1   1 -10  656.13  118.69
   1   1 -10  534.95   96.19
   1   1 -10  517.25   92.79
   1   1 -10  762.62   66.89
  -1   1  10  653.63   99.99
   0  -1 -10  134.69  137.29
   0  -1 -10   56.49   56.59
   0  -1 -10  190.18   52.89
   0  -1 -10  155.38   29.70
   0  -1  10  137.79   59.79
   0  -1  10  322.17  117.49
   0   1 -10   62.39   59.99
   0   1 -10  143.59   46.50
   0   1 -10  178.88   35.70
   0   1 -10  177.18  114.59
   0   1 -10  172.48   38.70
   0   1  10  137.09   91.49
  -1  -1 -10  120.09   29.80
   1  -1  10  148.39   55.19
  -1  -1 -10   96.99   59.99
   1  -1  10  103.79  119.79
  -1  -1 -10  131.89   53.99
  -1  -1 -10  231.38  138.59
   1   1  10  171.58   39.60
  -1   1 -10  128.99   58.99
  -1   1 -10  149.39   35.30
  -1   1 -10  117.89   53.49
  -1   1 -10   57.09  115.79
  -1   1 -10  164.78   31.70
   1   1  10  123.69   92.99
   2  -1  10 1392.06  209.58
  -2  -1 -10 1678.93  124.69
   2  -1  10 1636.04  125.09
  -2  -1 -10 1753.82  221.88
  -2  -1 -10 1520.85  118.59
  -2   1 -10 1621.94  126.99
  -2   1 -10 1471.85   90.19
   2   1  10 1651.73   97.39
   2   1  10 1618.84  183.48
  -2   1 -10 1550.54   88.59
  -2   1 -10 1610.04  114.39
  -2   1 -10 1579.24  209.78
  -3  -1 -10  137.69   53.39
   3  -1  10  182.48   52.29
   3  -1  10   77.29  119.89
   3  -1  10  123.09   38.20
  -3  -1 -10   99.69   52.99
  -3  -1 -10  137.19  117.19
   3   1  10  161.48   95.29
  -3   1 -10   80.69  109.59
  -3   1 -10  133.19   46.80
   3   1  10  296.37   62.29
  -3   1 -10  155.38   36.00
  -3   1 -10  156.88   52.89
   4  -1  10  -95.39  110.49
  -4  -1 -10   41.10   49.80
   4  -1  10   45.00   38.40
  -4  -1 -10   67.99   56.19
  -4  -1 -10   16.80  120.69
   4  -1  10   22.30   44.30
   4   1  10   82.89   94.59
  -4   1 -10   14.00   37.00
  -4   1 -10   17.20   42.50
  -4   1 -10   -7.60  110.39
  -4   1 -10   44.00   53.19
   4   1  10   44.90   35.70
   5  -1  10   54.59  110.29
   5  -1  10  125.79   53.09
   5  -1  10  -16.00   46.40
  -5  -1 -10   57.09   55.59
  -5  -1 -10   78.39   56.29
  -5  -1 -10  -22.20  127.79
   5   1  10   66.39   41.00
  -5   1 -10  118.29   46.30
  -5   1 -10  127.69  116.39
  -5   1 -10   89.59   55.59
   5   1  10  135.19  100.89
  -6  -1 -10  136.49   65.59
  -6  -1 -10   99.39   56.39
   6  -1  10  -72.99  118.39
  -6  -1 -10  -60.89  126.39
   6  -1  10   32.70   46.10
   6   1  10   88.09   46.50
   6   1  10  108.09  101.59
  -6   1 -10   62.59   57.39
  -6   1 -10  104.99   46.30
  -6   1 -10    0.60  117.39
   8  -2 -10  160.28   92.39
   8  -2 -10  143.19   91.39
  -8  -2  10  148.99   68.59
  -8  -2  10  165.28   42.60
   8   2 -10  251.67   82.59
  -8   2  10  233.78   72.79
  -7  -2  10   40.00   41.90
  -7  -2  10  123.99   66.29
   7  -2 -10  256.67   74.19
   7  -2 -10  102.49   81.49
  -7  -2  10 -171.68   83.69
   7   2 -10 -142.99   77.49
  -7   2  10   17.80   69.69
   7   2 -10   29.20   62.29
  -6  -2  10   21.50   85.69
   6  -2 -10  102.89  111.79
  -6  -2  10  123.59   58.19
   6  -2 -10  132.29   72.89
   6   2 -10  136.09   65.79
  -6   2  10  119.99   59.09
   6   2 -10   10.40   73.09
  -5  -2  10  272.77   98.59
  -5  -2  10  267.67   57.09
   5  -2 -10  224.08   77.99
   5  -2 -10  390.96  102.19
   5  -2 -10  326.97   72.49
  -5   2  10  259.77   62.79
   5   2 -10  268.67   65.69
   5   2 -10  174.78   63.79
   5   2 -10  247.28  120.79
   4  -2 -10  237.98   95.49
  -4  -2  10  194.48   49.80
   4  -2 -10  176.38   64.09
  -4  -2  10  172.28  100.69
   4  -2 -10  154.38   69.79
   4   2 -10  196.28   60.69
   4   2 -10  205.38   50.89
  -4   2  10  247.98   66.59
   4   2 -10  228.88   82.49
   4   2 -10  240.48   69.29
   3  -2 -10  932.41  108.19
   3  -2 -10  703.53  168.58
  -3  -2  10  720.53   81.39
  -3  -2  10  701.73  123.29
   3  -2 -10  845.22  112.09
   3   2 -10 1061.69  150.48
   3   2 -10  747.63  101.09
  -3   2  10 1104.69  123.19
   3   2 -10  878.41   72.49
   3   2 -10  933.21  110.09
   2  -2 -10  160.98   40.00
   2  -2 -10   93.09   92.79
  -2  -2  10  170.48   55.69
   2  -2 -10  162.28   60.89
  -2  -2  10  227.58  111.09
   2  -2 -10  179.58   61.89
  -2  -2  10  165.28   38.60
   2   2 -10   88.39   85.59
   2   2 -10  142.49   46.60
   2   2 -10  178.68   57.39
   2   2 -10  154.78   36.30
  -2   2  10   91.59   67.79
  -1  -2  10  246.18   71.09
   1  -2 -10  200.98   60.39
  -1  -2  10  227.78   53.79
  -1  -2  10  252.07  116.09
  -1  -2  10  231.18   33.40
   1  -2 -10  337.57  102.69
   1  -2 -10  257.57   63.29
  -1   2  10  172.08   75.19
   1   2 -10  191.78   91.69
   1   2 -10  406.56  100.19
   1   2 -10  239.08   53.69
   1   2 -10  334.67   42.60
   0  -2  10  105.19  108.09
   0  -2  10   69.99   64.69
   0  -2 -10  229.38  108.29
   0  -2 -10  128.49   61.69
   0  -2 -10  105.99   49.40
   0   2 -10  112.09   53.49
   0   2 -10   74.19   97.89
   0   2 -10   92.59   53.99
   0   2  10   78.29   68.59
   1  -2  10  588.34  110.09
  -1  -2 -10  519.35   91.59
   1  -2  10  326.17  114.79
  -1  -2 -10  581.84   92.09
  -1  -2 -10  525.35  113.89
  -1   2 -10  473.75   88.69
  -1   2 -10  361.76  102.69
  -1   2 -10  469.95   89.49
   1   2  10  264.17   72.49
   2  -2  10   70.89   52.69
  -2  -2 -10  101.69   54.19
   2  -2  10  -43.50  110.69
  -2  -2 -10   12.30   58.89
  -2  -2 -10   34.90  134.09
  -2   2 -10    5.20  101.99
  -2   2 -10   37.90   51.49
  -2   2 -10   16.90   46.90
   2   2  10  105.69   76.49
  -3  -2 -10  625.94  143.49
  -3  -2 -10  465.25   93.59
   3  -2  10  257.67  119.79
  -3  -2 -10  554.24   95.49
   3  -2  10  496.65  101.59
  -3   2 -10  403.96  114.59
  -3   2 -10  520.75   95.09
  -3   2 -10  445.06   93.59
   3   2  10  550.44  126.69
   4  -2  10  -18.00  118.39
  -4  -2 -10  396.96  150.58
  -4  -2 -10  156.98   52.69
  -4  -2 -10  181.38   62.49
   4  -2  10  235.38   64.39
  -4   2 -10  151.88   51.09
  -4   2 -10  126.69  113.29
  -4   2 -10  124.79   54.09
   4   2  10  203.38   77.39
   5  -2  10  169.78  137.89
  -5  -2 -10  309.87   70.29
  -5  -2 -10  282.57  131.39
   5  -2  10  487.05   98.69
  -5  -2 -10  283.47   62.19
   5   2  10  139.09   84.69
  -5   2 -10  307.87  119.39
  -5   2 -10  235.18   59.09
  -5   2 -10  196.78   58.99
   5  -3 -10   94.49   91.89
   5  -3 -10   31.80   71.89
  -5  -3  10    1.60  125.69
  -5  -3  10   60.09   60.79
   5  -3 -10   16.70   45.80
   5   3 -10   82.49   63.99
  -4  -3  10   92.69   54.49
  -4  -3  10  -11.60  125.79
   4  -3 -10   71.79   39.70
   4  -3 -10   35.40   64.99
   4  -3 -10  131.39   94.29
  -4   3  10   46.40   61.59
   4   3 -10   46.70   72.59
   4   3 -10  100.19   40.80
   4   3 -10   78.89   58.19
  -3  -3  10   72.19  125.99
   3  -3 -10  279.87   97.99
   3  -3 -10  132.49   62.39
   3  -3 -10  267.97   58.89
   3  -3 -10   63.59   70.19
  -3  -3  10   94.39   48.00
   3   3 -10  140.19   56.49
   3   3 -10   95.99   79.79
   3   3 -10   80.79   42.50
  -3   3  10   66.09   64.59
   2  -3 -10  109.29   99.89
  -2  -3  10   81.89  124.99
   2  -3 -10   98.09   69.49
  -2  -3  10   -7.90   38.80
   2  -3 -10    8.40   57.79
   2   3 -10  -81.09   35.60
   2   3 -10   21.60   80.69
  -2   3  10   31.20   66.39
   2   3 -10   47.10   55.79
  -1  -3  10   46.30   72.29
  -1  -3  10  205.58   57.19
   1  -3 -10  279.47  100.59
  -1  -3  10  231.68  133.19
   1  -3 -10  213.48   64.19
   1  -3 -10   98.29   62.49
  -1   3  10  167.98   79.49
   1   3 -10  343.47   75.39
   1   3 -10  155.38   91.39
   1   3 -10  143.99   55.19
   0  -3  10  165.88  127.39
   0  -3 -10  368.16  107.09
   0  -3  10  140.39   70.19
   0  -3 -10  243.98   61.09
   0   3 -10  319.17   74.89
   0   3 -10  351.26   96.99
   0   3  10  160.38   70.19
   0   3 -10  303.17   58.59
  -1  -3 -10   75.49   52.49
   1  -3  10  -16.80  129.69
   1  -3  10   39.00   71.19
  -1  -3 -10   30.90   62.49
  -1  -3 -10   60.59   97.19
   1   3  10  -27.50   78.49
  -1   3 -10   10.90   46.80
  -1   3 -10   -1.90   90.89
  -1   3 -10   -4.60   53.69
  -2  -3 -10   88.29   58.59
  -2  -3 -10   51.19   61.99
   2  -3  10  -69.09  123.59
  -2  -3 -10   54.79  118.59
   2  -3  10   49.30   65.69
   2   3  10   64.49   80.59
  -2   3 -10   45.80   54.59
  -2   3 -10   -8.50   95.59
  -2   3 -10   56.59   49.70
  -3  -3 -10   35.80   65.59
   3  -3  10   93.39   56.49
  -3  -3 -10   67.09  116.29
  -3  -3 -10   89.89   50.79
  -3   3 -10   43.20   99.89
  -3   3 -10   83.39   51.89
   3   3  10   52.59   82.19
   9   0 -11  950.50  151.18
  -9   0  11  789.92  111.59
   8   0 -11   10.70   80.89
  -8   0  11   30.80   62.89
   7   0 -11  234.58   82.39
   7   0 -11   67.29   74.49
  -7   0  11  258.27   63.69
  -7   0  11  275.07   55.69
   6   0 -11 1307.67  141.59
  -6   0  11 1473.85  103.69
  -6   0  11 1374.66  117.29
   6   0 -11 1144.19  145.89
   5   0 -11   17.30   84.39
  -5   0  11   48.50   68.19
   5   0 -11   22.10   63.59
  -5   0  11  -25.40   53.59
  -4   0  11 1638.64  112.99
   4   0 -11 1581.84  135.49
  -4   0  11 1623.24  148.49
   4   0 -11 1569.44  160.68
   3   0 -11 3455.25  197.28
   3   0 -11 3477.75  233.38
  -3   0  11 3432.06  224.38
   3   0 -11 3820.92  203.78
  -3   0  11 3534.05  183.38
   2   0 -11  467.35   87.79
   2   0 -11  379.26   73.89
  -2   0  11  507.15  100.89
   2   0 -11  295.17   57.79
   2   0 -11  533.35  113.79
   2   0 -11  570.14  120.89
  -1   0  11  759.72  128.29
   1   0 -11  638.34   88.89
   1   0 -11  695.63   74.19
   1   0 -11  596.74   82.19
   1   0 -11  594.54  117.59
   1   0 -11  770.42  109.09
   0   0 -11   19.00   39.30
   0   0 -11  -99.89   63.39
   0   0 -11   55.29   44.30
   0   0  11  -64.79  103.59
   0   0  11  113.69   54.19
   0   0 -11   -0.10  108.99
   0   0 -11  -12.30   48.50
   1   0  11  837.52  182.68
  -1   0 -11  954.50  179.78
  -1   0 -11  715.33   79.79
  -1   0 -11  720.13  103.29
   1   0  11  751.52  103.19
  -1   0 -11  763.12   79.99
  -2   0 -11   58.49  112.99
  -2   0 -11  157.48   42.20
   2   0  11  182.28   47.20
  -2   0 -11  104.29   49.30
  -2   0 -11  141.79   54.09
   2   0  11   79.09   47.70
   2   0  11  145.09  115.39
  -3   0 -11   89.09   43.00
  -3   0 -11  101.39   58.69
  -3   0 -11  129.29   50.29
   3   0  11   84.69  106.89
  -3   0 -11  249.28  122.29
   3   0  11  119.79   50.09
   3   0  11  105.39   48.10
  -4   0 -11   26.30   55.29
  -4   0 -11   47.70  119.09
   4   0  11   42.60   42.20
  -4   0 -11   48.90   48.90
   4   0  11   33.70  109.79
   5   0  11  141.29  110.69
  -5   0 -11  -21.10  124.19
  -5   0 -11  243.78   57.59
   5   0  11  182.48   50.59
  -5   0 -11  206.08   58.09
  -6   0 -11  174.48   65.29
  -6   0 -11  157.08   62.29
  -6   0 -11   88.99  141.29
   6   0  11  234.38  112.89
   6   0  11  147.79   49.80
   8  -1 -11   66.99   67.59
   8  -1 -11 -183.48   90.79
  -8  -1  11   82.09   67.39
   8  -1 -11   49.40   84.19
   8   1 -11   44.30   84.89
  -8   1  11   53.69   59.59
  -7  -1  11  277.97   58.19
   7  -1 -11  267.17  116.79
   7  -1 -11  165.28   84.29
  -7  -1  11  200.28   61.69
   7   1 -11  233.88   80.79
  -7   1  11  193.38   66.09
   7   1 -11  186.88   50.59
  -7   1  11  117.99   46.60
   6  -1 -11   96.19  113.59
  -6  -1  11   74.89   53.99
   6  -1 -11  175.28   79.59
  -6  -1  11  149.79   83.39
  -6   1  11  156.08   59.49
   6   1 -11   90.09   62.09
  -6   1  11   64.59   51.09
   6   1 -11  145.19   69.19
   5  -1 -11  579.64  154.48
  -5  -1  11  446.56  108.29
   5  -1 -11  409.26   74.09
  -5  -1  11  439.86   82.99
   5   1 -11  426.96   82.99
   5   1 -11  382.06   90.09
   5   1 -11  355.96   70.29
  -5   1  11  495.45  102.09
  -5   1  11  494.15   71.49
  -4  -1  11  429.96   80.69
   4  -1 -11  675.33  129.19
   4  -1 -11  464.55  111.29
  -4  -1  11  367.96   95.09
   4   1 -11  441.56   72.99
   4   1 -11  546.35  111.69
   4   1 -11  375.76   91.79
  -4   1  11  449.36  101.39
   3  -1 -11  720.43  123.19
   3  -1 -11  635.74   92.69
  -3  -1  11  513.35  100.89
   3  -1 -11  717.83  140.29
  -3  -1  11  537.05   75.79
   3   1 -11  713.93  149.49
   3   1 -11  677.13  109.89
  -3   1  11  569.14  125.79
   3   1 -11  710.63   76.19
   3   1 -11  658.03  106.19
   2  -1 -11  940.41  150.98
  -2  -1  11  536.65   70.99
  -2  -1  11  440.96  110.29
   2  -1 -11  679.53  110.69
   2  -1 -11  616.44   95.29
   2  -1 -11  552.54   81.79
  -2   1  11  416.16   94.99
   2   1 -11  314.27  103.29
   2   1 -11  770.42  102.79
   2   1 -11  581.34   98.39
   2   1 -11  588.94   70.89
   1  -1 -11   47.70   34.80
  -1  -1  11   80.19  113.49
   1  -1 -11   21.00   54.79
   1  -1 -11  201.98   67.79
   1  -1 -11   11.70  287.27
  -1  -1  11  193.28   71.19
  -1   1  11   28.40   85.19
   1   1 -11    5.30   48.60
   1   1 -11  136.79   55.59
   1   1 -11   93.79   42.80
   1   1 -11   69.29   37.80
   1   1 -11  154.08  110.29
   0  -1 -11  371.36  141.59
   0  -1 -11  267.27   60.19
   0  -1 -11  196.48   52.59
   0  -1  11  277.67   62.89
   0  -1 -11  220.18   51.99
   0  -1  11  222.88  112.89
   0   1 -11  269.67   53.79
   0   1  11  300.67   96.59
   0   1 -11  234.18   41.70
   0   1 -11  247.38  109.69
   0   1 -11  258.37   54.59
   0   1 -11  212.58   56.89
   1  -1  11  644.24  131.09
  -1  -1 -11  759.32  105.39
  -1  -1 -11  886.21   66.59
  -1  -1 -11  806.92   91.09
  -1  -1 -11  897.11  201.68
   1  -1  11  895.41  111.89
  -1   1 -11  757.02   66.09
  -1   1 -11  931.51   89.69
   1   1  11  470.05  102.29
   1   1  11  718.03   80.89
  -1   1 -11  731.43  112.39
  -1   1 -11  838.02   63.29
  -1   1 -11  606.44  123.69
  -2  -1 -11  385.16   62.09
   2  -1  11  468.15   96.49
   2  -1  11  461.65  123.59
  -2  -1 -11  452.35   99.79
  -2  -1 -11  438.46  127.39
  -2   1 -11  569.04   84.39
  -2   1 -11  460.25   55.29
  -2   1 -11  519.55  130.49
   2   1  11  500.05   71.79
   2   1  11  502.85  102.39
  -2   1 -11  539.05   57.49
  -2   1 -11  415.66   98.19
   3  -1  11  150.38   53.09
  -3  -1 -11   62.29  126.39
  -3  -1 -11  149.79   57.59
   3  -1  11  -46.70  103.99
  -3  -1 -11  122.59   58.59
  -3   1 -11   72.09  114.49
   3   1  11  146.69   95.89
  -3   1 -11  155.68   37.90
  -3   1 -11  120.89   47.60
   3   1  11  271.97   66.99
  -3   1 -11  130.19   57.49
  -4  -1 -11   -6.90   48.10
   4  -1  11   67.19   55.09
   4  -1  11  -39.70   40.00
  -4  -1 -11    8.30  125.69
   4  -1  11  -50.49  101.19
  -4  -1 -11   -9.90   54.29
  -4   1 -11   -4.80   52.49
   4   1  11   -1.30   37.30
   4   1  11   -5.20   94.19
  -4   1 -11   21.40   42.40
  -4   1 -11    2.90   36.90
  -4   1 -11  -13.90  120.19
   5  -1  11 -167.08  116.09
  -5  -1 -11  -71.69  131.09
  -5  -1 -11   20.60   56.19
   5  -1  11   62.49   47.10
   5  -1  11  -46.30   44.90
  -5  -1 -11    5.60   57.19
   5   1  11   94.49   41.40
  -5   1 -11   -9.70   57.99
  -5   1 -11    3.20  122.49
  -5   1 -11   40.90   43.90
   5   1  11  100.19  102.09
   7  -2 -11  146.69   94.59
  -7  -2  11 -104.69   94.59
  -7  -2  11  325.07   69.19
   7  -2 -11  196.48   79.79
  -7   2  11  270.67   70.29
   7   2 -11   12.80   75.99
   7   2 -11  219.18   72.19
  -6  -2  11  -47.30   91.49
   6  -2 -11   35.40   73.89
  -6  -2  11   35.90   56.09
   6  -2 -11  148.49   98.39
  -6   2  11   10.00   56.19
   6   2 -11   -9.60   60.69
   6   2 -11   27.40   74.39
   6   2 -11  -53.19   68.09
   5  -2 -11  260.97   71.49
  -5  -2  11  461.65   80.39
   5  -2 -11  386.06   72.29
   5  -2 -11  500.35  106.09
  -5  -2  11  441.36  104.99
   5   2 -11  412.76   75.09
   5   2 -11  472.95   73.49
  -5   2  11  455.65  102.99
   5   2 -11  530.15   88.09
  -4  -2  11  462.75  113.59
   4  -2 -11  578.04  108.79
   4  -2 -11  491.55   99.19
   4  -2 -11  485.55  114.99
  -4  -2  11  528.05   81.69
   4   2 -11  498.95  104.49
   4   2 -11  621.94   97.39
   4   2 -11  763.12  118.69
  -4   2  11  775.82  108.59
  -3  -2  11  283.27   50.79
   3  -2 -11  370.66  108.69
   3  -2 -11  221.28   64.99
  -3  -2  11  230.48  106.69
   3  -2 -11  237.38   69.49
   3   2 -11  293.37   59.79
   3   2 -11  310.67   92.19
   3   2 -11  298.67   65.49
  -3   2  11  299.27   76.09
   3   2 -11  314.87   60.89
  -2  -2  11   33.10   34.90
   2  -2 -11   92.69   64.99
  -2  -2  11  110.89  104.99
   2  -2 -11   87.59   29.30
   2  -2 -11  141.89  106.49
   2  -2 -11   74.89   57.89
   2   2 -11   54.99   91.09
   2   2 -11  108.79   54.99
   2   2 -11   82.89   55.29
  -2   2  11   61.49   69.19
   2   2 -11   64.19   33.20
   1  -2 -11  240.58   60.59
   1  -2 -11  354.66   70.59
  -1  -2  11  267.77   78.09
   1  -2 -11  404.56  116.69
  -1  -2  11  187.88  112.09
  -1   2  11  416.96   83.79
   1   2 -11  320.87  101.89
   1   2 -11  382.36   89.89
   1   2 -11  420.56   89.99
   1   2 -11  352.96   45.70
   0  -2  11   70.69  109.99
   0  -2 -11  118.89   62.59
   0  -2  11   93.29   65.29
   0  -2 -11  191.38   55.49
   0  -2 -11  131.89  113.79
   0   2  11  155.08   78.29
   0   2 -11  109.29   53.49
   0   2 -11  131.49   52.69
   0   2 -11   25.90  100.19
  -1  -2 -11  190.48   58.39
  -1  -2 -11  254.07  130.39
   1  -2  11  181.78   67.59
  -1  -2 -11  239.48   55.19
   1  -2  11  106.29  115.79
  -1   2 -11  159.78  104.99
   1   2  11  198.58   80.59
  -1   2 -11  177.98   53.89
  -1   2 -11  155.68   52.79
  -2  -2 -11  564.44  148.19
   2  -2  11  502.85  101.39
  -2  -2 -11  422.76   97.59
  -2  -2 -11  310.27   64.69
   2  -2  11  197.58  111.89
  -2   2 -11  515.65   91.09
   2   2  11  319.37   80.49
  -2   2 -11  461.35   94.29
  -2   2 -11  286.67  115.99
  -3  -2 -11  307.97   62.29
  -3  -2 -11  433.16  144.49
  -3  -2 -11  433.26   97.29
   3  -2  11  451.95  101.29
   3  -2  11  135.69  120.39
   3   2  11  298.77   86.89
  -3   2 -11  314.77  115.19
  -3   2 -11  463.65   98.09
  -3   2 -11  202.88   52.59
  -4  -2 -11   59.69   58.29
  -4  -2 -11  105.49   54.19
  -4  -2 -11  207.78  135.49
   4  -2  11  106.89  133.09
   4  -2  11   69.39   57.09
  -4   2 -11  126.29   60.49
   4   2  11  139.89   80.59
  -4   2 -11   65.09   50.69
  -4   2 -11  133.99  116.69
   5  -3 -11  283.17   73.89
  -5  -3  11  231.88  127.79
  -5  -3  11  185.78   60.59
   5  -3 -11  155.08   77.99
   5  -3 -11  171.68   48.30
   5  -3 -11  234.68  105.39
  -5   3  11   93.39   67.49
   5   3 -11  207.68   79.29
   5   3 -11   98.09   63.59
   4  -3 -11  208.08  104.59
   4  -3 -11   58.49   64.19
   4  -3 -11  111.79   40.30
   4  -3 -11  197.68   73.09
  -4  -3  11  101.29   54.09
  -4  -3  11    4.30  129.19
   4   3 -11  115.19   54.99
   4   3 -11  109.79   86.69
  -4   3  11    7.30   62.29
   3  -3 -11  500.45  112.99
  -3  -3  11  331.77   53.59
   3  -3 -11  474.15  108.29
   3  -3 -11  167.58   68.39
  -3  -3  11  296.07  135.69
   3   3 -11  150.08   80.79
   3   3 -11  258.47   63.29
   3   3 -11  260.47   52.09
  -3   3  11  368.96   77.69
   2  -3 -11  -38.60   67.29
  -2  -3  11   56.89   38.60
  -2  -3  11 -139.09  122.79
   2  -3 -11   21.30  102.69
   2  -3 -11   27.00   66.99
  -2   3  11   22.20   77.39
   2   3 -11  -83.39   85.89
   2   3 -11   62.69   56.09
   1  -3 -11  171.28   62.29
  -1  -3  11  140.89  134.49
   1  -3 -11   72.99   67.99
   1  -3 -11  141.99   98.59
  -1  -3  11  -47.60   71.99
   1   3 -11   85.89   53.39
   1   3 -11   34.30   91.59
  -1   3  11  120.39   77.09
   1   3 -11  158.28   48.90
   0  -3 -11  111.29   64.39
   0  -3 -11  148.19  109.89
   0  -3  11  -35.70   68.69
   0  -3  11  -36.60  127.69
   0   3 -11  120.59   60.29
   0   3  11   40.60   74.49
   0   3 -11   96.39   95.19
   0   3 -11  114.99   48.00
   1  -3  11   36.40  127.39
   1  -3  11  113.79   73.19
  -1  -3 -11  223.68   59.89
  -1  -3 -11  188.38   67.09
  -1  -3 -11  276.27  124.09
  -1   3 -11  220.18   55.09
   1   3  11  166.58   82.19
  -1   3 -11  202.98   57.69
  -1   3 -11  124.49  100.19
  -2  -3 -11  366.16  131.19
  -2  -3 -11  211.38   62.89
  -2  -3 -11  213.18   64.79
   2  -3  11  162.28   65.39
  -2   3 -11   79.39   54.09
   2   3  11  179.18   85.49
  -2   3 -11  129.09  103.39
  -8   0  12  204.08   67.19
   8   0 -12  323.77   93.39
  -7   0  12  174.58   47.10
  -7   0  12   80.09   60.39
   7   0 -12  156.48   81.09
   7   0 -12   76.49   84.19
   6   0 -12 1909.91  181.38
  -6   0  12 2118.99  136.89
   6   0 -12 2377.56  159.88
  -6   0  12 2348.36  144.99
  -5   0  12 1014.90  131.39
   5   0 -12  902.71  128.99
   5   0 -12  742.93  148.49
  -5   0  12  946.91   99.99
   4   0 -12 1577.14  135.39
  -4   0  12 1465.75  109.89
   4   0 -12 1466.65  132.49
  -4   0  12 1366.96  150.28
   3   0 -12 1771.12  133.99
  -3   0  12 1452.15  172.88
   3   0 -12 1833.72  128.49
  -3   0  12 1637.74  112.29
   3   0 -12 1491.45  184.28
   2   0 -12  145.19   48.30
   2   0 -12  286.67  109.49
  -2   0  12   86.49  124.19
   2   0 -12  194.08   67.39
   2   0 -12  281.37   58.19
   1   0 -12  570.24   85.29
  -1   0  12  475.75  113.39
   1   0 -12  540.95   85.19
   1   0 -12  559.14   73.19
   1   0 -12  192.38  113.29
   1   0 -12  572.54  106.79
   0   0 -12  247.48   50.59
   0   0 -12  348.67   69.99
   0   0  12  294.97   61.79
   0   0 -12  365.26   51.49
   0   0  12  356.36  113.99
   0   0 -12  179.48   55.39
   0   0 -12  246.08  108.29
  -1   0 -12   67.09  117.29
   1   0  12  200.78  118.59
  -1   0 -12  125.69   41.50
  -1   0 -12   34.00   47.50
  -1   0 -12  163.48   48.00
   1   0  12  183.58   55.49
  -1   0 -12  112.19   56.09
  -2   0 -12   41.50   40.50
   2   0  12   64.69   45.20
  -2   0 -12    9.50   51.49
  -2   0 -12   11.10  117.09
   2   0  12   99.89  113.49
   2   0  12  -23.50   48.90
  -2   0 -12   32.60   52.29
   3   0  12  237.68   52.29
  -3   0 -12  151.78   62.79
  -3   0 -12  137.89  125.19
   3   0  12  227.58  120.19
  -3   0 -12  129.49   51.19
  -3   0 -12  192.18   45.50
  -4   0 -12  -77.89  127.29
  -4   0 -12   30.80   50.99
   4   0  12  146.59  120.19
  -4   0 -12   58.29   51.39
   4   0  12  116.39   53.19
  -5   0 -12  268.97   61.99
  -5   0 -12  189.98   62.19
  -5   0 -12  145.89  129.39
   5   0  12  395.36   87.29
   5   0  12  231.98  113.39
   8  -1 -12    4.10   83.29
  -8  -1  12    3.60   57.59
   8   1 -12  101.29   82.09
  -8   1  12   43.40   68.19
  -7  -1  12  167.58   62.69
   7  -1 -12  131.19   77.89
  -7  -1  12   33.90   58.79
   7  -1 -12  -34.10  100.79
   7   1 -12   73.59   64.29
  -7   1  12   87.19   51.09
   7   1 -12  111.29   68.29
  -7   1  12  116.09   61.99
   6  -1 -12  232.68  133.19
   6  -1 -12  154.18   66.99
  -6  -1  12  294.47   88.29
  -6  -1  12  141.49   58.09
   6   1 -12  138.59   80.89
   6   1 -12   94.79   65.99
  -6   1  12  128.39   60.69
  -6   1  12  105.39   60.29
   5  -1 -12  204.08   72.09
   5  -1 -12  238.08  134.49
  -5  -1  12  274.67  104.69
  -5  -1  12  227.48   55.49
   5   1 -12  199.78   72.79
  -5   1  12  312.57   67.69
   5   1 -12  277.67   66.59
  -5   1  12  325.07   72.29
   5   1 -12  157.88   84.29
   4  -1 -12  329.17   73.09
  -4  -1  12  382.36   56.89
  -4  -1  12  187.38   99.89
   4  -1 -12  308.77  135.99
   4   1 -12  295.97   66.79
   4   1 -12  246.78   93.99
   4   1 -12  344.67   67.49
   3  -1 -12  372.76   59.49
   3  -1 -12  352.36   67.79
   3  -1 -12  590.24  109.09
  -3  -1  12  323.27  107.89
   3  -1 -12  636.14  150.18
  -3  -1  12  478.75   72.49
  -3   1  12  546.65  126.99
   3   1 -12  546.15  111.99
   3   1 -12  480.05  105.89
   3   1 -12  503.95   75.19
   3   1 -12  462.05  103.89
   2  -1 -12   33.70   58.29
   2  -1 -12  131.79   74.49
   2  -1 -12   71.39   40.40
   2  -1 -12  149.79  138.19
  -2  -1  12   31.90   97.59
   2   1 -12   79.49   51.49
   2   1 -12   99.19   44.80
   2   1 -12   87.79   63.09
  -2   1  12   41.40   78.49
   2   1 -12  -47.70  136.59
  -1  -1  12  357.56   75.99
   1  -1 -12  449.95  145.69
   1  -1 -12  507.05   58.29
   1  -1 -12  360.26   66.59
  -1  -1  12  283.47  105.79
   1  -1 -12  510.25  103.99
   1   1 -12  376.76  115.09
  -1   1  12  639.84  140.09
   1   1 -12  488.65   96.39
   1   1 -12  440.76   70.19
   1   1 -12  527.55   65.99
   1   1 -12  526.95   94.99
   0  -1 -12  755.22  102.29
   0  -1  12  610.94  110.59
   0  -1 -12  851.91  147.79
   0  -1 -12  747.63   66.09
   0  -1  12  492.75  116.99
   0  -1 -12  661.93  101.19
   0   1 -12  688.53  133.29
   0   1 -12  744.03  105.79
   0   1  12  687.23  159.48
   0   1 -12  723.43   72.59
   0   1 -12  797.92   66.19
   0   1 -12  744.63   91.99
  -1  -1 -12  245.78  118.59
  -1  -1 -12  255.87   57.89
  -1  -1 -12  292.97   56.79
   1  -1  12   95.29  102.59
  -1  -1 -12  184.48   57.69
   1  -1  12  277.67   64.29
  -1   1 -12  322.97   79.89
  -1   1 -12  302.57   64.79
   1   1  12  172.98   94.59
  -1   1 -12  340.27   55.19
  -1   1 -12  189.28  120.69
  -1   1 -12  202.98   41.40
  -2  -1 -12  195.58   56.19
   2  -1  12   68.29   97.39
  -2  -1 -12  280.37   60.69
   2  -1  12  373.86   91.29
  -2  -1 -12  215.78  125.79
   2   1  12  262.47   46.20
   2   1  12  173.98   94.89
  -2   1 -12  259.57   40.60
  -2   1 -12  264.57  128.19
  -2   1 -12  231.38   39.20
  -2   1 -12  198.78   59.09
  -2   1 -12  218.18   50.99
   3  -1  12   26.20   49.70
  -3  -1 -12  112.69  137.29
  -3  -1 -12   40.60   59.19
   3  -1  12   43.90  120.19
  -3  -1 -12    0.20   57.79
  -3   1 -12   85.09  125.79
  -3   1 -12   39.90   37.00
   3   1  12   48.70   93.59
  -3   1 -12  -31.90   46.80
   3   1  12   63.59   36.40
  -3   1 -12  -10.90   49.70
  -4  -1 -12  140.69   57.49
  -4  -1 -12  158.48   63.69
  -4  -1 -12   36.70  138.99
   4  -1  12  189.58   60.09
   4  -1  12   80.59   48.00
   4  -1  12  -24.50  110.99
  -4   1 -12   85.99   55.39
  -4   1 -12  137.39   43.60
   4   1  12  198.38  100.29
  -4   1 -12   66.79   46.10
  -4   1 -12   37.20  120.69
   5  -1  12   39.20   51.29
   5  -1  12   28.10  136.89
  -5  -1 -12 -195.98  131.89
  -5  -1 -12   57.39   60.39
  -5  -1 -12   25.20   55.19
  -5   1 -12   21.60   61.29
   5   1  12  107.89  102.49
   5   1  12   87.79   47.50
  -5   1 -12   88.39   43.40
  -5   1 -12   67.29  126.79
  -7  -2  12  119.89   62.69
  -7  -2  12 -148.99   87.79
   7  -2 -12  174.58  106.49
   7  -2 -12   99.39   80.69
   7   2 -12  -61.29   70.39
   7   2 -12    8.40   69.59
   6  -2 -12   16.00   66.29
   6  -2 -12  192.98  106.19
  -6  -2  12    8.40   59.49
  -6  -2  12 -100.49  100.19
   6   2 -12   41.00   71.69
  -6   2  12    7.50   58.69
   6   2 -12  -54.89   64.39
   6   2 -12  -42.70   64.79
  -5  -2  12  -17.20  104.69
   5  -2 -12  347.37  109.09
   5  -2 -12  195.98   73.99
  -5  -2  12  246.18   56.89
   5  -2 -12   60.79   64.29
   5   2 -12  240.48   73.99
   5   2 -12  120.49   64.99
  -5   2  12  106.79   70.59
   5   2 -12  233.88   89.09
  -4  -2  12  232.88  105.99
   4  -2 -12  559.94  111.59
   4  -2 -12  513.25   99.19
  -4  -2  12  528.35   79.59
   4  -2 -12  435.56  114.69
   4   2 -12  519.55   74.99
  -4   2  12  675.53  121.69
   4   2 -12  658.43  115.89
   4   2 -12  466.05   96.99
  -3  -2  12  117.39  104.29
   3  -2 -12  157.68   66.89
  -3  -2  12  106.69   45.20
   3  -2 -12  140.99   70.49
   3  -2 -12  204.18  110.59
   3   2 -12  171.08   54.99
   3   2 -12  167.98   62.69
  -3   2  12  121.39   75.19
   3   2 -12  189.38   43.30
   3   2 -12  207.98   91.89
  -2  -2  12  149.09  104.69
   2  -2 -12  293.87  109.69
   2  -2 -12  287.67   73.09
   2  -2 -12  203.88   64.89
  -2  -2  12  251.27   43.60
   2   2 -12  192.28   97.89
  -2   2  12  185.58   77.49
   2   2 -12  299.27   55.49
   2   2 -12  291.17   57.69
   2   2 -12  451.15  103.79
   1  -2 -12   80.19   65.79
   1  -2 -12   12.30   55.19
  -1  -2  12  -11.70  101.89
  -1  -2  12   21.30   73.49
   1  -2 -12  128.09  112.89
   1   2 -12   72.59   31.60
   1   2 -12   54.89   47.40
   1   2 -12   80.19   55.79
   1   2 -12   43.40   98.79
   1   2 -12   87.69   28.30
  -1   2  12   88.29   69.09
   0  -2 -12  454.75  143.79
   0  -2  12   91.99   65.89
   0  -2 -12  157.38   58.99
   0  -2  12   71.29  113.09
   0  -2 -12  253.17   63.29
   0   2 -12  177.58   57.99
   0   2 -12  172.38   53.99
   0   2  12  116.59   74.69
   0   2 -12   64.59  106.99
   1  -2  12  195.78   65.49
  -1  -2 -12   89.79   57.39
  -1  -2 -12  261.97  140.49
   1  -2  12   -1.60  113.99
  -1  -2 -12  241.28   56.99
  -1   2 -12  176.28   51.79
   1   2  12  157.88   81.49
  -1   2 -12  187.98   58.49
  -1   2 -12  132.59  110.59
  -2  -2 -12 1134.69  223.68
  -2  -2 -12  804.62  106.99
  -2  -2 -12  893.81  110.59
   2  -2  12  510.35  128.69
   2  -2  12  903.91  115.09
  -2   2 -12  795.82  178.28
   2   2  12  803.02  134.09
  -2   2 -12  816.32  103.39
  -2   2 -12  945.91  103.59
  -3  -2 -12  953.50  109.09
   3  -2  12  955.70  111.49
  -3  -2 -12  987.30  170.48
  -3  -2 -12  810.52  100.79
  -3   2 -12  612.64  127.79
  -3   2 -12  933.81  111.69
   3   2  12  654.23  134.49
  -3   2 -12  871.61  105.89
  -4  -2 -12  -35.60  138.49
  -4  -2 -12   79.59   62.39
   4  -2  12 -121.99  167.18
   4   2  12   98.29   80.09
  -4   2 -12   48.10  119.09
   4  -3 -12   68.19   66.99
  -4  -3  12  138.49   56.49
  -4  -3  12   83.09  131.89
   4  -3 -12  174.78   72.69
   4  -3 -12  210.18  116.79
   4  -3 -12  158.08   40.20
  -4   3  12   24.60   70.89
   4   3 -12  182.28   86.89
   3  -3 -12  230.38  111.09
   3  -3 -12   26.70   69.69
   3  -3 -12  128.29   75.29
  -3  -3  12  151.18  129.39
  -3  -3  12  137.89   47.70
   3   3 -12  193.88   88.49
   3   3 -12  254.97   70.69
  -3   3  12   55.09   74.09
   2  -3 -12  227.48  109.29
   2  -3 -12  -94.39   68.99
  -2  -3  12  -47.20  126.59
   2  -3 -12   -9.90   72.19
  -2  -3  12  -39.30   36.10
   2   3 -12  -19.30   91.49
   2   3 -12   50.59   51.09
  -2   3  12   83.99   73.59
   2   3 -12  104.59   53.39
   1  -3 -12  206.88  117.29
  -1  -3  12   49.10  132.39
   1  -3 -12  160.48   57.49
   1  -3 -12   87.69   68.19
  -1  -3  12 -102.79   81.99
  -1   3  12   61.49   71.99
   1   3 -12   64.89   53.89
   1   3 -12  142.19   96.89
   1   3 -12  111.49   55.99
   0  -3  12  -63.89  133.89
   0  -3 -12   54.39   64.39
   0  -3 -12  107.09  111.79
   0  -3 -12  183.18   58.29
   0  -3  12  -89.09   70.69
   0   3 -12   34.00   91.99
   0   3  12    5.00   83.69
   0   3 -12    5.70   46.90
   0   3 -12   43.00   53.69
  -1  -3 -12  131.69  127.19
  -1  -3 -12   92.49   67.99
  -1   3 -12  105.89   98.99
  -8   0  13  305.37   59.49
   8   0 -13  266.87   91.79
  -8   0  13  276.57   69.59
   8   0 -13  155.98   73.19
  -7   0  13   54.89   55.79
   7   0 -13   11.00   65.89
  -7   0  13   19.90   51.39
   7   0 -13    4.20   91.89
   6   0 -13  262.37  101.79
  -6   0  13  598.64  104.19
   6   0 -13  789.22  123.59
  -6   0  13  479.95   99.29
   5   0 -13  848.92  161.68
  -5   0  13  894.61   94.59
  -5   0  13 1097.09  141.99
   5   0 -13  947.21  121.69
  -4   0  13   90.89   82.29
   4   0 -13   55.99  101.39
   4   0 -13  189.88   62.79
   4   0 -13  199.18   70.19
  -4   0  13  172.78   58.29
   3   0 -13   51.89  100.99
  -3   0  13   20.80   86.49
   3   0 -13   39.90   69.89
   2   0 -13  239.68   58.09
  -2   0  13  278.57   94.99
   2   0 -13  186.68  109.09
   2   0 -13  314.47   78.09
   2   0 -13  290.57   73.19
   1   0 -13  395.66   79.49
  -1   0  13  343.47  100.49
   1   0 -13  442.26  119.79
   1   0 -13  306.37   65.29
   1   0 -13  393.36   55.89
   0   0 -13  196.18   46.40
   0   0 -13  228.88   51.59
   0   0  13  335.97  117.99
   0   0 -13  180.78  117.79
   0   0  13   91.59   63.59
   0   0 -13  182.08   57.39
  -1   0 -13  223.88   52.19
  -1   0 -13  236.48   58.49
   1   0  13  196.28  107.49
  -1   0 -13  424.66   77.79
  -1   0 -13  407.16  126.69
   1   0  13  363.76   61.29
  -2   0 -13   51.29   44.00
   2   0  13   49.50   50.39
  -2   0 -13   66.19   58.79
  -2   0 -13  126.59  127.19
   2   0  13  195.58  105.59
  -2   0 -13   44.90   53.39
  -3   0 -13   49.80   59.09
   3   0  13  137.99  115.59
  -3   0 -13   40.20   44.50
  -3   0 -13   61.09   51.99
  -3   0 -13   52.99  129.79
   3   0  13   99.79   49.40
  -4   0 -13  312.57  136.79
   4   0  13  409.16   97.99
  -4   0 -13  161.38   60.59
   4   0  13  275.37  116.19
  -4   0 -13  214.78   57.89
   8  -1 -13   45.60   83.49
  -8  -1  13   37.10   66.69
   8   1 -13  -23.70   69.39
  -8   1  13    8.40   59.79
  -7  -1  13  286.27   69.79
   7  -1 -13  139.09   76.69
   7  -1 -13   24.20  111.59
  -7  -1  13  180.88   64.79
   7   1 -13  117.59   70.59
   7   1 -13   68.49   75.59
  -7   1  13  219.98   61.79
  -7   1  13  155.78   65.19
   6  -1 -13  328.07   72.49
   6  -1 -13  225.28  116.29
  -6  -1  13  627.64   92.39
  -6  -1  13  843.82  143.19
   6   1 -13  341.17   83.59
   6   1 -13  429.46   77.09
   6   1 -13  417.26   96.69
  -6   1  13  440.46   73.39
  -6   1  13  534.65  106.49
   5  -1 -13  -39.10  119.69
  -5  -1  13  -30.40   97.39
   5  -1 -13   40.00   64.89
  -5  -1  13    9.40   53.99
   5   1 -13  -11.00   67.09
   5   1 -13   13.40   73.79
  -5   1  13   48.50   64.99
   5   1 -13  -92.19   82.89
  -5   1  13    7.80   58.79
   4  -1 -13   25.00   66.29
  -4  -1  13  158.48   54.29
   4  -1 -13  134.19   67.99
   4  -1 -13   36.00  125.09
  -4  -1  13  -15.10  215.48
   4   1 -13   84.79   63.99
  -4   1  13   79.49   71.29
   4   1 -13  128.89   97.49
   4   1 -13  136.69   66.99
   3  -1 -13  311.77   70.09
  -3  -1  13  258.27  112.79
  -3  -1  13  441.96   75.49
   3  -1 -13  377.16   57.09
   3  -1 -13  400.16   76.49
   3  -1 -13  243.78  128.29
  -3   1  13  313.97   81.49
   3   1 -13  395.36   72.79
   3   1 -13  180.08  107.89
   3   1 -13  456.25  106.39
  -2  -1  13  -12.90  100.79
   2  -1 -13  -52.29   58.69
   2  -1 -13  -50.39  125.19
   2  -1 -13  -33.70   64.19
   2  -1 -13   26.00   34.60
  -2   1  13   -5.00   82.89
   2   1 -13   23.00   47.00
   2   1 -13  -15.80   50.29
   2   1 -13    7.10   59.09
   2   1 -13  -18.70   43.00
   2   1 -13  -51.29  106.29
  -1  -1  13  323.27  118.99
   1  -1 -13  106.19  116.99
   1  -1 -13  291.47   70.39
   1  -1 -13  241.08   60.59
   1  -1 -13  370.96   63.69
   1   1 -13  383.26   84.99
   1   1 -13  187.78   58.59
   1   1 -13  349.77   68.39
   1   1 -13  350.86   66.69
  -1   1  13  333.27   94.19
   1   1 -13  224.48  112.49
   0  -1  13  290.97   69.89
   0  -1 -13  191.48   65.19
   0  -1 -13  228.98   65.99
   0  -1  13   63.79  104.79
   0  -1 -13   83.89  114.19
   0  -1 -13  386.06   61.49
   0   1 -13  252.27   63.49
   0   1  13  241.48   95.89
   0   1 -13  304.17  126.49
   0   1 -13  422.06   58.69
   0   1 -13  170.28   46.70
   0   1 -13  369.86   80.19
   1  -1  13  212.28  123.59
  -1  -1 -13  418.46   99.49
  -1  -1 -13  116.49  112.09
   1  -1  13  368.26   70.59
  -1  -1 -13  170.18   56.39
  -1  -1 -13  440.96   61.99
  -1   1 -13  300.97  126.89
   1   1  13  227.28   94.69
  -1   1 -13  458.75  103.79
  -1   1 -13  271.97   45.00
  -1   1 -13  360.06   58.59
  -1   1 -13  342.87   56.29
  -2  -1 -13  141.29  137.79
  -2  -1 -13  289.27   64.19
   2  -1  13  333.37   63.39
   2  -1  13  196.48  118.89
  -2  -1 -13  312.17   66.69
   2   1  13  220.28   97.99
  -2   1 -13  423.16   90.09
  -2   1 -13  383.06   61.09
  -2   1 -13  253.97  132.79
  -2   1 -13  350.86   45.70
   2   1  13  218.28   50.39
  -2   1 -13  280.47   62.19
  -3  -1 -13 -113.59  137.09
   3  -1  13   54.99  113.99
   3  -1  13   97.89   52.09
  -3  -1 -13   21.50   58.89
  -3  -1 -13   42.10   62.89
  -3   1 -13   68.19   48.20
   3   1  13   27.10   95.39
  -3   1 -13   44.10   58.49
  -3   1 -13   73.39   40.30
   3   1  13  122.09   43.10
  -3   1 -13  138.49  129.59
   4  -1  13  193.98   59.69
  -4  -1 -13  171.28   62.79
  -4  -1 -13  109.09   55.79
   4  -1  13  116.69  136.89
  -4  -1 -13  -16.30  141.39
  -4   1 -13   12.60  124.29
   4   1  13  204.48   47.30
   4   1  13  175.58  107.09
  -4   1 -13  114.79   47.20
  -4   1 -13   65.09   48.10
  -4   1 -13  121.19   66.59
   6  -2 -13  221.68  120.19
   6  -2 -13   90.29   72.49
  -6  -2  13 -126.39  128.79
   6  -2 -13  -90.99   78.79
  -6  -2  13   31.00   55.79
   6   2 -13   58.09   69.69
   6   2 -13  -45.20   67.89
   6   2 -13   63.29   80.79
  -6   2  13   50.99   64.39
  -5  -2  13   81.99  116.69
   5  -2 -13  315.57   70.69
   5  -2 -13  156.78   72.79
   5  -2 -13  620.94  125.69
  -5  -2  13  494.75   86.99
   5   2 -13  417.16   95.09
  -5   2  13  352.96   73.99
   5   2 -13  423.76   75.29
   5   2 -13  305.27   75.69
   4  -2 -13  149.19  116.59
   4  -2 -13   78.19   72.69
   4  -2 -13   51.49   71.09
  -4  -2  13  105.09   51.79
  -4  -2  13  -31.60  114.29
   4   2 -13    7.80   63.89
   4   2 -13  194.88   60.59
  -4   2  13   62.19   72.19
   4   2 -13   83.09   92.39
   3  -2 -13   -6.70   41.90
  -3  -2  13  -76.09  110.79
   3  -2 -13  233.88  118.19
   3  -2 -13   74.29   71.29
   3  -2 -13  113.29   70.99
  -3  -2  13   60.39   47.50
   3   2 -13  104.09   54.59
   3   2 -13   78.09   40.20
  -3   2  13   70.59   79.59
   3   2 -13   78.49   94.19
   3   2 -13   97.39   56.19
   2  -2 -13  324.27  131.49
  -2  -2  13  -17.70  110.89
   2  -2 -13  214.58   73.69
   2  -2 -13  238.88   73.49
   2   2 -13  245.58  104.39
   2   2 -13  312.07   54.69
   2   2 -13  243.28   58.39
  -2   2  13  147.99   77.59
   2   2 -13  200.78   60.39
  -1  -2  13  -34.20  111.19
   1  -2 -13  114.59   64.29
   1  -2 -13  149.29  142.49
  -1  -2  13   -9.70   76.59
   1  -2 -13   60.09   58.59
  -1   2  13  123.49   73.99
   1   2 -13  121.99   31.40
   1   2 -13  110.59  104.79
   1   2 -13  157.48   52.79
   1   2 -13  110.69   33.60
   1   2 -13  183.88   58.09
   0  -2 -13   54.39  131.89
   0  -2  13 -107.99  111.59
   0  -2 -13   52.89   55.69
   0  -2  13  -51.29   71.79
   0  -2 -13   29.80   61.69
   0   2 -13  -60.69  105.39
   0   2 -13   34.70   57.19
   0   2  13   40.70   79.59
   0   2 -13   -7.60   46.90
  -1  -2 -13  302.47  143.39
  -1  -2 -13  184.48   62.59
   1  -2  13   31.80  122.59
  -1  -2 -13  273.77   62.99
   1  -2  13  237.78   68.99
   1   2  13  155.08   75.19
  -1   2 -13  148.19   50.39
  -1   2 -13  211.58   59.19
  -1   2 -13  210.48  112.09
  -2  -2 -13  592.94  104.59
   2  -2  13  121.49  133.19
  -2  -2 -13  578.34  163.88
   2  -2  13  672.93  117.99
  -2  -2 -13  579.64  104.89
  -2   2 -13  431.76   93.99
  -2   2 -13  556.94  102.19
  -2   2 -13  442.86  124.29
  -3  -2 -13  658.23  105.89
   3  -2  13  601.34  109.79
   3  -2  13  352.46  198.18
  -3  -2 -13  508.25   98.39
  -3  -2 -13  423.06  155.68
  -3   2 -13  624.44  104.39
  -3   2 -13  333.17  120.89
  -3   2 -13  596.74  106.99
   7   0 -14  693.43  132.39
  -7   0  14  846.62   97.99
   7   0 -14  442.16  114.09
  -7   0  14  753.52  106.69
   6   0 -14  352.26  107.39
  -6   0  14  613.04  109.09
   6   0 -14  352.46   76.19
  -6   0  14  482.85   92.99
   5   0 -14  -31.90   99.99
  -5   0  14   98.59   98.69
   5   0 -14   69.99   67.99
  -5   0  14   64.09   59.59
   5   0 -14  -28.80   66.29
  -4   0  14  214.88   56.09
  -4   0  14  323.87   88.69
   4   0 -14 -234.08  177.68
   4   0 -14  125.49   64.09
   4   0 -14  266.87   64.89
   3   0 -14   39.90  110.99
  -3   0  14  282.07   94.39
   3   0 -14  114.59   60.29
   3   0 -14  221.78   80.59
   3   0 -14  267.47   58.39
   2   0 -14  -87.59  107.39
  -2   0  14  100.89   92.79
   2   0 -14  -16.90   66.99
   2   0 -14   11.30   51.69
   2   0 -14   57.99   56.39
  -1   0  14  820.82  172.28
   1   0 -14  442.66  123.19
   1   0 -14  770.32   84.99
   1   0 -14  709.63   89.99
   1   0 -14  625.54  105.19
   0   0 -14  371.76   92.29
   0   0  14  255.57  101.59
   0   0 -14  213.58  124.69
   0   0 -14  322.17   62.39
   0   0 -14  386.86   68.29
  -1   0 -14  291.17  127.29
   1   0  14  478.95  123.09
  -1   0 -14  400.06   82.19
  -1   0 -14  470.45   94.49
  -1   0 -14  210.68   54.39
   1   0  14  286.37   64.19
   2   0  14  195.18  118.59
  -2   0 -14    8.30   51.49
  -2   0 -14   61.39   58.09
   2   0  14  109.99   58.99
  -2   0 -14   94.29   46.50
  -2   0 -14  160.98  132.69
  -3   0 -14  263.37  141.59
   3   0  14  273.67  111.39
  -3   0 -14  525.45  103.99
  -3   0 -14  506.95   89.09
  -3   0 -14  445.86   86.19
  -4   0 -14  -14.60   55.19
  -4   0 -14   27.60  135.09
  -4   0 -14    8.70   60.39
   4   0  14   69.29  110.09
   4   0  14  102.99   53.99
   7  -1 -14  763.12  142.99
   7  -1 -14 1115.99  138.29
  -7  -1  14 1193.08  113.29
  -7  -1  14 1341.27  133.99
  -7   1  14 1175.98  118.19
  -7   1  14 1108.79  109.09
   7   1 -14 1216.78  141.69
   7   1 -14  956.10  144.89
   7   1 -14  776.02  114.49
   6  -1 -14  643.74  129.49
  -6  -1  14  721.13   97.59
  -6  -1  14 1115.19  149.49
   6  -1 -14  524.45  207.78
  -6   1  14  639.64   95.69
   6   1 -14  645.44  124.09
  -6   1  14  712.13  116.79
   6   1 -14  680.53  153.68
   6   1 -14  681.13   93.89
   5  -1 -14  -65.49  121.49
  -5  -1  14   44.20  110.99
  -5  -1  14   70.99   51.19
   5  -1 -14  108.99   74.99
   5   1 -14   49.40   67.09
   5   1 -14   64.29   67.79
   5   1 -14   74.79   95.29
  -5   1  14   86.89   68.89
   4  -1 -14  151.48   69.89
  -4  -1  14  176.08   53.99
   4  -1 -14  -10.30  115.89
   4  -1 -14  -16.00   59.19
  -4  -1  14  162.08  115.49
   4  -1 -14  141.89   67.29
   4   1 -14  241.18   68.69
   4   1 -14  179.98   70.89
   4   1 -14  109.49  100.09
  -4   1  14  175.88   76.49
   3  -1 -14  572.14   93.29
   3  -1 -14  358.56   80.69
  -3  -1  14  263.97   54.49
   3  -1 -14  292.57   66.69
   3  -1 -14  232.98  120.79
  -3  -1  14  304.77  123.69
   3   1 -14  422.26   76.49
   3   1 -14  239.28  108.89
  -3   1  14  309.47   83.89
   3   1 -14  502.75   95.59
  -2  -1  14  160.88  111.59
   2  -1 -14  126.29   60.59
   2  -1 -14  103.19  125.99
   2  -1 -14  103.39   75.09
   2  -1 -14  165.28   43.70
  -2   1  14  109.99   85.69
   2   1 -14  177.08   49.00
   2   1 -14  142.39   56.49
   2   1 -14  140.49  110.39
   2   1 -14   77.59   48.90
   2   1 -14  102.79   56.79
   1  -1 -14  296.77  125.79
   1  -1 -14  307.87   62.69
  -1  -1  14  150.78  110.49
   1  -1 -14  203.88   62.19
   1  -1 -14  193.88   65.49
  -1   1  14  287.87   93.79
   1   1 -14  297.87   47.20
   1   1 -14  230.08   61.99
   1   1 -14  232.68   51.69
   1   1 -14  237.88   46.70
   1   1 -14  164.68  114.79
   0  -1 -14   85.39   37.40
   0  -1 -14   -4.00  122.99
   0  -1  14  -15.20   65.09
   0  -1  14 -104.39  107.69
   0  -1 -14   87.79   58.39
   0  -1 -14   33.10   62.99
   0   1 -14   65.89   45.00
   0   1 -14   81.19   63.39
   0   1 -14   98.39   41.30
   0   1 -14  -63.69  123.39
   0   1  14  112.09   95.09
   1  -1  14  449.95  107.89
  -1  -1 -14  286.87  138.29
  -1  -1 -14  458.35   91.59
   1  -1  14  108.19  113.59
  -1  -1 -14  542.85   98.99
  -1  -1 -14  451.95   68.39
  -1   1 -14  360.06   69.79
  -1   1 -14  489.05   63.79
  -1   1 -14  429.86  130.29
  -1   1 -14  502.05   87.09
  -1   1 -14  545.85  103.19
   1   1  14  495.05  102.79
  -2  -1 -14   99.49  145.89
   2  -1  14  233.58  129.69
  -2  -1 -14  222.98   61.79
   2  -1  14  190.38   62.99
  -2  -1 -14  184.08   63.59
  -2   1 -14  145.79  135.79
  -2   1 -14  310.67   57.09
   2   1  14  284.47  108.09
  -2   1 -14  282.77   65.49
  -2   1 -14  318.27   45.80
  -2   1 -14  326.07   64.09
   3  -1  14   44.90  122.19
   3  -1  14  429.36  103.39
  -3  -1 -14   30.30  145.69
  -3  -1 -14  167.88   59.99
  -3  -1 -14  287.77   67.39
  -3   1 -14  160.08   62.99
  -3   1 -14   98.19  129.49
  -3   1 -14  246.48   58.29
   3   1  14  309.37  110.29
  -5  -2  14 -166.88  118.09
   5  -2 -14  437.46  140.79
   5  -2 -14  190.28   78.89
  -5  -2  14  158.58   58.49
   5  -2 -14  170.38   76.99
   5   2 -14   54.59   73.89
  -5   2  14  126.79   73.69
   5   2 -14  134.59   94.69
   5   2 -14  124.69   65.39
  -4  -2  14 -143.39  119.29
   4  -2 -14  -23.80   63.79
   4  -2 -14  -18.70   73.59
  -4  -2  14   15.20   48.20
   4  -2 -14  -17.80  136.19
   4   2 -14   74.69   59.79
  -4   2  14   12.20   77.29
   4   2 -14  -85.39   65.19
   4   2 -14   42.20   94.29
   3  -2 -14  182.18  136.49
   3  -2 -14  101.29   40.60
  -3  -2  14   74.89   51.49
   3  -2 -14   -0.60   66.09
  -3  -2  14 -126.99  120.09
   3  -2 -14   78.39   71.39
   3   2 -14   56.09  100.19
   3   2 -14   86.09   41.70
  -3   2  14   60.09   75.39
   3   2 -14  179.68   59.79
   3   2 -14  126.89   56.29
   2  -2 -14  664.53  112.79
   2  -2 -14  577.84  141.79
  -2  -2  14  326.07  131.49
   2  -2 -14  317.77   77.89
   2   2 -14  467.05   61.19
  -2   2  14  587.24  127.59
   2   2 -14  461.25  114.09
   2   2 -14  579.84   97.69
   2   2 -14  522.55  110.49
   2   2 -14  414.56   71.99
   1  -2 -14  931.81  117.79
   1  -2 -14 1146.69  237.68
   1  -2 -14 1020.50  110.79
  -1  -2  14  915.61  203.88
   1   2 -14 1029.20   67.79
  -1   2  14  889.81  133.49
   1   2 -14  834.42   73.59
   1   2 -14 1296.47  116.79
   1   2 -14 1071.99  108.59
   1   2 -14  969.30  183.28
   0  -2  14  187.88   70.59
   0  -2 -14  536.55  103.69
   0  -2 -14  546.35  156.88
   0  -2 -14  258.47   67.79
   0  -2  14  117.59  128.09
   0   2 -14  270.67  117.59
   0   2  14  201.98   79.19
  -1  -2 -14   22.30   60.89
   1  -2  14   -5.90   70.49
   1  -2  14  -62.49  131.89
  -1  -2 -14  128.99   60.19
  -1  -2 -14  270.27  151.18
  -1   2 -14   78.09   58.09
  -1   2 -14   38.10   48.70
   1   2  14   74.09   78.99
  -1   2 -14   25.20  107.69
  -2  -2 -14  697.33  153.48
   2  -2  14  640.64  130.79
  -2  -2 -14  380.26   70.69
  -2   2 -14  548.05  103.09
  -2   2 -14  295.97  120.29
  -7   0  15   30.40   61.89
  -7   0  15   60.99   63.69
   7   0 -15   39.30   73.19
   7   0 -15  -41.90  110.69
   6   0 -15   91.89  109.39
   6   0 -15  -68.69   77.59
   6   0 -15  155.08   78.19
  -6   0  15  119.19   58.39
  -6   0  15   96.49  103.09
  -5   0  15   15.90   64.19
  -5   0  15  151.18   90.89
   5   0 -15   -1.60  109.79
   5   0 -15   97.49   73.89
   5   0 -15  -28.40   67.09
   4   0 -15  100.49   73.99
  -4   0  15  127.29   89.89
   4   0 -15  124.89   64.49
   4   0 -15  123.39  114.89
   3   0 -15   47.50   57.99
  -3   0  15   64.59   88.89
   3   0 -15  -75.39  117.69
   3   0 -15   60.09   71.59
   3   0 -15  107.49   50.09
  -2   0  15  121.09   95.09
   2   0 -15   69.09   67.69
   2   0 -15  125.49   52.19
   2   0 -15   88.69  120.19
   2   0 -15   61.69   58.09
   1   0 -15  995.00  113.69
   1   0 -15 1149.89   98.39
  -1   0  15  914.41  175.78
   1   0 -15  814.22  103.69
   0   0 -15  -54.29   56.59
   0   0 -15   27.80   56.69
   0   0 -15 -107.69  122.79
   0   0  15   69.99  100.19
   0   0 -15   14.10   42.30
   1   0  15   78.79  102.49
  -1   0 -15   14.60   46.50
  -1   0 -15   41.20   62.19
  -1   0 -15    2.60  125.19
  -1   0 -15   32.60   51.99
   1   0  15 -128.09   60.19
  -2   0 -15   -3.80   46.10
   2   0  15   19.50   99.79
  -2   0 -15    8.70   50.99
  -2   0 -15   14.10   60.89
  -2   0 -15   12.10  132.49
   2   0  15  -12.60   59.99
  -3   0 -15  297.67   70.79
   3   0  15  240.78  132.79
  -3   0 -15  176.48   53.89
  -3   0 -15  211.18   59.79
  -3   0 -15  120.19  152.48
  -6  -1  15  677.53  157.98
  -6  -1  15  525.25   90.19
   6  -1 -15  327.17  131.89
   6  -1 -15  383.46   79.89
   6   1 -15  346.77  105.59
   6   1 -15  422.46   88.39
  -6   1  15  544.45  120.29
   6   1 -15  525.65   91.59
  -5  -1  15  941.21  191.28
   5  -1 -15  381.26  131.49
  -5  -1  15  808.42   96.09
   5  -1 -15  755.32  135.39
  -5   1  15  868.71  125.99
   5   1 -15  647.64  126.29
   5   1 -15  605.44  115.99
   5   1 -15  682.23  130.29
   4  -1 -15   -8.90  125.19
   4  -1 -15   63.69   65.69
  -4  -1  15  167.38   55.59
   4  -1 -15   92.29   69.09
  -4  -1  15  198.98  116.89
   4   1 -15  186.58   74.79
  -4   1  15  228.48   82.29
   4   1 -15  132.19  107.29
   4   1 -15  252.97   67.59
  -3  -1  15  133.39  121.79
   3  -1 -15   55.89   62.59
   3  -1 -15   47.40   45.80
   3  -1 -15 -101.79  124.59
   3  -1 -15   -3.70   73.49
  -3   1  15   64.39   76.99
   3   1 -15   30.30   68.59
   3   1 -15  -14.00  109.19
   3   1 -15   88.09   53.19
   2  -1 -15  325.97   79.89
  -2  -1  15  147.39  133.89
   2  -1 -15  192.78  119.39
   2  -1 -15  164.18   72.09
   2  -1 -15  139.29   59.79
   2   1 -15  220.68  115.79
   2   1 -15  194.48   58.29
   2   1 -15  201.08   53.69
   2   1 -15  300.07   61.29
  -2   1  15  229.88   91.99
   1  -1 -15  176.28  122.49
  -1  -1  15  205.48  132.19
   1  -1 -15  289.17   70.39
   1  -1 -15  135.49   64.79
   1  -1 -15  219.38   60.39
   1   1 -15  393.76   73.79
   1   1 -15  311.77  125.99
   1   1 -15  247.68   54.79
   1   1 -15  216.18   51.59
  -1   1  15  336.97   97.29
   1   1 -15  245.18   58.39
   0  -1 -15  425.86   71.89
   0  -1  15  186.08  122.99
   0  -1 -15  310.37   60.09
   0  -1 -15  274.77  147.19
   0  -1 -15  204.78   62.89
   0  -1  15   81.19   74.69
   0   1  15  379.06  127.99
   0   1 -15  192.18   49.60
   0   1 -15  177.88  126.39
   0   1 -15  437.96   99.29
   0   1 -15  269.47   54.29
   1  -1  15   89.69  127.09
   1  -1  15   27.80   65.99
  -1  -1 -15  150.18   60.99
  -1  -1 -15  -99.39  145.79
  -1  -1 -15   50.29   39.30
  -1  -1 -15  -12.00   53.69
  -1   1 -15   54.29   59.19
  -1   1 -15   13.50   46.00
  -1   1 -15   67.09   47.70
  -1   1 -15  103.59   42.20
  -1   1 -15   -4.20  126.09
   1   1  15   66.39   99.79
   2  -1  15  530.55  121.59
  -2  -1 -15  291.17   66.79
   2  -1  15   89.39  132.29
  -2  -1 -15  290.17   70.79
  -2  -1 -15   90.09  152.68
  -2   1 -15  250.87   49.90
   2   1  15  254.87  104.09
  -2   1 -15  401.96   95.59
  -2   1 -15  302.57   74.79
  -2   1 -15  128.09  131.39
   4  -2 -15  122.59   74.89
   4  -2 -15   83.79   71.79
  -4  -2  15  158.88   53.79
  -4  -2  15 -213.78  118.19
   4  -2 -15  -17.20   55.29
   4  -2 -15   88.29  135.99
   4   2 -15   83.49   97.49
   4   2 -15  205.68   63.39
  -4   2  15  119.89   78.39
   4   2 -15  153.08   72.59
   3  -2 -15   -2.40   76.09
  -3  -2  15  -40.40  131.09
   3  -2 -15   72.29   72.59
   3  -2 -15  178.48  143.19
   3   2 -15   33.50  105.49
   3   2 -15   69.69   55.39
   3   2 -15  129.19   60.29
  -3   2  15   84.29   84.89
   2  -2 -15  553.44  113.69
   2  -2 -15  559.34  143.29
   2  -2 -15  498.95   87.69
  -2  -2  15   69.59  132.69
   2   2 -15  564.14  109.89
  -2   2  15  292.67   81.69
   2   2 -15  378.96  116.39
   2   2 -15  500.85  102.59
   2   2 -15  237.18   69.29
   1  -2 -15  153.88   60.09
   1  -2 -15   67.09  152.68
  -1  -2  15  -47.80  133.89
   1  -2 -15   83.29   73.09
   1   2 -15   65.69  109.19
  -1   2  15  137.89   77.69
   1   2 -15  213.38   63.09
   1   2 -15  145.69   56.99
   1   2 -15    5.20   37.10
   0  -2  15   61.49   82.49
   0  -2  15   10.20  135.39
   0  -2 -15  292.77   67.29
   0  -2 -15  267.87  172.18
   0  -2 -15  238.98   67.59
   0   2 -15  231.38   59.89
   0   2 -15  218.48   62.09
   0   2 -15  200.48  112.99
   0   2  15  196.48   87.09
  -6   0  16  335.27   64.99
   6   0 -16  194.48   81.89
   6   0 -16  641.64  138.99
  -6   0  16  742.63  138.39
   6   0 -16   48.10  115.69
   5   0 -16   98.59  127.99
   5   0 -16   87.29   67.29
  -5   0  16   33.50   61.39
   5   0 -16  200.88   78.79
  -5   0  16  142.99   94.09
   4   0 -16  575.74  116.49
   4   0 -16  314.27   78.99
   4   0 -16  -38.40  120.79
   4   0 -16  286.87   75.39
  -4   0  16  313.17   98.69
   3   0 -16    7.40   73.29
   3   0 -16   65.09   60.69
   3   0 -16  -83.59  124.99
  -3   0  16  129.29   93.19
   3   0 -16  107.09   51.99
   2   0 -16  348.37   66.99
   2   0 -16  326.17  134.89
  -2   0  16  641.34  111.79
   2   0 -16  371.46   69.69
   1   0 -16  197.38   61.19
   1   0 -16  380.86   85.89
   1   0 -16  416.86   79.99
   1   0 -16  366.46  135.49
  -1   0  16  434.36  111.59
   0   0 -16   73.59   60.39
   0   0 -16   49.60  131.69
   0   0  16  207.68  110.19
   0   0 -16  177.58   49.99
   0   0 -16  -40.40   56.79
  -1   0 -16  -27.10  139.09
  -1   0 -16    2.50   48.20
  -1   0 -16   -2.40   54.09
   1   0  16   87.29   99.79
  -1   0 -16   -8.20   65.09
  -2   0 -16  -12.20   53.29
  -2   0 -16 -177.08  133.59
  -5  -1  16   50.69   53.79
   5  -1 -16   27.70   76.19
   5  -1 -16   15.90   71.49
   5  -1 -16 -244.18  137.09
  -5  -1  16  305.57  117.39
  -5   1  16   59.49   76.99
   5   1 -16   57.29   73.79
   5   1 -16   60.09   78.19
   5   1 -16  130.39  106.69
   4  -1 -16 -109.39  128.79
  -4  -1  16  -49.70  114.39
   4  -1 -16   79.59   70.59
   4  -1 -16   88.89   60.79
   4  -1 -16  -17.70   75.59
  -4  -1  16  -28.10   54.79
  -4   1  16   87.59   83.49
   4   1 -16   82.99  112.39
   4   1 -16  120.79   57.49
   4   1 -16   44.30   74.89
   3  -1 -16  226.48   79.59
  -3  -1  16  379.26  125.99
   3  -1 -16  245.78   75.49
   3  -1 -16   42.30  134.39
   3   1 -16  421.86  104.59
   3   1 -16  296.67  120.39
   3   1 -16  333.17   81.19
  -3   1  16  224.18   83.69
   3   1 -16  199.98   60.79
  -2  -1  16   74.19  131.69
   2  -1 -16   90.49   40.40
   2  -1 -16   -0.60   69.59
   2  -1 -16   10.50   62.09
   2  -1 -16 -145.69  144.29
  -2   1  16   72.79   89.19
   2   1 -16   11.30   55.89
   2   1 -16   11.50   61.09
   2   1 -16  -14.40  119.99
   2   1 -16   30.10   53.19
   1  -1 -16  173.38   58.99
   1  -1 -16  202.68   64.69
   1  -1 -16  179.38   44.00
  -1  -1  16  158.58  138.29
   1  -1 -16  -23.30  149.99
   1   1 -16  155.08   62.89
   1   1 -16  147.69   55.19
   1   1 -16   91.19  129.19
  -1   1  16  260.27  102.09
   1   1 -16  110.29   51.79
   0  -1 -16  104.89   44.20
   0  -1  16 -177.18   73.59
   0  -1  16   30.30  129.19
   0  -1 -16  142.29   63.09
   0  -1 -16   35.40   61.39
   0  -1 -16 -122.99  148.89
   0   1  16  106.09   97.89
   0   1 -16   82.39   62.39
   0   1 -16   79.39   52.99
   0   1 -16  -11.90   45.10
   0   1 -16  -36.70  128.49
  -1  -1 -16  366.96   68.99
   1  -1  16  224.18  152.38
  -1  -1 -16  239.78   62.59
  -1  -1 -16  379.76   75.69
  -1  -1 -16   70.69  153.98
   1  -1  16  118.29   73.59
  -1   1 -16  217.98   51.29
  -1   1 -16  243.88  145.59
  -1   1 -16  252.47   56.29
   1   1  16  305.17  107.59
  -1   1 -16  417.56   72.99
  -5   0  17  215.08   98.99
   5   0 -17  -23.90   69.09
   5   0 -17   82.89   84.39
   5   0 -17 -155.48  127.39
   4   0 -17  -12.40  127.79
  -4   0  17  231.68  103.49
   4   0 -17  -44.50   67.09
   4   0 -17  101.49   83.29
   4   0 -17   33.00   57.39
   3   0 -17   71.09   74.89
  -3   0  17   78.09   93.39
   3   0 -17  -24.90   61.39
   3   0 -17   46.20   56.29
   3   0 -17  -69.49  129.79
   2   0 -17   55.19   57.59
  -2   0  17  154.68  105.39
   2   0 -17  -45.10  133.39
   2   0 -17  107.69   49.99
   2   0 -17   69.59   59.49
   1   0 -17 1166.08  105.09
   1   0 -17 1017.80  120.39
  -1   0  17 1164.98  188.18
   1   0 -17  729.73  108.19
   0   0  17   88.39   98.49
   0   0 -17   26.20   64.29
   0   0 -17  -44.90   57.99
   0   0 -17  -57.19  137.89
   0   0 -17   20.20   48.80
   4  -1 -17   76.49   70.89
  -4   1  17   43.10   83.79
  -3  -1  17   93.99  120.99
   3  -1 -17   93.29   72.59
   3  -1 -17  -38.70  158.38
   3  -1 -17  206.68   81.89
   3   1 -17   34.00  119.69
   3   1 -17  160.68   69.49
   3   1 -17    2.00   57.89
  -3   1  17  134.19   84.49
   3   1 -17  254.47   65.69
   2  -1 -17   76.39   46.20
   2  -1 -17  -11.30   64.69
   2  -1 -17   82.19   65.09
  -2  -1  17  154.38  134.99
   2  -1 -17  -90.99  153.38
   2   1 -17  -88.69  127.29
   2   1 -17  -10.80   70.99
  -2   1  17   13.80   95.69
   2   1 -17   38.50   55.39
   2   1 -17   18.80   51.49
   1  -1 -17  108.89   45.40
   1  -1 -17 -190.78  151.58
   1  -1 -17   70.69   73.09
  -1  -1  17   68.89  134.29
   1  -1 -17  -18.90   68.49
   1   1 -17   65.09   65.69
   1   1 -17   -5.50  130.39
  -1   1  17   70.69   97.59
   1   1 -17  -25.80   49.99
   1   1 -17   70.59   51.89

_computing_structure_solution     'SHELXT 2014/4 (Sheldrick, 2014)'
;
_shelx_hkl_checksum              78882
loop_
_space_group_symop_operation_xyz
'x, y, z'
'-x, y+1/2, -z'
loop_
_atom_site_label
_atom_site_type_symbol
_atom_site_fract_x
_atom_site_fract_y
_atom_site_fract_z
_atom_site_U_iso_or_equiv
_atom_site_adp_type
_atom_site_occupancy
_atom_site_site_symmetry_order
_atom_site_calc_flag
_atom_site_refinement_flags_posn
_atom_site_refinement_flags_adp
_atom_site_refinement_flags_occupancy
_atom_site_disorder_assembly
_atom_site_disorder_group
Na1 Na 0.4066(7) -0.330(4) 0.9684(4) 0.023(3) Uani 1 1 d . . . . .
Na3 Na 0.6641(7) 0.714(4) -0.0687(4) 0.023(3) Uani 1 1 d . . . . .
Na4 Na 0.8851(7) 1.151(4) 0.0242(4) 0.031(3) Uani 1 1 d . . . . .
Na2 Na 0.8238(8) -0.187(4) 0.8146(4) 0.037(3) Uani 1 1 d . . . . .
O10 O 0.7466(13) 0.459(5) 0.0317(8) 0.027(5) Uani 1 1 d . . . . .
O1 O 0.5001(13) -0.029(5) 0.9255(8) 0.019(5) Uani 1 1 d . . . . .
O11 O 0.7411(12) 0.878(5) 0.0364(7) 0.017(5) Uani 1 1 d . . . . .
O12 O 0.9806(11) 1.306(5) -0.0528(7) 0.025(5) Uani 1 1 d . . . . .
H12A H 0.9216 1.3606 -0.0913 0.030 Uiso 1 1 calc R . . . .
H12B H 1.0215 1.1603 -0.0665 0.030 Uiso 1 1 calc R . . . .
O9 O 0.9836(14) 0.353(5) 0.1205(9) 0.051(4) Uani 1 1 d . . . . .
O2 O 0.5209(14) 0.396(5) 0.9206(8) 0.028(5) Uani 1 1 d . . . . .
O4 O 0.7794(14) 0.473(5) 0.8731(7) 0.027(5) Uani 1 1 d . . . . .
O3 O 0.7353(14) 0.063(5) 0.8775(7) 0.031(5) Uani 1 1 d . . . . .
O5 O 0.6556(13) 0.720(5) 0.7347(7) 0.035(5) Uani 1 1 d . . . . .
N2 N 0.8053(16) 0.411(5) 0.2351(9) 0.027(4) Uani 1 1 d . . . . .
H2 H 0.8378 0.5372 0.2602 0.032 Uiso 1 1 calc R . . . .
N1 N 0.6084(14) 0.306(5) 0.7432(8) 0.027(4) Uani 1 1 d . U . . .
H1 H 0.5915 0.1583 0.7234 0.032 Uiso 1 1 calc R . . . .
C5 C 0.641(2) 0.498(7) 0.7117(13) 0.036(4) Uani 1 1 d . U . . .
C6 C 0.653(2) 0.452(6) 0.6436(12) 0.027(6) Uani 1 1 d . U . . .
O8 O 1.0033(15) 0.165(6) 0.2171(8) 0.051(4) Uani 1 1 d . . . . .
O6 O 0.8733(17) 0.192(6) 0.7605(9) 0.074(6) Uani 1 1 d . . . . .
C22 C 0.760(2) 0.659(8) 0.0628(12) 0.028(3) Uani 1 1 d . . . . .
C3 C 0.600(2) 0.333(6) 0.8104(10) 0.028(6) Uani 1 1 d . U . . .
H3 H 0.5775 0.5128 0.8165 0.034 Uiso 1 1 calc R . . . .
O7 O 0.689(2) 0.076(5) 0.2254(11) 0.092(9) Uani 1 1 d . . . . .
C19 C 0.824(2) 0.403(6) 0.1700(11) 0.036(8) Uani 1 1 d . U . . .
H19 H 0.7703 0.2750 0.1444 0.043 Uiso 1 1 calc R . . . .
C1 C 0.509(2) 0.165(8) 0.8971(12) 0.028(3) Uani 1 1 d . . . . .
C21 C 0.797(2) 0.667(7) 0.1360(9) 0.028(3) Uani 1 1 d . . . . .
H21A H 0.7365 0.7498 0.1526 0.034 Uiso 1 1 calc R . . . .
H21B H 0.8663 0.7750 0.1485 0.034 Uiso 1 1 calc R . . . .
C2 C 0.505(2) 0.158(6) 0.8225(10) 0.031(7) Uani 1 1 d . U . . .
H2A H 0.5163 -0.0188 0.8090 0.037 Uiso 1 1 calc R . . . .
H2B H 0.4295 0.2183 0.7972 0.037 Uiso 1 1 calc R . . . .
C9 C 0.682(2) 0.393(6) 0.5173(15) 0.024(7) Uani 1 1 d . . . . .
C12 C 0.702(3) 0.363(4) 0.4515(12) 0.043(9) Uani 1 1 d D . . . .
C15 C 0.730(2) 0.297(5) 0.3268(10) 0.036(4) Uani 1 1 d D . . . .
C7 C 0.600(2) 0.253(7) 0.6064(14) 0.041(8) Uani 1 1 d . . . . .
H7 H 0.5543 0.1355 0.6230 0.049 Uiso 1 1 calc R . . . .
C4 C 0.714(2) 0.286(8) 0.8570(12) 0.028(3) Uani 1 1 d . . . . .
C18 C 0.748(2) 0.259(7) 0.2586(12) 0.036(4) Uani 1 1 d . . . . .
C10 C 0.730(2) 0.589(6) 0.5573(12) 0.033(7) Uani 1 1 d . U . . .
H10 H 0.7769 0.7069 0.5416 0.040 Uiso 1 1 calc R . . . .
O13 O 0.950(2) -0.167(6) 0.3038(11) 0.111(9) Uani 1 1 d . . . . .
H13 H 0.9887 -0.0812 0.2833 0.167 Uiso 1 1 calc R . . . .
C8 C 0.614(3) 0.227(7) 0.5439(14) 0.043(8) Uani 1 1 d . . . . .
H8 H 0.5771 0.0903 0.5180 0.052 Uiso 1 1 calc R . . . .
C11 C 0.716(2) 0.624(6) 0.6188(11) 0.035(7) Uani 1 1 d . U . . .
H11 H 0.7490 0.7662 0.6438 0.042 Uiso 1 1 calc R . . . .
C20 C 0.949(2) 0.320(6) 0.1684(14) 0.028(3) Uani 1 1 d . U . . .
C13A C 0.621(3) 0.265(4) 0.407(2) 0.047(10) Uani 0.5 1 d D . P A 1
H13A H 0.5520 0.2161 0.4174 0.056 Uiso 0.5 1 calc R . P A 1
C14A C 0.633(3) 0.227(5) 0.3412(14) 0.047(10) Uani 0.5 1 d D . P A 1
H14A H 0.5726 0.1550 0.3090 0.056 Uiso 0.5 1 calc R . P A 1
C16B C 0.729(4) 0.539(9) 0.3517(17) 0.046(9) Uani 0.5 1 d D . P A -1
H16B H 0.7365 0.6843 0.3264 0.055 Uiso 0.5 1 calc R . P A -1
C16A C 0.821(3) 0.406(9) 0.375(2) 0.047(10) Uani 0.5 1 d D . P A 1
H16A H 0.8901 0.4539 0.3643 0.056 Uiso 0.5 1 calc R . P A 1
C17B C 0.717(4) 0.565(9) 0.417(2) 0.046(9) Uani 0.5 1 d D . P A -1
H17B H 0.7203 0.7305 0.4352 0.055 Uiso 0.5 1 calc R . P A -1
C17A C 0.811(4) 0.441(9) 0.4369(16) 0.047(10) Uani 0.5 1 d D . P A 1
H17A H 0.8708 0.5128 0.4692 0.056 Uiso 0.5 1 calc R . P A 1
C13B C 0.668(5) 0.119(9) 0.417(2) 0.046(9) Uani 0.5 1 d D . P A -1
H13B H 0.6356 -0.0148 0.4366 0.055 Uiso 0.5 1 calc R . P A -1
C14B C 0.685(4) 0.092(8) 0.3575(18) 0.046(9) Uani 0.5 1 d D . P A -1
H14B H 0.6671 -0.0654 0.3352 0.055 Uiso 0.5 1 calc R . P A -1
C23 C 0.995(6) -0.137(15) 0.370(3) 0.08(2) Uiso 0.5 1 d . . P . .
H23A H 1.0055 0.0449 0.3797 0.127 Uiso 0.5 1 calc GR . P . .
H23B H 1.0682 -0.2252 0.3823 0.127 Uiso 0.5 1 calc GR . P . .
H23C H 0.9419 -0.2097 0.3933 0.127 Uiso 0.5 1 calc GR . P . .
loop_
_atom_site_aniso_label
_atom_site_aniso_U_11
_atom_site_aniso_U_22
_atom_site_aniso_U_33
_atom_site_aniso_U_23
_atom_site_aniso_U_13
_atom_site_aniso_U_12
Na1 0.020(6) 0.020(5) 0.029(6) 0.006(5) 0.007(4) 0.004(5)
Na3 0.028(6) 0.016(6) 0.027(5) -0.006(5) 0.012(4) -0.004(5)
Na4 0.027(6) 0.022(5) 0.047(6) 0.006(6) 0.017(5) 0.004(5)
Na2 0.032(7) 0.040(7) 0.045(6) 0.005(5) 0.018(5) -0.001(5)
O10 0.028(12) 0.023(12) 0.030(12) -0.012(9) 0.009(9) 0.004(9)
O1 0.032(12) 0.012(11) 0.016(10) 0.005(9) 0.013(8) -0.004(9)
O11 0.014(11) 0.013(10) 0.020(11) 0.002(9) -0.002(8) 0.002(8)
O12 0.015(10) 0.022(10) 0.039(10) 0.004(8) 0.004(8) -0.001(9)
O9 0.044(9) 0.065(10) 0.054(10) -0.001(9) 0.029(8) 0.003(8)
O2 0.020(11) 0.022(12) 0.043(12) -0.005(10) 0.007(9) 0.001(9)
O4 0.020(10) 0.017(11) 0.045(12) 0.004(10) 0.010(9) 0.009(10)
O3 0.042(13) 0.031(12) 0.028(12) -0.003(10) 0.026(10) -0.006(10)
O5 0.037(11) 0.029(13) 0.040(10) 0.001(10) 0.013(8) -0.016(9)
N2 0.021(9) 0.041(8) 0.022(6) -0.001(6) 0.011(6) -0.014(7)
N1 0.021(9) 0.041(8) 0.022(6) -0.001(6) 0.011(6) -0.014(7)
C5 0.051(12) 0.033(8) 0.033(7) 0.000(7) 0.028(7) -0.008(7)
C6 0.029(15) 0.028(12) 0.029(7) 0.005(8) 0.019(8) 0.002(11)
O8 0.044(9) 0.065(10) 0.054(10) -0.001(9) 0.029(8) 0.003(8)
O6 0.083(16) 0.067(16) 0.079(13) 0.017(14) 0.033(12) 0.002(14)
C22 0.020(7) 0.031(8) 0.034(7) 0.004(10) 0.008(6) 0.014(8)
C3 0.036(14) 0.028(12) 0.025(7) -0.002(7) 0.019(8) -0.016(11)
O7 0.18(3) 0.037(15) 0.084(17) -0.031(13) 0.080(17) -0.012(15)
C19 0.031(12) 0.06(2) 0.018(17) -0.001(16) 0.016(11) 0.015(12)
C1 0.020(7) 0.031(8) 0.034(7) 0.004(10) 0.008(6) 0.014(8)
C21 0.020(7) 0.031(8) 0.034(7) 0.004(10) 0.008(6) 0.014(8)
C2 0.041(13) 0.030(14) 0.030(12) -0.007(11) 0.024(10) -0.019(12)
C9 0.021(19) 0.006(16) 0.04(2) -0.001(18) 0.010(17) 0.002(15)
C12 0.07(3) 0.03(2) 0.03(2) 0.015(17) 0.017(18) -0.004(18)
C15 0.051(12) 0.033(8) 0.033(7) 0.000(7) 0.028(7) -0.008(7)
C7 0.039(19) 0.06(2) 0.026(19) -0.019(19) 0.015(15) -0.008(17)
C4 0.020(7) 0.031(8) 0.034(7) 0.004(10) 0.008(6) 0.014(8)
C18 0.051(12) 0.033(8) 0.033(7) 0.000(7) 0.028(7) -0.008(7)
C10 0.035(16) 0.036(17) 0.035(9) 0.010(11) 0.020(10) -0.001(14)
O13 0.11(2) 0.11(2) 0.11(2) 0.016(17) 0.020(16) -0.048(18)
C8 0.06(2) 0.04(2) 0.03(2) -0.003(19) 0.013(16) 0.02(2)
C11 0.038(15) 0.038(12) 0.035(9) 0.009(10) 0.021(10) -0.004(12)
C20 0.020(7) 0.031(8) 0.034(7) 0.004(10) 0.008(6) 0.014(8)
C13A 0.04(2) 0.06(2) 0.04(2) 0.01(2) 0.02(2) -0.011(19)
C14A 0.04(2) 0.06(2) 0.04(2) 0.01(2) 0.02(2) -0.011(19)
C16B 0.04(2) 0.07(3) 0.031(19) 0.01(2) 0.027(18) -0.009(19)
C16A 0.04(2) 0.06(2) 0.04(2) 0.01(2) 0.02(2) -0.011(19)
C17B 0.04(2) 0.07(3) 0.031(19) 0.01(2) 0.027(18) -0.009(19)
C17A 0.04(2) 0.06(2) 0.04(2) 0.01(2) 0.02(2) -0.011(19)
C13B 0.04(2) 0.07(3) 0.031(19) 0.01(2) 0.027(18) -0.009(19)
C14B 0.04(2) 0.07(3) 0.031(19) 0.01(2) 0.027(18) -0.009(19)
loop_
_atom_type_symbol
_atom_type_description
_atom_type_scat_dispersion_real
_atom_type_scat_dispersion_imag
_atom_type_scat_source
C C 0.0060 0.0030 'Calculated using XDISP in WinGX (Farrugia, 1999)'
H H 0.0000 0.0000 'Calculated using XDISP in WinGX (Farrugia, 1999)'
N N 0.0100 0.0050 'Calculated using XDISP in WinGX (Farrugia, 1999)'
O O 0.0180 0.0100 'Calculated using XDISP in WinGX (Farrugia, 1999)'
Na Na 0.0560 0.0400 'Calculated using XDISP in WinGX (Farrugia, 1999)'
loop_
_geom_angle_atom_site_label_1
_geom_angle_atom_site_label_2
_geom_angle_atom_site_label_3
_geom_angle
_geom_angle_site_symmetry_1
_geom_angle_site_symmetry_3
Na1 Na1 Na1 96.7(4) 2_647 2_657
Na1 Na1 Na4 120.8(3) 2_647 2_636
Na1 Na1 Na4 123.8(3) 2_657 2_636
Na3 Na1 Na1 120.9(4) 2_636 2_657
Na3 Na1 Na1 59.9(3) 1_546 2_657
Na3 Na1 Na1 58.4(2) 2_636 2_647
Na3 Na1 Na1 66.3(3) 1_546 2_647
Na3 Na1 Na3 124.6(3) 1_546 2_636
Na3 Na1 Na4 169.2(3) 1_546 2_636
Na3 Na1 Na4 63.8(2) 2_636 2_636
O10 Na1 Na1 87.3(4) 2_646 2_657
O10 Na1 Na1 154.2(6) 2_646 2_647
O10 Na1 Na3 135.1(5) 2_646 1_546
O10 Na1 Na3 97.7(5) 2_646 2_636
O10 Na1 Na4 41.1(4) 2_646 2_636
O10 Na1 O1 116.6(7) 2_646 2_647
O10 Na1 O2 78.7(6) 2_646 2_647
O10 Na1 C1 95.7(8) 2_646 2_647
O1 Na1 Na1 81.8(5) 2_647 2_657
O1 Na1 Na1 39.8(4) 2_647 2_647
O1 Na1 Na1 45.1(4) . 2_657
O1 Na1 Na1 109.8(6) . 2_647
O1 Na1 Na3 89.9(4) 2_647 1_546
O1 Na1 Na3 44.2(4) . 1_546
O1 Na1 Na3 163.3(5) . 2_636
O1 Na1 Na3 43.5(4) 2_647 2_636
O1 Na1 Na4 129.4(5) . 2_636
O1 Na1 Na4 100.6(5) 2_647 2_636
O1 Na1 O10 91.1(6) . 2_646
O1 Na1 O1 119.8(5) . 2_647
O1 Na1 O11 153.2(6) . 2_636
O1 Na1 O2 52.3(5) 2_647 2_647
O1 Na1 O2 81.5(6) . 1_545
O1 Na1 O2 87.6(6) . 2_647
O1 Na1 C1 108.9(8) . 2_647
O1 Na1 C1 25.5(7) 2_647 2_647
O11 Na1 Na1 157.1(6) 2_636 2_657
O11 Na1 Na1 86.6(4) 2_636 2_647
O11 Na1 Na3 43.2(4) 2_636 2_636
O11 Na1 Na3 140.1(5) 2_636 1_546
O11 Na1 Na4 39.7(4) 2_636 2_636
O11 Na1 O10 80.4(5) 2_636 2_646
O11 Na1 O1 86.5(6) 2_636 2_647
O11 Na1 O2 95.7(7) 2_636 1_545
O11 Na1 O2 115.2(6) 2_636 2_647
O11 Na1 C1 97.2(7) 2_636 2_647
O2 Na1 Na1 86.9(5) 2_647 2_647
O2 Na1 Na1 47.7(4) 1_545 2_647
O2 Na1 Na1 42.8(4) 2_647 2_657
O2 Na1 Na1 103.3(5) 1_545 2_657
O2 Na1 Na3 93.0(5) 2_647 1_546
O2 Na1 Na3 44.4(4) 1_545 1_546
O2 Na1 Na3 95.7(5) 1_545 2_636
O2 Na1 Na3 80.4(4) 2_647 2_636
O2 Na1 Na4 132.9(6) 1_545 2_636
O2 Na1 Na4 95.4(5) 2_647 2_636
O2 Na1 O10 155.4(7) 1_545 2_646
O2 Na1 O1 87.1(6) 1_545 2_647
O2 Na1 O2 124.0(5) 1_545 2_647
O2 Na1 C1 108.8(8) 1_545 2_647
O2 Na1 C1 27.6(7) 2_647 2_647
C1 Na1 Na1 63.7(8) 2_647 2_647
C1 Na1 Na1 64.6(7) 2_647 2_657
C1 Na1 Na3 96.2(5) 2_647 1_546
C1 Na1 Na3 56.3(7) 2_647 2_636
C1 Na1 Na4 94.4(5) 2_647 2_636
Na1 Na3 Na1 61.7(2) 1_564 2_666
Na1 Na3 Na2 126.3(3) 2_666 1_564
Na1 Na3 Na2 149.3(3) 1_564 1_564
O10 Na3 Na1 87.1(4) . 2_666
O10 Na3 Na1 88.0(5) . 1_564
O10 Na3 Na2 120.2(5) . 1_564
O10 Na3 C22 26.3(7) . .
O10 Na3 C1 136.2(7) . 1_564
O10 Na3 C4 87.7(7) . 1_554
O1 Na3 Na1 41.4(4) 1_564 1_564
O1 Na3 Na1 46.4(4) 1_564 2_666
O1 Na3 Na2 118.1(5) 1_564 1_564
O1 Na3 O10 120.0(6) 1_564 .
O1 Na3 O2 79.3(5) 1_564 1_554
O1 Na3 O4 147.4(6) 1_564 1_554
O1 Na3 O3 86.2(6) 1_564 1_564
O1 Na3 C22 104.6(8) 1_564 .
O1 Na3 C1 22.2(6) 1_564 1_564
O1 Na3 C4 133.8(7) 1_564 1_554
O11 Na3 Na1 88.8(4) . 1_564
O11 Na3 Na1 42.5(4) . 2_666
O11 Na3 Na2 117.0(5) . 1_564
O11 Na3 O10 53.4(5) . .
O11 Na3 O1 88.7(6) . 1_564
O11 Na3 O2 117.2(6) . 1_554
O11 Na3 O4 121.8(6) . 1_554
O11 Na3 O3 93.9(6) . 1_564
O11 Na3 C22 27.2(7) . .
O11 Na3 C1 91.4(7) . 1_564
O11 Na3 C4 135.4(7) . 1_554
O2 Na3 Na1 105.3(5) 1_554 2_666
O2 Na3 Na1 44.6(4) 1_554 1_564
O2 Na3 Na2 123.0(5) 1_554 1_564
O2 Na3 O10 80.7(6) 1_554 .
O2 Na3 O4 94.5(6) 1_554 1_554
O2 Na3 O3 145.0(6) 1_554 1_564
O2 Na3 C22 98.2(8) 1_554 .
O2 Na3 C1 97.6(7) 1_554 1_564
O2 Na3 C4 69.1(8) 1_554 1_554
O4 Na3 Na1 138.8(5) 1_554 1_564
O4 Na3 Na1 159.2(5) 1_554 2_666
O4 Na3 Na2 40.6(4) 1_554 1_564
O4 Na3 O10 89.9(6) 1_554 .
O4 Na3 C22 107.9(7) 1_554 .
O4 Na3 C1 133.6(7) 1_554 1_564
O4 Na3 C4 25.5(6) 1_554 1_554
O3 Na3 Na1 86.4(5) 1_564 2_666
O3 Na3 Na1 127.6(5) 1_564 1_564
O3 Na3 Na2 40.6(4) 1_564 1_564
O3 Na3 O10 133.6(6) 1_564 .
O3 Na3 O4 80.9(6) 1_564 1_554
O3 Na3 C22 116.4(8) 1_564 .
O3 Na3 C1 64.1(8) 1_564 1_564
O3 Na3 C4 100.7(7) 1_564 1_554
C22 Na3 Na1 86.8(5) . 1_564
C22 Na3 Na1 63.5(7) . 2_666
C22 Na3 Na2 123.9(6) . 1_564
C22 Na3 C1 114.3(9) . 1_564
C22 Na3 C4 112.3(9) . 1_554
C1 Na3 Na1 63.5(6) 1_564 1_564
C1 Na3 Na1 50.8(5) 1_564 2_666
C1 Na3 Na2 97.5(6) 1_564 1_564
C4 Na3 Na1 172.9(7) 1_554 2_666
C4 Na3 Na1 113.3(7) 1_554 1_564
C4 Na3 Na2 60.7(7) 1_554 1_564
C4 Na3 C1 132.9(7) 1_554 1_564
Na1 Na4 Na3 56.5(2) 2_666 .
Na1 Na4 Na3 58.1(2) 2_666 1_565
Na1 Na4 Na4 139.5(3) 2_666 2_745
Na1 Na4 Na4 136.4(3) 2_666 2_755
Na3 Na4 Na3 83.5(2) . 1_565
Na3 Na4 Na4 85.2(2) . 2_745
Na3 Na4 Na4 134.6(4) . 2_755
Na4 Na4 Na3 136.8(3) 2_745 1_565
Na4 Na4 Na3 79.83(19) 2_755 1_565
Na4 Na4 Na4 79.0(3) 2_755 2_745
O10 Na4 Na1 41.7(4) 1_565 2_666
O10 Na4 Na3 32.8(4) 1_565 1_565
O10 Na4 Na3 91.6(5) 1_565 .
O10 Na4 Na4 96.4(4) 1_565 2_755
O10 Na4 Na4 169.5(6) 1_565 2_745
O10 Na4 O12 160.6(7) 1_565 2_745
O10 Na4 C20 75.5(7) 1_565 1_565
O11 Na4 Na1 40.2(4) . 2_666
O11 Na4 Na3 94.5(4) . 1_565
O11 Na4 Na3 38.1(4) . .
O11 Na4 Na4 101.8(4) . 2_745
O11 Na4 Na4 171.9(6) . 2_755
O11 Na4 O10 81.5(5) . 1_565
O11 Na4 O12 142.8(6) . .
O11 Na4 O12 89.3(6) . 2_745
O11 Na4 O9 114.6(7) . 1_565
O11 Na4 C20 94.7(7) . 1_565
O12 Na4 Na1 128.6(5) 2_745 2_666
O12 Na4 Na1 132.3(5) . 2_666
O12 Na4 Na3 91.5(5) 2_745 .
O12 Na4 Na3 166.4(5) 2_745 1_565
O12 Na4 Na3 77.9(4) . 1_565
O12 Na4 Na3 104.6(5) . .
O12 Na4 Na4 30.5(4) . 2_755
O12 Na4 Na4 29.8(3) 2_745 2_745
O12 Na4 Na4 65.0(5) . 2_745
O12 Na4 Na4 95.0(5) 2_745 2_755
O12 Na4 O10 106.4(6) . 1_565
O12 Na4 O12 91.3(5) . 2_745
O12 Na4 C20 122.6(7) . 1_565
O12 Na4 C20 88.4(7) 2_745 1_565
O9 Na4 Na1 104.2(5) 1_565 2_666
O9 Na4 Na3 152.8(6) 1_565 .
O9 Na4 Na3 103.0(6) 1_565 1_565
O9 Na4 Na4 105.9(6) 1_565 2_745
O9 Na4 Na4 72.6(5) 1_565 2_755
O9 Na4 O10 81.4(7) 1_565 1_565
O9 Na4 O12 102.6(7) 1_565 .
O9 Na4 O12 87.1(6) 1_565 2_745
O9 Na4 C20 20.0(6) 1_565 1_565
C20 Na4 Na1 87.9(5) 1_565 2_666
C20 Na4 Na3 104.2(6) 1_565 1_565
C20 Na4 Na3 132.8(6) 1_565 .
C20 Na4 Na4 113.9(6) 1_565 2_745
C20 Na4 Na4 92.4(6) 1_565 2_755
O9 Na2 Na3 103.1(5) 2_746 1_546
O9 Na2 O8 54.6(6) 2_746 2_746
O9 Na2 O6 83.4(7) 2_746 .
O9 Na2 C4 100.9(8) 2_746 .
O9 Na2 C20 26.6(6) 2_746 2_746
O4 Na2 Na3 43.2(4) 1_545 1_546
O4 Na2 O9 94.4(7) 1_545 2_746
O4 Na2 O3 85.8(6) 1_545 .
O4 Na2 O5 87.6(6) 1_545 1_545
O4 Na2 O8 103.1(7) 1_545 2_746
O4 Na2 O6 175.5(7) 1_545 .
O4 Na2 C4 107.1(7) 1_545 .
O4 Na2 C20 107.5(7) 1_545 2_746
O3 Na2 Na3 43.0(5) . 1_546
O3 Na2 O9 97.8(7) . 2_746
O3 Na2 O5 95.5(6) . 1_545
O3 Na2 O8 151.1(8) . 2_746
O3 Na2 O6 90.6(7) . .
O3 Na2 C4 21.9(6) . .
O3 Na2 C20 121.0(9) . 2_746
O5 Na2 Na3 87.4(5) 1_545 1_546
O5 Na2 O9 166.7(7) 1_545 2_746
O5 Na2 O8 112.1(7) 1_545 2_746
O5 Na2 O6 95.4(7) 1_545 .
O5 Na2 C4 91.1(7) 1_545 .
O5 Na2 C20 140.8(8) 1_545 2_746
O8 Na2 Na3 142.0(6) 2_746 1_546
O8 Na2 C4 142.5(9) 2_746 .
O8 Na2 C20 30.1(7) 2_746 2_746
O6 Na2 Na3 133.5(6) . 1_546
O6 Na2 O8 78.9(7) . 2_746
O6 Na2 C4 69.5(8) . .
O6 Na2 C20 72.2(8) . 2_746
C4 Na2 Na3 63.9(6) . 1_546
C20 Na2 Na3 128.5(7) 2_746 1_546
C20 Na2 C4 117.0(9) 2_746 .
Na1 O10 Na3 100.8(6) 2_656 .
Na4 O10 Na1 97.2(6) 1_545 2_656
Na4 O10 Na3 116.7(8) 1_545 .
C22 O10 Na1 123.0(16) . 2_656
C22 O10 Na3 88.8(15) . .
C22 O10 Na4 128.0(16) . 1_545
Na1 O1 Na1 95.1(6) . 2_657
Na1 O1 Na3 94.4(6) . 1_546
Na3 O1 Na1 90.0(6) 1_546 2_657
C1 O1 Na1 91.3(15) . 2_657
C1 O1 Na1 155.2(16) . .
C1 O1 Na3 109.5(15) . 1_546
Na1 O11 Na3 94.2(6) 2_666 .
Na4 O11 Na1 100.2(6) . 2_666
Na4 O11 Na3 104.7(7) . .
C22 O11 Na1 131.7(16) . 2_666
C22 O11 Na3 94.5(15) . .
C22 O11 Na4 123.0(15) . .
Na4 O12 Na4 119.7(6) . 2_755
Na4 O12 H12A 107.4 2_755 .
Na4 O12 H12A 107.4 . .
Na4 O12 H12B 107.4 2_755 .
Na4 O12 H12B 107.4 . .
H12A O12 H12B 106.9 . .
Na4 O9 Na2 132.2(9) 1_545 2_756
C20 O9 Na4 117.6(18) . 1_545
C20 O9 Na2 89.2(16) . 2_756
Na1 O2 Na1 89.5(6) 1_565 2_657
Na3 O2 Na1 98.8(6) 1_556 2_657
Na3 O2 Na1 91.0(6) 1_556 1_565
C1 O2 Na1 134.4(16) . 1_565
C1 O2 Na1 84.8(14) . 2_657
C1 O2 Na3 134.6(17) . 1_556
Na2 O4 Na3 96.2(6) 1_565 1_556
C4 O4 Na3 98.3(16) . 1_556
C4 O4 Na2 132.0(16) . 1_565
Na2 O3 Na3 96.3(7) . 1_546
C4 O3 Na3 143.2(19) . 1_546
C4 O3 Na2 114.5(16) . .
C5 O5 Na2 119.1(16) . 1_565
C19 N2 H2 116.7 . .
C18 N2 H2 116.7 . .
C18 N2 C19 127(2) . .
C5 N1 H1 119.3 . .
C5 N1 C3 121(2) . .
C3 N1 H1 119.3 . .
O5 C5 N1 123(2) . .
O5 C5 C6 119(3) . .
N1 C5 C6 118(3) . .
C7 C6 C5 122(3) . .
C11 C6 C5 117(3) . .
C11 C6 C7 120(2) . .
C20 O8 Na2 83.6(14) . 2_756
O10 C22 Na3 64.9(13) . .
O10 C22 O11 123(2) . .
O10 C22 C21 123(3) . .
O11 C22 Na3 58.2(11) . .
O11 C22 C21 114(3) . .
C21 C22 Na3 170(2) . .
N1 C3 H3 107.6 . .
N1 C3 C2 109.6(18) . .
N1 C3 C4 111.1(18) . .
C2 C3 H3 107.6 . .
C4 C3 H3 107.6 . .
C4 C3 C2 113(2) . .
N2 C19 H19 107.8 . .
N2 C19 C21 110.5(19) . .
N2 C19 C20 113.5(18) . .
C21 C19 H19 107.8 . .
C21 C19 C20 109(2) . .
C20 C19 H19 107.8 . .
Na1 C1 Na3 72.9(7) 2_657 1_546
O1 C1 Na1 63.2(13) . 2_657
O1 C1 Na3 48.3(13) . 1_546
O1 C1 O2 128(2) . .
O1 C1 C2 120(3) . .
O2 C1 Na1 67.6(13) . 2_657
O2 C1 Na3 129.2(16) . 1_546
O2 C1 C2 112(3) . .
C2 C1 Na1 160.9(16) . 2_657
C2 C1 Na3 95.2(16) . 1_546
C22 C21 C19 116(2) . .
C22 C21 H21A 108.4 . .
C22 C21 H21B 108.4 . .
C19 C21 H21A 108.4 . .
C19 C21 H21B 108.4 . .
H21A C21 H21B 107.4 . .
C3 C2 C1 108(2) . .
C3 C2 H2A 110.1 . .
C3 C2 H2B 110.1 . .
C1 C2 H2A 110.1 . .
C1 C2 H2B 110.1 . .
H2A C2 H2B 108.4 . .
C10 C9 C12 121(3) . .
C10 C9 C8 115(3) . .
C8 C9 C12 124(2) . .
C13A C12 C9 118(3) . .
C13A C12 C17B 95(2) . .
C13A C12 C17A 120(2) . .
C13A C12 C13B 39(2) . .
C17B C12 C9 121(2) . .
C17B C12 C17A 54(3) . .
C17B C12 C13B 118(2) . .
C17A C12 C9 122(2) . .
C17A C12 C13B 107(2) . .
C13B C12 C9 118(2) . .
C14A C15 C18 121(2) . .
C14A C15 C16B 94(2) . .
C14A C15 C16A 121(2) . .
C14A C15 C14B 40(2) . .
C16B C15 C18 120(2) . .
C16B C15 C16A 55(3) . .
C16B C15 C14B 118(2) . .
C16A C15 C18 119(2) . .
C14B C15 C18 119(2) . .
C14B C15 C16A 106(2) . .
C6 C7 H7 120.7 . .
C6 C7 C8 119(3) . .
C8 C7 H7 120.7 . .
Na3 C4 Na2 162.8(10) 1_556 .
O4 C4 Na3 56.2(14) . 1_556
O4 C4 Na2 115.1(16) . .
O4 C4 C3 118(3) . .
O3 C4 Na3 126.0(18) . 1_556
O3 C4 Na2 43.5(12) . .
O3 C4 O4 125(2) . .
O3 C4 C3 118(3) . .
C3 C4 Na3 87.5(16) . 1_556
C3 C4 Na2 109.3(18) . .
N2 C18 O7 123(3) . .
N2 C18 C15 121(3) . .
O7 C18 C15 115(2) . .
C9 C10 H10 118.1 . .
C11 C10 C9 124(3) . .
C11 C10 H10 118.1 . .
C23 O13 H13 109.5 . .
C9 C8 H8 118.5 . .
C7 C8 C9 123(3) . .
C7 C8 H8 118.5 . .
C6 C11 C10 120(3) . .
C6 C11 H11 120.2 . .
C10 C11 H11 120.2 . .
Na2 C20 Na4 97.7(9) 2_756 1_545
O9 C20 Na4 42.3(14) . 1_545
O9 C20 Na2 64.2(14) . 2_756
O9 C20 O8 122(2) . .
O9 C20 C19 120(2) . .
O8 C20 Na4 122.9(17) . 1_545
O8 C20 Na2 66.2(13) . 2_756
O8 C20 C19 116(2) . .
C19 C20 Na4 95.0(14) . 1_545
C19 C20 Na2 162.5(18) . 2_756
C12 C13A H13A 119.0 . .
C12 C13A C14A 122(3) . .
C12 C13A C17B 43.2(18) . .
C12 C13A C14B 107(3) . .
C14A C13A H13A 119.0 . .
C14A C13A C17B 91.0(19) . .
C14A C13A C14B 34.1(17) . .
C17B C13A H13A 137.1 . .
C13B C13A C12 81(4) . .
C13B C13A H13A 104.2 . .
C13B C13A C14A 85(3) . .
C13B C13A C17B 109(4) . .
C13B C13A C14B 51(3) . .
C14B C13A H13A 123.8 . .
C14B C13A C17B 98(2) . .
C15 C14A C13A 119(3) . .
C15 C14A H14A 120.7 . .
C15 C14A C16B 43.6(17) . .
C15 C14A C13B 106(2) . .
C13A C14A H14A 120.7 . .
C13A C14A C16B 88.3(19) . .
C13A C14A C13B 35(2) . .
C16B C14A H14A 137.5 . .
C13B C14A H14A 122.3 . .
C13B C14A C16B 99(2) . .
C14B C14A C15 75(4) . .
C14B C14A C13A 88(2) . .
C14B C14A H14A 106.8 . .
C14B C14A C16B 104(4) . .
C14B C14A C13B 53(3) . .
C15 C16B C14A 42.2(16) . .
C15 C16B H16B 120.8 . .
C15 C16B C17B 118(3) . .
C15 C16B C17A 94(2) . .
C14A C16B H16B 136.6 . .
C16A C16B C15 65(3) . .
C16A C16B C14A 92(2) . .
C16A C16B H16B 117.5 . .
C16A C16B C17B 87(3) . .
C16A C16B C17A 45(2) . .
C17B C16B C14A 90(2) . .
C17B C16B H16B 120.8 . .
C17B C16B C17A 42(3) . .
C17A C16B C14A 92.4(16) . .
C17A C16B H16B 131.0 . .
C15 C16A H16A 119.5 . .
C15 C16A C17B 92(2) . .
C16B C16A C15 60(3) . .
C16B C16A H16A 118.5 . .
C16B C16A C17B 49(2) . .
C16B C16A C17A 92(2) . .
C17B C16A H16A 135.6 . .
C17A C16A C15 121(3) . .
C17A C16A H16A 119.5 . .
C17A C16A C17B 42.8(19) . .
C12 C17B C13A 41.7(17) . .
C12 C17B C16B 121(3) . .
C12 C17B C16A 96(3) . .
C12 C17B H17B 119.3 . .
C13A C17B H17B 138.3 . .
C16B C17B C13A 91(2) . .
C16B C17B C16A 44(3) . .
C16B C17B H17B 119.3 . .
C16A C17B C13A 92.3(17) . .
C16A C17B H17B 129.3 . .
C17A C17B C12 69(3) . .
C17A C17B C13A 95(3) . .
C17A C17B C16B 89(3) . .
C17A C17B C16A 46(2) . .
C17A C17B H17B 112.4 . .
C12 C17A C16B 90(2) . .
C12 C17A H17A 121.3 . .
C16B C17A H17A 135.2 . .
C16A C17A C12 117(3) . .
C16A C17A C16B 43.1(18) . .
C16A C17A H17A 121.3 . .
C17B C17A C12 57(3) . .
C17B C17A C16B 48(2) . .
C17B C17A C16A 91(2) . .
C17B C17A H17A 119.9 . .
C12 C13B C14A 99(2) . .
C12 C13B H13B 120.8 . .
C13A C13B C12 60(4) . .
C13A C13B C14A 60(3) . .
C13A C13B H13B 113.8 . .
C13A C13B C14B 95(4) . .
C14A C13B H13B 129.8 . .
C14B C13B C12 118(3) . .
C14B C13B C14A 35(2) . .
C14B C13B H13B 120.8 . .
C15 C14B C13A 99(2) . .
C15 C14B H14B 119.6 . .
C13A C14B H14B 133.0 . .
C14A C14B C15 65(4) . .
C14A C14B C13A 58(3) . .
C14A C14B C13B 91(4) . .
C14A C14B H14B 114.2 . .
C13B C14B C15 121(3) . .
C13B C14B C13A 34(3) . .
C13B C14B H14B 119.6 . .
O13 C23 H23A 109.5 . .
O13 C23 H23B 109.5 . .
O13 C23 H23C 109.5 . .
H23A C23 H23B 109.5 . .
H23A C23 H23C 109.5 . .
H23B C23 H23C 109.5 . .
loop_
_geom_bond_atom_site_label_1
_geom_bond_atom_site_label_2
_geom_bond_distance
_geom_bond_site_symmetry_2
Na1 Na1 3.509(10) 2_657
Na1 Na1 3.509(10) 2_647
Na1 Na3 3.396(12) 1_546
Na1 Na3 3.446(11) 2_636
Na1 Na4 3.567(12) 2_636
Na1 O10 2.391(17) 2_646
Na1 O1 2.497(17) 2_647
Na1 O1 2.253(18) .
Na1 O11 2.337(17) 2_636
Na1 O2 2.596(18) 2_647
Na1 O2 2.385(18) 1_545
Na1 C1 2.80(3) 2_647
Na3 Na1 3.395(12) 1_564
Na3 Na1 3.446(11) 2_666
Na3 Na2 3.525(12) 1_564
Na3 O10 2.512(17) .
Na3 O1 2.374(17) 1_564
Na3 O11 2.366(16) .
Na3 O2 2.375(18) 1_554
Na3 O4 2.427(16) 1_554
Na3 O3 2.421(18) 1_564
Na3 C22 2.77(3) .
Na3 C1 3.00(3) 1_564
Na3 C4 2.89(3) 1_554
Na4 Na1 3.567(12) 2_666
Na4 Na3 4.149(12) 1_565
Na4 Na4 4.123(13) 2_745
Na4 Na4 4.123(13) 2_755
Na4 O10 2.362(17) 1_565
Na4 O11 2.314(18) .
Na4 O12 2.360(16) .
Na4 O12 2.407(17) 2_745
Na4 O9 2.36(2) 1_565
Na4 C20 3.10(3) 1_565
Na2 Na3 3.525(12) 1_546
Na2 O9 2.412(19) 2_746
Na2 O4 2.308(18) 1_545
Na2 O3 2.309(18) .
Na2 O5 2.365(17) 1_545
Na2 O8 2.468(18) 2_746
Na2 O6 2.44(2) .
Na2 C4 3.05(3) .
Na2 C20 2.68(3) 2_746
O10 Na1 2.391(17) 2_656
O10 Na4 2.362(17) 1_545
O10 C22 1.23(3) .
O1 Na1 2.497(17) 2_657
O1 Na3 2.374(17) 1_546
O1 C1 1.20(3) .
O11 Na1 2.337(17) 2_666
O11 C22 1.27(3) .
O12 Na4 2.407(17) 2_755
O12 H12A 0.9900 .
O12 H12B 0.9900 .
O9 Na4 2.36(2) 1_545
O9 Na2 2.412(19) 2_756
O9 C20 1.20(3) .
O2 Na1 2.596(17) 2_657
O2 Na1 2.385(18) 1_565
O2 Na3 2.375(18) 1_556
O2 C1 1.30(3) .
O4 Na3 2.427(16) 1_556
O4 Na2 2.308(18) 1_565
O4 C4 1.26(3) .
O3 Na3 2.421(18) 1_546
O3 C4 1.25(3) .
O5 Na2 2.365(17) 1_565
O5 C5 1.26(3) .
N2 H2 0.8800 .
N2 C19 1.46(3) .
N2 C18 1.24(3) .
N1 H1 0.8800 .
N1 C5 1.32(3) .
N1 C3 1.46(3) .
C5 C6 1.51(4) .
C6 C7 1.37(3) .
C6 C11 1.36(3) .
O8 Na2 2.468(18) 2_756
O8 C20 1.35(3) .
C22 C21 1.51(3) .
C3 H3 1.0000 .
C3 C2 1.54(3) .
C3 C4 1.51(3) .
O7 C18 1.30(3) .
C19 H19 1.0000 .
C19 C21 1.56(4) .
C19 C20 1.58(3) .
C1 Na1 2.80(3) 2_657
C1 Na3 3.00(3) 1_546
C1 C2 1.57(3) .
C21 H21A 0.9900 .
C21 H21B 0.9900 .
C2 H2A 0.9900 .
C2 H2B 0.9900 .
C9 C12 1.49(3) .
C9 C10 1.37(3) .
C9 C8 1.40(3) .
C12 C13A 1.29(5) .
C12 C17B 1.33(5) .
C12 C17A 1.48(5) .
C12 C13B 1.48(5) .
C15 C18 1.53(3) .
C15 C14A 1.34(4) .
C15 C16B 1.37(5) .
C15 C16A 1.43(5) .
C15 C14B 1.43(5) .
C7 H7 0.9500 .
C7 C8 1.39(3) .
C4 Na3 2.89(3) 1_556
C10 H10 0.9500 .
C10 C11 1.37(3) .
O13 H13 0.8400 .
O13 C23 1.38(6) .
C8 H8 0.9500 .
C11 H11 0.9500 .
C20 Na4 3.10(3) 1_545
C20 Na2 2.68(3) 2_756
C13A H13A 0.9500 .
C13A C14A 1.45(4) .
C13A C17B 1.94(6) .
C13A C13B 0.95(6) .
C13A C14B 1.71(5) .
C14A H14A 0.9500 .
C14A C16B 1.99(6) .
C14A C13B 1.66(5) .
C14A C14B 0.96(5) .
C16B H16B 0.9500 .
C16B C16A 1.30(6) .
C16B C17B 1.43(5) .
C16B C17A 1.91(5) .
C16A H16A 0.9500 .
C16A C17B 1.89(5) .
C16A C17A 1.36(5) .
C17B H17B 0.9500 .
C17B C17A 1.28(6) .
C17A H17A 0.9500 .
C13B H13B 0.9500 .
C13B C14B 1.34(5) .
C14B H14B 0.9500 .
C23 H23A 0.9800 .
C23 H23B 0.9800 .
C23 H23C 0.9800 .
loop_
_geom_torsion_atom_site_label_1
_geom_torsion_atom_site_label_2
_geom_torsion_atom_site_label_3
_geom_torsion_atom_site_label_4
_geom_torsion
_geom_torsion_site_symmetry_1
_geom_torsion_site_symmetry_4
Na1 O10 C22 Na3 -102.1(13) 2_656 .
Na1 O10 C22 O11 -108(2) 2_656 .
Na1 O10 C22 C21 70(3) 2_656 .
Na1 O1 C1 Na1 105(4) . 2_657
Na1 O1 C1 Na3 -164(5) . 1_546
Na1 O1 C1 Na3 90.5(9) 2_657 1_546
Na1 O1 C1 O2 83(5) . .
Na1 O1 C1 O2 -22(3) 2_657 .
Na1 O1 C1 C2 -96(4) . .
Na1 O1 C1 C2 158.6(19) 2_657 .
Na1 O11 C22 Na3 99.8(16) 2_666 .
Na1 O11 C22 O10 106(3) 2_666 .
Na1 O11 C22 C21 -72(3) 2_666 .
Na1 O2 C1 Na1 -84.1(18) 1_565 2_657
Na1 O2 C1 Na3 -125.8(17) 1_565 1_546
Na1 O2 C1 Na3 -42(2) 2_657 1_546
Na1 O2 C1 O1 -63(3) 1_565 .
Na1 O2 C1 O1 21(3) 2_657 .
Na1 O2 C1 C2 117(2) 1_565 .
Na1 O2 C1 C2 -159.4(18) 2_657 .
Na1 C1 C2 C3 -42(8) 2_657 .
Na3 O10 C22 O11 -6(2) . .
Na3 O10 C22 C21 172(2) . .
Na3 O1 C1 Na1 -90.5(9) 1_546 2_657
Na3 O1 C1 O2 -112(2) 1_546 .
Na3 O1 C1 C2 68(2) 1_546 .
Na3 O11 C22 O10 6(2) . .
Na3 O11 C22 C21 -172.0(17) . .
Na3 O2 C1 Na1 97.3(18) 1_556 2_657
Na3 O2 C1 Na3 56(3) 1_556 1_546
Na3 O2 C1 O1 118(3) 1_556 .
Na3 O2 C1 C2 -62(3) 1_556 .
Na3 O4 C4 Na2 -163.0(10) 1_556 .
Na3 O4 C4 O3 -113(3) 1_556 .
Na3 O4 C4 C3 66(2) 1_556 .
Na3 O3 C4 Na3 54(4) 1_546 1_556
Na3 O3 C4 Na2 -144(3) 1_546 .
Na3 O3 C4 O4 124(3) 1_546 .
Na3 O3 C4 C3 -55(4) 1_546 .
Na3 C22 C21 C19 140(11) . .
Na3 C1 C2 C3 -92(2) 1_546 .
Na4 O10 C22 Na3 123.6(17) 1_545 .
Na4 O10 C22 O11 118(2) 1_545 .
Na4 O10 C22 C21 -64(3) 1_545 .
Na4 O11 C22 Na3 -110.8(15) . .
Na4 O11 C22 O10 -105(2) . .
Na4 O11 C22 C21 77(2) . .
Na4 O9 C20 Na2 138.8(17) 1_545 2_756
Na4 O9 C20 O8 105(2) 1_545 .
Na4 O9 C20 C19 -60(3) 1_545 .
Na2 O9 C20 Na4 -138.8(16) 2_756 1_545
Na2 O9 C20 O8 -34(3) 2_756 .
Na2 O9 C20 C19 161(2) 2_756 .
Na2 O4 C4 Na3 -106.1(18) 1_565 1_556
Na2 O4 C4 Na2 91(2) 1_565 .
Na2 O4 C4 O3 140(2) 1_565 .
Na2 O4 C4 C3 -40(3) 1_565 .
Na2 O3 C4 Na3 -161.8(12) . 1_556
Na2 O3 C4 O4 -91(3) . .
Na2 O3 C4 C3 90(2) . .
Na2 O5 C5 N1 77(3) 1_565 .
Na2 O5 C5 C6 -107(2) 1_565 .
Na2 O8 C20 Na4 83.6(16) 2_756 1_545
Na2 O8 C20 O9 33(3) 2_756 .
Na2 O8 C20 C19 -161(2) 2_756 .
O10 C22 C21 C19 3(3) . .
O1 C1 C2 C3 -136(2) . .
O11 C22 C21 C19 -179(2) . .
O2 C1 C2 C3 45(3) . .
O5 C5 C6 C7 -156(2) . .
O5 C5 C6 C11 22(4) . .
N2 C19 C21 C22 -152.7(19) . .
N2 C19 C20 Na4 159.0(19) . 1_545
N2 C19 C20 Na2 -65(7) . 2_756
N2 C19 C20 O9 -165(3) . .
N2 C19 C20 O8 28(3) . .
N1 C5 C6 C7 21(4) . .
N1 C5 C6 C11 -162(2) . .
N1 C3 C2 C1 173(2) . .
N1 C3 C4 Na3 138.3(18) . 1_556
N1 C3 C4 Na2 -45(3) . .
N1 C3 C4 O4 89(3) . .
N1 C3 C4 O3 -92(3) . .
C5 N1 C3 C2 149(2) . .
C5 N1 C3 C4 -85(3) . .
C5 C6 C7 C8 179(2) . .
C5 C6 C11 C10 179(2) . .
C6 C7 C8 C9 1(4) . .
C3 N1 C5 O5 -7(4) . .
C3 N1 C5 C6 177(2) . .
C19 N2 C18 O7 -5(4) . .
C19 N2 C18 C15 -177(2) . .
C21 C19 C20 Na4 -77.2(17) . 1_545
C21 C19 C20 Na2 59(7) . 2_756
C21 C19 C20 O9 -41(3) . .
C21 C19 C20 O8 152(2) . .
C2 C3 C4 Na3 -97.9(19) . 1_556
C2 C3 C4 Na2 79(2) . .
C2 C3 C4 O4 -147(2) . .
C2 C3 C4 O3 32(3) . .
C9 C12 C13A C14A -180(2) . .
C9 C12 C13A C17B 129(3) . .
C9 C12 C13A C13B -101(3) . .
C9 C12 C13A C14B -146(3) . .
C9 C12 C17B C13A -127(4) . .
C9 C12 C17B C16B -176(4) . .
C9 C12 C17B C16A 146(3) . .
C9 C12 C17B C17A 109(3) . .
C9 C12 C17A C16B -146(3) . .
C9 C12 C17A C16A 180(2) . .
C9 C12 C17A C17B -108(3) . .
C9 C12 C13B C13A 101(3) . .
C9 C12 C13B C14A 148(3) . .
C9 C12 C13B C14B 179(4) . .
C9 C10 C11 C6 2(4) . .
C12 C9 C10 C11 -179(2) . .
C12 C9 C8 C7 178(2) . .
C12 C13A C14A C15 -0.1(5) . .
C12 C13A C14A C16B -32.8(17) . .
C12 C13A C14A C13B 76(4) . .
C12 C13A C14A C14B 72(4) . .
C12 C13A C13B C14A -123(3) . .
C12 C13A C13B C14B -120(3) . .
C12 C13A C14B C15 -71(3) . .
C12 C13A C14B C14A -123(4) . .
C12 C13A C14B C13B 63(5) . .
C12 C17B C17A C16B 124(3) . .
C12 C17B C17A C16A 122(2) . .
C12 C13B C14B C15 -2(7) . .
C12 C13B C14B C13A -58(4) . .
C12 C13B C14B C14A -63(6) . .
C15 C14A C13B C12 70(3) . .
C15 C14A C13B C13A 117(4) . .
C15 C14A C13B C14B -57(4) . .
C15 C14A C14B C13A 120(2) . .
C15 C14A C14B C13B 124(3) . .
C15 C16B C16A C17B -123(3) . .
C15 C16B C16A C17A -125(2) . .
C15 C16B C17B C12 -3(7) . .
C15 C16B C17B C13A -33(5) . .
C15 C16B C17B C16A 59(4) . .
C15 C16B C17B C17A 61(5) . .
C15 C16A C17B C12 84(3) . .
C15 C16A C17B C13A 42(2) . .
C15 C16A C17B C16B -47(3) . .
C15 C16A C17B C17A 137(3) . .
C15 C16A C17A C12 -0.1(14) . .
C15 C16A C17A C16B -56(2) . .
C15 C16A C17A C17B -53(3) . .
C7 C6 C11 C10 -3(4) . .
C4 C3 C2 C1 48(3) . .
C18 N2 C19 C21 129(3) . .
C18 N2 C19 C20 -108(3) . .
C18 C15 C14A C13A 179(2) . .
C18 C15 C14A C16B -129(3) . .
C18 C15 C14A C13B 144(3) . .
C18 C15 C14A C14B 100(3) . .
C18 C15 C16B C14A 129(3) . .
C18 C15 C16B C16A -106(3) . .
C18 C15 C16B C17B -178(4) . .
C18 C15 C16B C17A -141(3) . .
C18 C15 C16A C16B 109(3) . .
C18 C15 C16A C17B 148(3) . .
C18 C15 C16A C17A -179(2) . .
C18 C15 C14B C13A -152(3) . .
C18 C15 C14B C14A -104(3) . .
C18 C15 C14B C13B -180(4) . .
C10 C9 C12 C13A -149(2) . .
C10 C9 C12 C17B -33(5) . .
C10 C9 C12 C17A 32(3) . .
C10 C9 C12 C13B 167(3) . .
C10 C9 C8 C7 -1(3) . .
C8 C9 C12 C13A 32(3) . .
C8 C9 C12 C17B 148(4) . .
C8 C9 C12 C17A -147(2) . .
C8 C9 C12 C13B -12(4) . .
C8 C9 C10 C11 0(3) . .
C11 C6 C7 C8 2(4) . .
C20 C19 C21 C22 82(3) . .
C13A C12 C17B C16B -49(5) . .
C13A C12 C17B C16A -87(2) . .
C13A C12 C17B C17A -124.4(19) . .
C13A C12 C17A C16B 34.4(16) . .
C13A C12 C17A C16A 0.1(10) . .
C13A C12 C17A C17B 72.6(16) . .
C13A C12 C13B C14A 47(3) . .
C13A C12 C13B C14B 79(5) . .
C13A C14A C13B C12 -47(4) . .
C13A C14A C13B C14B -174(6) . .
C13A C14A C14B C15 -120(2) . .
C13A C14A C14B C13B 3(4) . .
C13A C17B C17A C12 -33.4(16) . .
C13A C17B C17A C16B 91(2) . .
C13A C17B C17A C16A 89(2) . .
C13A C13B C14B C15 56(6) . .
C13A C13B C14B C14A -5(5) . .
C14A C15 C18 N2 146(2) . .
C14A C15 C18 O7 -26(3) . .
C14A C15 C16B C16A 124.8(19) . .
C14A C15 C16B C17B 53(5) . .
C14A C15 C16B C17A 89(2) . .
C14A C15 C16A C16B -72.2(17) . .
C14A C15 C16A C17B -33.1(18) . .
C14A C15 C16A C17A -0.1(15) . .
C14A C15 C14B C13A -48(3) . .
C14A C15 C14B C13B -75(5) . .
C14A C13A C13B C12 123(3) . .
C14A C13A C13B C14B 3(4) . .
C14A C13A C14B C15 52(4) . .
C14A C13A C14B C13B -174(7) . .
C14A C16B C16A C15 33.5(15) . .
C14A C16B C16A C17B -90(2) . .
C14A C16B C16A C17A -92(2) . .
C14A C16B C17B C12 29(5) . .
C14A C16B C17B C13A -1(2) . .
C14A C16B C17B C16A 92(2) . .
C14A C16B C17B C17A 94(3) . .
C14A C13B C14B C15 61(4) . .
C14A C13B C14B C13A 5(6) . .
C16B C15 C18 N2 30(4) . .
C16B C15 C18 O7 -142(4) . .
C16B C15 C14A C13A -52(2) . .
C16B C15 C14A C13B -87(3) . .
C16B C15 C14A C14B -131(3) . .
C16B C15 C16A C17B 39(2) . .
C16B C15 C16A C17A 72.1(17) . .
C16B C15 C14B C13A 11(4) . .
C16B C15 C14B C14A 59(4) . .
C16B C15 C14B C13B -16(6) . .
C16B C14A C13B C12 26(3) . .
C16B C14A C13B C13A 73(4) . .
C16B C14A C13B C14B -101(4) . .
C16B C14A C14B C15 -32.7(17) . .
C16B C14A C14B C13A 88(2) . .
C16B C14A C14B C13B 91(3) . .
C16B C16A C17B C12 131(4) . .
C16B C16A C17B C13A 89(3) . .
C16B C16A C17B C17A -177(5) . .
C16B C16A C17A C12 56(2) . .
C16B C16A C17A C17B 2(3) . .
C16B C17B C17A C12 -124(3) . .
C16B C17B C17A C16A -2(3) . .
C16A C15 C18 N2 -34(3) . .
C16A C15 C18 O7 153(2) . .
C16A C15 C14A C13A 0.1(11) . .
C16A C15 C14A C16B 52(2) . .
C16A C15 C14A C13B -35(2) . .
C16A C15 C14A C14B -79(2) . .
C16A C15 C16B C14A -124.8(19) . .
C16A C15 C16B C17B -72(4) . .
C16A C15 C16B C17A -36(2) . .
C16A C15 C14B C13A 71(3) . .
C16A C15 C14B C14A 118(2) . .
C16A C15 C14B C13B 43(5) . .
C16A C16B C17B C12 -62(5) . .
C16A C16B C17B C13A -92(3) . .
C16A C16B C17B C17A 2(3) . .
C16A C17B C17A C12 -122(2) . .
C16A C17B C17A C16B 2(3) . .
C17B C12 C13A C14A 51(2) . .
C17B C12 C13A C13B 129(3) . .
C17B C12 C13A C14B 85(3) . .
C17B C12 C17A C16B -38(2) . .
C17B C12 C17A C16A -72.4(17) . .
C17B C12 C13B C13A -61(4) . .
C17B C12 C13B C14A -13(5) . .
C17B C12 C13B C14B 18(7) . .
C17B C13A C14A C15 32.0(18) . .
C17B C13A C14A C16B -1(2) . .
C17B C13A C14A C13B 109(4) . .
C17B C13A C14A C14B 104(4) . .
C17B C13A C13B C12 33.9(19) . .
C17B C13A C13B C14A -89(2) . .
C17B C13A C13B C14B -86(4) . .
C17B C13A C14B C15 -27(3) . .
C17B C13A C14B C14A -79(4) . .
C17B C13A C14B C13B 107(5) . .
C17B C16B C16A C15 123(3) . .
C17B C16B C16A C17A -2(3) . .
C17B C16A C17A C12 53(2) . .
C17B C16A C17A C16B -2(3) . .
C17A C12 C13A C14A -0.1(5) . .
C17A C12 C13A C17B -51(2) . .
C17A C12 C13A C13B 79(2) . .
C17A C12 C13A C14B 33.7(17) . .
C17A C12 C17B C13A 124.4(19) . .
C17A C12 C17B C16B 76(4) . .
C17A C12 C17B C16A 38(2) . .
C17A C12 C13B C13A -118(2) . .
C17A C12 C13B C14A -71(3) . .
C17A C12 C13B C14B -39(5) . .
C17A C16B C16A C15 125(2) . .
C17A C16B C16A C17B 2(3) . .
C17A C16B C17B C12 -65(4) . .
C17A C16B C17B C13A -95(3) . .
C17A C16B C17B C16A -2(3) . .
C17A C16A C17B C12 -53(3) . .
C17A C16A C17B C13A -94(3) . .
C17A C16A C17B C16B 177(5) . .
C13B C12 C13A C14A -78.6(19) . .
C13B C12 C13A C17B -129(3) . .
C13B C12 C13A C14B -45(2) . .
C13B C12 C17B C13A 34(3) . .
C13B C12 C17B C16B -15(7) . .
C13B C12 C17B C16A -53(4) . .
C13B C12 C17B C17A -91(4) . .
C13B C12 C17A C16B 75(2) . .
C13B C12 C17A C16A 40(2) . .
C13B C12 C17A C17B 113(3) . .
C13B C13A C14A C15 -77(4) . .
C13B C13A C14A C16B -109(4) . .
C13B C13A C14A C14B -5(5) . .
C13B C13A C14B C15 -134(5) . .
C13B C13A C14B C14A 174(7) . .
C13B C14A C14B C15 -124(3) . .
C13B C14A C14B C13A -3(4) . .
C14B C15 C18 N2 -167(3) . .
C14B C15 C18 O7 21(4) . .
C14B C15 C14A C13A 79.1(19) . .
C14B C15 C14A C16B 131(3) . .
C14B C15 C14A C13B 44(2) . .
C14B C15 C16B C14A -34(3) . .
C14B C15 C16B C16A 91(3) . .
C14B C15 C16B C17B 19(6) . .
C14B C15 C16B C17A 55(4) . .
C14B C15 C16A C16B -114(3) . .
C14B C15 C16A C17B -75(3) . .
C14B C15 C16A C17A -42(2) . .
C14B C13A C14A C15 -72(4) . .
C14B C13A C14A C16B -105(4) . .
C14B C13A C14A C13B 5(5) . .
C14B C13A C13B C12 120(3) . .
C14B C13A C13B C14A -3(4) . .
C14B C14A C13B C12 127(5) . .
C14B C14A C13B C13A 174(6) . .
