#------------------------------------------------------------------------------
#$Date: 2015-12-03 15:08:33 +0200 (Thu, 03 Dec 2015) $
#$Revision: 170687 $
#$URL: svn://www.crystallography.net/cod/cif/7/11/80/7118092.cif $
#------------------------------------------------------------------------------
#
# This file is available in the Crystallography Open Database (COD),
# http://www.crystallography.net/
#
# All data on this site have been placed in the public domain by the
# contributors.
#
data_7118092
loop_
_publ_author_name
'Xinping Lin'
'Yahui Hong'
'Chao Zhang'
'Ruiyun Huang'
'Cheng Wang'
'Wenbin Lin'
_publ_section_title
;
 Pre-concentration and energy transfer enable the efficient luminescence
 sensing of transition metal ions by metal-organic frameworks
;
_journal_name_full               Chem.Commun.
_journal_page_first              16996
_journal_paper_doi               10.1039/C5cc06453H
_journal_volume                  51
_journal_year                    2015
_chemical_formula_moiety         'C36 Cu1.02 Eu2 N6 O15'
_chemical_formula_sum            'C36 Cu1.02 Eu2 N7 O15'
_chemical_formula_weight         1139.48
_chemical_name_systematic        Eu-bpydc-Cu
_space_group_crystal_system      monoclinic
_space_group_IT_number           14
_space_group_name_Hall           '-P 2ybc'
_space_group_name_H-M_alt        'P 1 21/c 1'
_symmetry_space_group_name_Hall  '-P 2ybc'
_symmetry_space_group_name_H-M   'P 1 21/c 1'
_atom_sites_solution_hydrogens   .
_atom_sites_solution_primary     direct
_audit_creation_date             2015-07-31
_audit_creation_method
;
Olex2 1.2
(compiled 2015.01.26 svn.r3150 for OlexSys, GUI svn.r4998)
;
_audit_update_record
;
2015-07-31 deposited with the CCDC.
2015-09-30 downloaded from the CCDC.
;
_cell_angle_alpha                90
_cell_angle_beta                 98.040(11)
_cell_angle_gamma                90
_cell_formula_units_Z            4
_cell_length_a                   26.531(2)
_cell_length_b                   13.617(4)
_cell_length_c                   16.4067(19)
_cell_measurement_temperature    100
_cell_volume                     5869.0(19)
_computing_molecular_graphics    'Olex2 (Dolomanov et al., 2009)'
_computing_publication_material  'Olex2 (Dolomanov et al., 2009)'
_computing_structure_refinement  'ShelXL (Sheldrick, 2008)'
_computing_structure_solution    'ShelXT (Sheldrick, 2015)'
_diffrn_ambient_temperature      100
_diffrn_measured_fraction_theta_full 0.349
_diffrn_measured_fraction_theta_max 0.349
_diffrn_measurement_device_type  'Agilent micro-focus'
_diffrn_radiation_type           CuK\a
_diffrn_radiation_wavelength     1.54184
_diffrn_reflns_av_R_equivalents  0.0604
_diffrn_reflns_av_unetI/netI     0.1027
_diffrn_reflns_laue_measured_fraction_full 0.349
_diffrn_reflns_laue_measured_fraction_max 0.349
_diffrn_reflns_limit_h_max       9
_diffrn_reflns_limit_h_min       -29
_diffrn_reflns_limit_k_max       9
_diffrn_reflns_limit_k_min       -10
_diffrn_reflns_limit_l_max       17
_diffrn_reflns_limit_l_min       -19
_diffrn_reflns_number            4607
_diffrn_reflns_point_group_measured_fraction_full 0.349
_diffrn_reflns_point_group_measured_fraction_max 0.349
_diffrn_reflns_theta_full        65.596
_diffrn_reflns_theta_max         65.596
_diffrn_reflns_theta_min         5.051
_exptl_absorpt_coefficient_mu    15.990
_exptl_absorpt_correction_T_max  0.2978
_exptl_absorpt_correction_T_min  0.0605
_exptl_absorpt_correction_type   empirical
_exptl_crystal_colour            'clear reddish red'
_exptl_crystal_colour_lustre     clear
_exptl_crystal_colour_modifier   reddish
_exptl_crystal_colour_primary    red
_exptl_crystal_density_diffrn    1.290
_exptl_crystal_description       needle
_exptl_crystal_F_000             2163
_exptl_crystal_size_max          0.4
_exptl_crystal_size_mid          0.1
_exptl_crystal_size_min          0.1
_refine_diff_density_max         0.999
_refine_diff_density_min         -0.964
_refine_diff_density_rms         0.140
_refine_ls_extinction_coef       .
_refine_ls_extinction_method     none
_refine_ls_goodness_of_fit_ref   1.029
_refine_ls_hydrogen_treatment    undef
_refine_ls_matrix_type           full
_refine_ls_number_parameters     183
_refine_ls_number_reflns         3528
_refine_ls_number_restraints     0
_refine_ls_restrained_S_all      1.029
_refine_ls_R_factor_all          0.1862
_refine_ls_R_factor_gt           0.1266
_refine_ls_shift/su_max          0.000
_refine_ls_shift/su_mean         0.000
_refine_ls_structure_factor_coef Fsqd
_refine_ls_weighting_details
'w=1/[\s^2^(Fo^2^)+(0.1521P)^2^+217.2555P] where P=(Fo^2^+2Fc^2^)/3'
_refine_ls_weighting_scheme      calc
_refine_ls_wR_factor_gt          0.3030
_refine_ls_wR_factor_ref         0.3609
_reflns_Friedel_coverage         0.000
_reflns_friedel_fraction_full    .
_reflns_friedel_fraction_max     .
_reflns_number_gt                2118
_reflns_number_total             3528
_reflns_threshold_expression     'I > 2\s(I)'
_cod_data_source_file            c5cc06453h21.cif
_cod_data_source_block           exp_6314_sq
_cod_original_cell_volume        5869.1(19)
_cod_database_code               7118092
_shelx_space_group_comment
;
The symmetry employed for this shelxl refinement is uniquely defined
by the following loop, which should always be used as a source of
symmetry information in preference to the above space-group names.
They are only intended as comments.
;
_olex2_refinement_description
;
1. Shared sites
{N5, CN5}
{N6, CN6}
{C28, NC28}
{C34, NC34}
2. Uiso/Uaniso restraints and constraints
Uiso(N5) = Uiso(CN5)
Uiso(N6) = Uiso(CN6)
Uiso(C28) = Uiso(NC28)
Uiso(C34) = Uiso(NC34)
3. Others
 Fixed Sof: C28(0.5) N5(0.5) C34(0.5) N6(0.5) NC34(0.5) NC28(0.5) CN5(0.5)
 CN6(0.5)
 Fixed X: Cu3(0.47226)
 Fixed Y: Cu3(0.56342)
 Fixed Z: Cu3(0.379469)
4.a Fitted hexagon refined as free rotating group:
 C2(C3,N1,C4,C5,C6), C7(C8,C9,C10,C11,N2), C14(C15,N3,C16,C17,C18), C19(N4,C21,
 C20,C22,C23), C26(C27,C28,C29,N5,C30), C32(C33,C34,C35,N6,C36)
;
_shelx_res_file
;
    exp_6314_sq.res created by SHELXL-2014/7

TITL exp_6314_a.res in P2(1)/c
REM Old TITL exp_6314 in P21/c #14
REM SHELXT solution in P2(1)/c
REM R1 0.267, Rweak 0.011, Alpha 0.087, Orientation as input
REM Formula found by SHELXT: C78 N28 O21 Eu4
CELL 1.54184 26.53069 13.61735 16.406742 90 98.0404 90
ZERR 4 0.002459 0.004002 0.001923 0 0.0105 0
LATT 1
SYMM -X,0.5+Y,0.5-Z
SFAC C N O Eu Cu
UNIT 144 28 60 8 4.1
EADP N5 CN5
EADP N6 CN6
EADP C28 NC28
EADP C34 NC34
EXYZ N5 CN5
EXYZ N6 CN6
EXYZ C28 NC28
EXYZ C34 NC34

L.S. 30 0 111
PLAN  50
DAMP
BOND $H
MORE -1
CONF
ABIN
fmap 2
acta
OMIT 5 0 13
OMIT 6 0 13
REM <olex2.extras>
REM <HklSrc "%.\\exp_6314_sq.hkl">
REM </olex2.extras>

WGHT    0.152100  217.255508
FVAR       0.16900
C1    1    0.334942    1.095448    0.689633    11.00000    0.04692
AFIX  66
C2    1    0.389548    0.065714    0.680144    11.00000    0.07773
C3    1    0.405771    0.045429    0.604950    11.00000    0.12100
N1    2    0.456479    0.022229    0.601767    11.00000    0.10298
C4    1    0.490964    0.019315    0.673777    11.00000    0.08841
C5    1    0.474742    0.039600    0.748971    11.00000    0.12290
C6    1    0.424034    0.062800    0.752156    11.00000    0.12026
AFIX   0

C12   1    0.676555    0.851054    0.632042    11.00000    0.06428
AFIX  66
C7    1    0.535148    0.968123    0.667162    11.00000    0.07424
C8    1    0.567603    0.934080    0.735157    11.00000    0.12295
C9    1    0.614490    0.893879    0.725069    11.00000    0.12551
C10   1    0.628923    0.887720    0.646986    11.00000    0.07188
C11   1    0.596469    0.921762    0.578990    11.00000    0.12718
N2    2    0.549582    0.961963    0.589077    11.00000    0.06476
AFIX   0
C13   1    0.834313    0.897101    0.362534    11.00000    0.05398
AFIX  66
C14   1    0.885900    0.934769    0.350202    11.00000    0.04623
C15   1    0.893305    0.999078    0.287161    11.00000    0.10011
N3    2    0.941937    1.032937    0.280150    11.00000    0.10633
C16   1    0.983165    1.002487    0.336179    11.00000    0.06780
C17   1    0.975760    0.938178    0.399220    11.00000    0.06471
C18   1    0.927128    0.904318    0.406232    11.00000    0.07806
AFIX   0
C24   1    0.832349    0.705758    0.170714    11.00000    0.05169
AFIX  66
C19   1    1.031667    1.044947    0.333270    11.00000    0.06799
N4    2    1.038677    1.103517    0.266383    11.00000    0.08226
C21   1    1.084099    1.154304    0.266093    11.00000    0.07841
C20   1    1.122509    1.146522    0.332690    11.00000    0.05754
C22   1    1.115499    1.087952    0.399577    11.00000    0.12058
C23   1    1.070078    1.037164    0.399868    11.00000    0.05945
AFIX   0
C25   1    0.826703    0.616249    0.538884    11.00000    0.06437
AFIX  66
C26   1    0.876535    0.578447    0.521807    11.00000    0.06235
C27   1    0.902513    0.513946    0.578491    11.00000    0.10844
C28   1    0.951519    0.483854    0.569654    10.50000    0.09571
C29   1    0.974547    0.518264    0.504134    11.00000    0.09791
N5    2    0.948569    0.582765    0.447450    10.50000    0.10520
C30   1    0.899563    0.612857    0.456285    11.00000    0.07517
AFIX   0
C31   1    0.667708    0.660753    0.493294    11.00000    0.05615
AFIX  66
C32   1    0.618062    0.608311    0.500749    11.00000    0.06181
C33   1    0.611683    0.538000    0.559868    11.00000    0.11275
C34   1    0.564736    0.492563    0.559493    10.50000    0.08866
C35   1    0.524167    0.517437    0.499999    11.00000    0.06938
N6    2    0.530545    0.587749    0.440880    10.50000    0.09846
C36   1    0.577492    0.633187    0.441254    11.00000    0.08245
AFIX   0
O004  3    0.750733    0.739179    0.333009    11.00000    0.07153
O005  3    0.825254    0.856903    0.424492    11.00000    0.06401
O006  3    0.826773    0.743915    0.231371    11.00000    0.05183
O007  3    0.802041    0.661424    0.481638    11.00000    0.05959
O008  3    0.798705    0.920023    0.302352    11.00000    0.06308
O009  3    0.813309    0.911811    0.108695    11.00000    0.06939
O00A  3    0.679380    0.893485    0.242510    11.00000    0.08693
O00B  3    0.702150    0.800735    0.688589    11.00000    0.05738
O00C  3    0.703980    0.657263    0.557668    11.00000    0.05947
O00D  3    0.675011    0.703993    0.433814    11.00000    0.06107
O00E  3    0.796389    0.701545    0.107663    11.00000    0.04721
O00F  3    0.688923    0.860193    0.560786    11.00000    0.07472
O00H  3    0.766113    0.978991    0.508253    11.00000    0.10095
O00I  3    0.694604    0.899316    0.379705    11.00000    0.08778
O00J  3    0.738796    1.025738    0.166987    11.00000    0.10177
NC34  2    0.564736    0.492563    0.559493    10.50000    0.08866
NC28  2    0.951519    0.483854    0.569654    10.50000    0.09571
CN5   1    0.948569    0.582765    0.447450    10.50000    0.10520
CN6   1    0.530545    0.587749    0.440880    10.50000    0.09846
EU01  4    0.752423    0.848836    0.189570    11.00000    0.03040    0.13542 =
         0.04392   -0.00399    0.00063    0.00596
EU02  4    0.749431    0.808049    0.473011    11.00000    0.03285    0.14247 =
         0.03719    0.00463    0.00319    0.00237

CU1   5    0.500000    0.000000    0.500000    10.50000    0.20081
CU2   5    0.985757    0.422605    0.672424     0.43074    0.22920
CU3   5   10.472260   10.563420   10.379469     0.09202    0.18136
HKLF 4

REM  exp_6314_a.res in P2(1)/c
REM R1 =  0.1266 for    2118 Fo > 4sig(Fo)  and  0.1862 for all    3528 data
REM    183 parameters refined using      0 restraints

END

WGHT      0.1508    218.2941

REM Highest difference peak  0.999,  deepest hole -0.964,  1-sigma level  0.140
Q1    1   0.7501  0.8492  0.1333  11.00000  0.05    1.00
Q2    1   1.0058  0.4109  0.6411  11.00000  0.05    1.00
Q3    1   0.4800 -0.0639  0.5075  11.00000  0.05    0.90
Q4    1   0.7402  0.9008  0.4904  11.00000  0.05    0.90
Q5    1   0.7062  0.8503  0.1985  11.00000  0.05    0.90
Q6    1   0.7972  0.7982  0.4654  11.00000  0.05    0.89
Q7    1   0.9714  0.4055  0.6906  11.00000  0.05    0.86
Q8    1   0.7005  0.8158  0.4832  11.00000  0.05    0.80
Q9    1   0.7996  0.8541  0.1817  11.00000  0.05    0.78
Q10   1   0.7336  0.9305  0.1867  11.00000  0.05    0.73
Q11   1   0.7431  0.8278  0.4086  11.00000  0.05    0.73
Q12   1   0.7487  0.7954  0.5274  11.00000  0.05    0.64
Q13   1   0.7483  0.9014  0.2358  11.00000  0.05    0.63
Q14   1   0.7592  0.9242  0.1630  11.00000  0.05    0.61
Q15   1   1.0230  1.1142  0.3263  11.00000  0.05    0.59
Q16   1   0.7896  0.8311  0.4232  11.00000  0.05    0.57
Q17   1   0.6665  0.8423  0.2222  11.00000  0.05    0.56
Q18   1   0.4542 -0.0246  0.7219  11.00000  0.05    0.55
Q19   1   0.8068  0.8493  0.2600  11.00000  0.05    0.55
Q20   1   0.7674  0.7517  0.1762  11.00000  0.05    0.53
Q21   1   0.7316  0.7725  0.1909  11.00000  0.05    0.53
Q22   1   0.4370  0.1157  0.7469  11.00000  0.05    0.52
Q23   1   0.7613  0.6565  0.4949  11.00000  0.05    0.51
Q24   1   0.7419  0.6599  0.3400  11.00000  0.05    0.51
Q25   1   0.8374  0.7975  0.4458  11.00000  0.05    0.51
Q26   1   0.5619  1.0057  0.6102  11.00000  0.05    0.50
Q27   1   0.8282  0.8159  0.1478  11.00000  0.05    0.50
Q28   1   0.7367  0.7237  0.5065  11.00000  0.05    0.50
Q29   1   0.6964  0.8188  0.3454  11.00000  0.05    0.49
Q30   1   0.5903  0.9256  0.5974  11.00000  0.05    0.49
Q31   1   0.7906  0.7623  0.3087  11.00000  0.05    0.49
Q32   1   0.6941  0.8148  0.4018  11.00000  0.05    0.48
Q33   1   0.9100  0.9430  0.2797  11.00000  0.05    0.47
Q34   1   0.9613  0.5328  0.5680  11.00000  0.05    0.47
Q35   1   0.3666  0.0823  0.6254  11.00000  0.05    0.47
Q36   1   0.5328  0.9652  0.6276  11.00000  0.05    0.47
Q37   1   0.4905  0.0305  0.5926  11.00000  0.05    0.47
Q38   1   0.4762 -0.0131  0.6777  11.00000  0.05    0.47
Q39   1   0.7602  1.0932  0.1739  11.00000  0.05    0.47
Q40   1   0.7174  0.6988  0.4374  11.00000  0.05    0.46
Q41   1   0.7586  0.7078  0.4215  11.00000  0.05    0.46
Q42   1   1.0169  0.5788  0.6700  11.00000  0.05    0.45
Q43   1   0.4136  0.1832  0.5990  11.00000  0.05    0.45
Q44   1   0.5484  0.8747  0.6971  11.00000  0.05    0.45
Q45   1   1.1214  1.0589  0.3774  11.00000  0.05    0.45
Q46   1   0.8402  0.8347  0.2436  11.00000  0.05    0.45
Q47   1   0.9178  0.8229  0.2648  11.00000  0.05    0.45
Q48   1   0.7710  0.7374  0.4715  11.00000  0.05    0.44
Q49   1   0.8513  0.8591  0.2370  11.00000  0.05    0.44
Q50   1   0.8793  0.9965  0.3375  11.00000  0.05    0.44
;
_shelx_res_checksum              93969
_shelx_hkl_file
;
  -3   0   0   47.22    2.57
  -4   0   0 9999.00   39.42
  -5   0   0   21.95    2.87
  -6   0   0 2412.30   24.26
  -7   0   0   27.27    3.42
  -8   0   0  918.62   16.79
  -9   0   0    8.85    2.58
  -9   0   0   12.35    6.34
 -10   0   0 1301.20   37.72
 -10   0   0 1260.17   19.66
 -11   0   0   30.42    3.36
 -16   0   0 2709.70   49.55
 -17   0   0    8.80    6.30
 -18   0   0 1500.52   40.32
 -19   0   0   12.07    7.75
 -20   0   0  800.35   32.51
 -21   0   0   11.32    9.03
 -22   0   0 1417.76   46.06
 -23   0   0   24.45   12.01
  -9   1   0  613.84   25.59
 -10   1   0   11.82    7.27
 -10  -1   0   11.70    4.07
 -11   1   0 1463.79   43.79
 -11  -1   0 1465.54   27.58
 -12  -1   0   21.14    4.63
 -12   1   0   20.38    9.20
 -13   1   0 2690.72   63.13
 -14   1   0   48.52   12.40
 -15   1   0 2519.40   46.90
 -16   1   0   14.21    6.37
 -16  -1   0   13.08    5.97
 -17   1   0 1474.20   38.76
 -17  -1   0 1477.08   37.74
 -18   1   0    3.95    6.85
 -18  -1   0   10.02    6.34
 -19   1   0  876.75   32.95
 -19  -1   0  852.67   31.53
 -20  -1   0    3.49    7.20
 -20   1   0    1.37    8.52
 -21   1   0  719.39   33.24
 -21  -1   0  687.37   30.56
 -22  -1   0    7.93    8.46
 -22   1   0   10.30   11.23
 -23   1   0 1023.25   42.01
  -9   2   0   -4.59    6.64
 -10   2   0  609.45   28.29
 -11   2   0   -0.36    7.56
 -12   2   0 1399.83   46.46
 -12  -2   0 1401.61   31.12
 -13   2   0   25.74   10.49
 -14   2   0  357.75   26.58
 -15   2   0   -1.85    5.43
 -15   2   0   15.67   11.10
 -16   2   0  476.96   21.83
 -16   2   0  473.73   31.85
 -17   2   0    2.89    6.60
 -18   2   0  429.94   23.14
 -19   2   0    1.39    8.21
 -20   2   0  318.08   22.74
 -21   2   0    2.88   10.22
 -22   2   0  267.05   23.30
 -23   2   0   23.82   13.39
 -11   3   0  373.42   24.91
 -12   3   0    4.72    9.01
 -13   3   0    5.74    8.97
 -14   3   0    1.49    4.57
 -14   3   0   12.71   10.21
 -15   3   0   24.66   12.70
 -15   3   0   12.41    5.61
 -16   3   0    1.00    5.70
 -16   3   0    9.03   10.29
 -17   3   0    4.17    6.51
 -17   3   0   13.89   10.83
 -18   3   0   10.40    8.19
 -18   3   0   18.78   13.32
 -19   3   0   14.88    9.11
 -20   3   0    5.71    9.49
 -21   3   0   45.30   13.51
 -22   3   0   10.27   12.23
 -23   3   0   23.03   14.49
 -12   4   0  119.90   16.97
 -13   4   0   32.20    6.80
 -13   4   0   28.62   11.27
 -14   4   0  172.85   13.45
 -14   4   0  208.01   23.19
 -15   4   0   -2.45    5.99
 -15   4   0    0.22   10.78
 -16   4   0  159.57   14.37
 -16   4   0  173.73   22.98
 -17   4   0   20.45   12.29
 -17   4   0   20.83    8.18
 -18   4   0  145.94   22.55
 -18   4   0  165.66   16.10
 -19   4   0    5.19   11.38
 -19   4   0    3.34    8.75
 -20   4   0   22.69   11.18
 -21   4   0   25.95   12.80
 -22   4   0   85.13   17.14
 -12   5   0    8.15    4.89
 -13   5   0  259.47   15.94
 -13   5   0  252.67   25.78
 -14   5   0   -6.31   11.81
 -14   5   0    2.75    5.63
 -15   5   0  254.78   27.64
 -15   5   0  249.59   17.45
 -16   5   0    9.88    7.94
 -16   5   0    2.23   11.52
 -17   5   0  274.09   29.90
 -17   5   0  315.53   20.91
 -18   5   0    5.21   12.73
 -18   5   0   -2.41    8.87
 -19   5   0  201.14   19.54
 -19   5   0  144.71   23.44
 -20   5   0   10.71   11.87
 -21   5   0  223.39   22.49
 -11   6   0    4.49    5.17
 -12   6   0  289.11   17.73
 -13   6   0  -11.67   13.21
 -13   6   0    3.13    5.77
 -14   6   0  168.44   15.02
 -14   6   0  148.44   22.44
 -15   6   0    2.53   12.76
 -15   6   0   20.82    8.83
 -16   6   0  207.73   18.16
 -16   6   0  198.23   27.18
 -17   6   0   15.54   10.04
 -17   6   0   14.38   14.30
 -18   6   0  226.62   20.47
 -18   6   0  198.75   28.17
 -19   6   0   11.99   11.65
 -10   7   0   14.13    6.41
 -11   7   0   58.78    9.53
 -12   7   0    3.54    6.24
 -13   7   0  107.93   13.46
 -14   7   0  -10.62   13.72
 -14   7   0    7.36    7.83
 -15   7   0   68.36   13.21
 -15   7   0   27.74   14.61
 -16   7   0   18.73   10.58
 -16   7   0   11.25   14.97
 -17   7   0   98.22   22.09
 -17   7   0  115.15   16.48
 -14   8   0   -4.13   13.84
 -15   8   0    8.01   12.97
 -16   8   0   24.10   15.59
 -13   9   0  -13.35   14.31
 -14   9   0    0.14   13.18
 -25   0   1   -2.75    9.20
 -24   0   1    7.88    9.83
 -23   0   1    2.03    8.46
 -22   0   1  -10.95    9.27
 -21   0   1   -3.29    7.74
 -20   0   1   -7.64    8.11
 -19   0   1   -9.07    7.19
 -18   0   1   -5.85    7.28
 -17   0   1   -2.65    6.09
 -16   0   1    3.20    5.79
 -12   0   1    3.23    7.13
 -11   0   1    4.70    7.00
 -10   0   1    7.49    6.74
  -9   0   1    1.15    5.38
  -8   0   1    0.74    4.90
  -7   0   1   -0.97    4.63
  -1   0  -1    0.14    1.24
  -2   0  -1    1.01    1.66
  -3   0  -1    0.04    2.03
  -4   0  -1    0.08    2.51
  -5   0  -1    0.75    2.85
  -6   0  -1    1.21    3.11
  -7   0  -1   -0.06    3.01
  -8   0  -1    1.40    3.35
  -9   0  -1   -1.00    3.51
 -10   0  -1   -2.00    3.55
 -11   0  -1    2.05    3.56
 -12   0  -1   -0.33    3.44
 -16   0  -1   -3.63    6.64
 -17   0  -1    2.80    6.61
 -18   0  -1    0.91    7.45
 -19   0  -1    1.13    8.16
 -20   0  -1   -0.29    8.93
 -21   0  -1   19.77   11.85
 -25   1   1   34.45   12.63
 -24  -1   1    5.84    8.33
 -24   1   1    8.29   10.71
 -23  -1   1   84.35   12.81
 -23   1   1   92.19   14.89
 -22   1   1    4.53    9.34
 -22  -1   1    6.73    7.66
 -21  -1   1    1.13    7.03
 -21   1   1   -3.39    9.45
 -20   1   1   -3.86    7.88
 -20  -1   1   -2.01    6.53
 -19   1   1   81.49   11.55
 -19  -1   1   77.42   10.41
 -18  -1   1   -0.79    5.88
 -18   1   1   -0.66    7.09
 -17  -1   1  152.27   12.79
 -17   1   1  162.16   14.07
 -16   1   1    6.80    5.65
 -16  -1   1    7.39    5.41
 -15   1   1  213.61   14.65
 -15   1   1  193.90   20.65
 -14   1   1   10.70    9.76
 -13   1   1 1243.83   44.53
 -12   1   1   68.74   12.90
 -11  -1   1  385.92   11.87
 -11   1   1  417.46   24.44
 -10   1   1    0.50    6.61
  -9   1   1  228.01   16.06
  -8   1   1   49.34    8.14
  -8   1  -1   29.23    7.69
  -8  -1  -1   27.05    4.92
  -9   1  -1  170.76   14.84
  -9  -1  -1  166.05   10.34
 -10   1  -1   15.89    7.47
 -10  -1  -1   13.77    4.60
 -11  -1  -1   23.87    5.33
 -11   1  -1   27.22    9.10
 -12   1  -1   53.80   11.56
 -12  -1  -1   43.94    6.79
 -15   1  -1  108.51   11.12
 -16   1  -1   21.51    7.72
 -16  -1  -1   22.34    7.43
 -17  -1  -1  180.32   15.39
 -17   1  -1  187.37   16.15
 -18   1  -1   19.05    9.44
 -18  -1  -1   15.18    8.17
 -19  -1  -1   23.91    9.07
 -19   1  -1   30.46   10.69
 -20  -1  -1   20.15    9.96
 -20   1  -1   28.07   12.49
 -21   1  -1  674.23   34.88
 -25   2   1    3.40   11.05
 -24   2   1  143.90   18.96
 -23   2   1    3.89   10.39
 -22   2   1   48.47   12.40
 -21   2   1   -3.52    9.01
 -20   2   1   31.11    9.40
 -19   2   1   -5.30    8.11
 -18   2   1  251.32   17.59
 -17   2   1   15.15   11.36
 -17   2   1   -3.07    7.05
 -16   2   1  210.84   23.10
 -16   2   1  216.62   15.43
 -15   2   1   28.93    7.49
 -15   2   1   31.01   12.26
 -14   2   1  734.79   38.51
 -13   2   1    3.33    8.72
 -12   2   1  909.32   38.83
 -11   2   1   34.62    9.49
 -10   2   1  544.53   26.98
  -7   2  -1  148.01   12.37
  -8   2  -1  926.98   31.10
  -9   2  -1   62.31   10.46
 -10   2  -1  278.49   19.74
 -11  -2  -1  223.00   13.70
 -11   2  -1  254.21   20.30
 -12   2  -1  964.75   38.99
 -12  -2  -1  968.34   28.82
 -13  -2  -1   90.70   10.21
 -13   2  -1   95.21   14.81
 -14   2  -1  249.75   14.96
 -14   2  -1  261.72   22.54
 -15   2  -1   95.77   10.90
 -15   2  -1  108.87   16.83
 -16   2  -1  543.97   24.84
 -17   2  -1  115.45   14.23
 -18   2  -1  231.88   18.95
 -19   2  -1  100.91   14.97
 -20   2  -1  643.59   33.53
 -21   2  -1   75.49   16.24
 -24   3   1   19.77   13.25
 -23   3   1   30.60   13.36
 -22   3   1    7.59   10.48
 -21   3   1   68.59   13.44
 -20   3   1   -6.94    9.14
 -19   3   1   67.57   18.73
 -19   3   1   57.92   11.04
 -18   3   1    9.70    7.25
 -18   3   1   19.35   13.47
 -17   3   1  210.27   24.62
 -17   3   1  191.61   15.40
 -16   3   1   22.93   12.72
 -16   3   1    6.99    6.39
 -15   3   1  250.06   16.44
 -15   3   1  268.18   26.12
 -14   3   1   53.46   13.57
 -14   3   1   55.52    8.35
 -13   3   1  279.00   24.68
 -12   3   1   16.34    8.90
  -9   3  -1  807.91   32.65
 -10   3  -1  270.31   20.70
 -11   3  -1 1171.31   43.24
 -12   3  -1  124.38   16.44
 -13  -3  -1  338.28   19.30
 -13   3  -1  364.26   26.98
 -14   3  -1  294.17   25.04
 -14   3  -1  278.71   16.80
 -15   3  -1  349.74   19.70
 -15   3  -1  343.68   27.44
 -16   3  -1  143.58   13.95
 -16   3  -1  146.22   19.70
 -17   3  -1  343.74   22.02
 -18   3  -1  270.37   21.06
 -19   3  -1  617.25   31.56
 -20   3  -1   85.10   16.44
 -21   3  -1  293.95   25.59
 -24   4   1   31.26   14.83
 -23   4   1   38.59   14.04
 -22   4   1   18.65   12.91
 -21   4   1   58.53   13.31
 -20   4   1   87.17   14.22
 -20   4   1   73.21   18.27
 -19   4   1   58.06   11.40
 -19   4   1   50.07   17.29
 -18   4   1   29.69   14.14
 -18   4   1   22.71    8.30
 -17   4   1   43.52   15.73
 -17   4   1   57.87    9.96
 -16   4   1  116.07   11.81
 -16   4   1  133.09   21.37
 -15   4   1   96.96   17.90
 -15   4   1   92.44   10.72
 -14   4   1   38.84    7.22
 -14   4   1   30.87   12.17
 -13   4   1  117.17   10.81
 -13   4   1  102.55   16.99
 -11   4  -1   93.87   14.72
 -12   4  -1  132.83   17.49
 -13   4  -1  202.51   22.00
 -13   4  -1  194.45   14.08
 -14   4  -1  130.86   18.88
 -14  -4  -1  117.94   12.99
 -14   4  -1  147.60   13.28
 -15   4  -1  188.28   22.93
 -15   4  -1  198.44   15.85
 -16   4  -1   87.64   12.32
 -16   4  -1   75.20   15.95
 -17   4  -1  205.98   24.61
 -17   4  -1  257.21   20.30
 -18   4  -1  168.61   18.02
 -18   4  -1  137.35   21.47
 -19   4  -1  111.70   16.96
 -20   4  -1  118.10   18.81
 -23   5   1   33.45   15.20
 -22   5   1   82.05   16.07
 -21   5   1    7.99   11.12
 -20   5   1  145.47   23.95
 -20   5   1  171.40   17.99
 -19   5   1   25.72   14.99
 -19   5   1   26.48   10.29
 -18   5   1  152.70   15.53
 -18   5   1  167.95   25.82
 -17   5   1   -7.13    7.61
 -17   5   1   -3.38   12.65
 -16   5   1  138.55   22.41
 -16   5   1  125.95   12.93
 -15   5   1    7.61    5.82
 -15   5   1   -4.45   13.28
 -14   5   1  162.13   13.43
 -14   5   1  184.57   23.70
 -13   5   1   -4.40    5.38
 -12   5   1  213.78   13.47
 -11   5  -1   12.97    9.35
 -12   5  -1  127.30   12.32
 -12   5  -1  132.58   18.66
 -13   5  -1    1.22    5.40
 -13   5  -1    2.28    9.96
 -14   5  -1   69.83   16.38
 -14   5  -1   82.66   11.73
 -15   5  -1   11.43    7.89
 -15   5  -1    4.54   11.58
 -16   5  -1  273.78   20.54
 -16   5  -1  227.84   26.58
 -17   5  -1    0.49   11.25
 -17   5  -1   11.49   10.03
 -18   5  -1   46.67   12.93
 -18   5  -1   35.31   14.43
 -21   6   1  189.46   20.42
 -20   6   1   22.96   12.14
 -19   6   1  198.78   18.77
 -18   6   1    8.93    9.32
 -18   6   1    5.40   14.26
 -17   6   1  145.52   25.00
 -17   6   1  179.83   16.77
 -16   6   1    7.97   12.33
 -16   6   1   24.49    8.85
 -15   6   1  129.85   22.35
 -15   6   1  151.04   13.98
 -14   6   1   15.07   11.88
 -14   6   1   25.03    7.20
 -13   6   1  119.77   11.52
 -12   6   1   62.97    8.46
 -11   6   1  140.98   11.46
 -10   6  -1   53.32    8.62
 -11   6  -1  109.85   12.33
 -12   6  -1    6.67   10.55
 -12   6  -1   15.64    7.43
 -13   6  -1   31.19   13.22
 -13   6  -1   50.49    9.97
 -14   6  -1   11.54    8.61
 -14   6  -1   20.57   13.17
 -15   6  -1  111.00   14.90
 -15   6  -1   92.87   19.92
 -16   6  -1   61.73   13.10
 -16   6  -1   42.05   16.23
 -17   6  -1   13.06   13.58
 -18   6  -1   23.02   14.09
 -19   7   1   82.27   15.07
 -18   7   1  159.18   17.52
 -17   7   1   43.80   11.57
 -17   7   1   30.32   16.12
 -16   7   1  100.19   13.50
 -16   7   1   59.23   18.04
 -15   7   1   59.87   10.97
 -15   7   1   54.69   17.07
 -14   7   1  104.21   12.70
 -13   7   1   88.36   11.09
 -12   7   1   42.43    8.57
 -11   7   1   95.57   10.26
 -10   7   1   57.36    7.89
 -12   7  -1   25.23   12.79
 -13   7  -1   26.77   13.81
 -14   7  -1   12.93   12.63
 -15   7  -1   64.10   17.95
 -16   7  -1    3.77   13.11
 -17   7  -1   39.52   16.54
 -16   8   1   40.38   11.61
 -16   8   1  -14.74   15.09
 -15   8   1   -4.48   14.85
 -15   8   1   28.74   10.54
 -14   8   1   35.52   10.16
 -13   8   1   29.17    9.03
 -12   8   1   47.30    9.55
 -12   8  -1   19.55   14.34
 -13   8  -1  -14.51   14.34
 -14   8  -1   26.69   15.66
 -15   8  -1    6.39   12.28
 -14   9   1  -20.47   14.82
 -12   9  -1  -36.46   18.15
 -13   9  -1   -0.91   13.20
 -26   0   2   23.86    9.95
 -25   0   2   49.01   11.61
 -24   0   2   26.17    9.76
 -23   0   2   59.18   11.51
 -22   0   2    4.04    7.96
 -21   0   2   21.20    8.30
 -20   0   2   90.36   12.16
 -19   0   2  130.08   13.75
 -18   0   2   60.99   10.39
 -17   0   2  107.39   12.04
 -16   0   2   83.89   10.65
 -14   0   2  118.91   16.10
 -13   0   2   31.82   10.53
 -12   0   2   14.06    8.61
 -11   0   2   17.13    8.20
 -10   0   2   11.40    6.96
  -9   0   2  100.16   11.30
  -8   0   2   69.26    9.44
  -7   0   2   31.37    6.50
  -6   0   2   21.66    5.49
   3   0  -2   40.50    3.38
   2   0  -2    8.97    2.31
   1   0  -2  862.92   16.18
   0   0  -2   68.10    5.28
  -1   0  -2   24.61    3.70
  -2   0  -2    9.42    3.42
  -3   0  -2  339.53   12.53
  -4   0  -2  122.23    8.40
  -5   0  -2   68.90    7.14
  -6   0  -2    3.98    3.99
  -7   0  -2  104.83    8.68
  -8   0  -2    0.89    4.19
  -9   0  -2    1.49    4.22
 -10   0  -2    0.85    4.62
 -11   0  -2   17.35    5.98
 -12   0  -2   22.71    6.00
 -15   0  -2   56.48    9.64
 -16   0  -2    6.15    7.38
 -17   0  -2   26.72    9.35
 -18   0  -2    0.51    8.93
 -26   1   2   40.90   11.70
 -25  -1   2   32.76    9.93
 -25   1   2   40.02   11.82
 -24   1   2   32.76   10.93
 -24  -1   2   22.50    8.58
 -23  -1   2   24.09    8.76
 -23   1   2   17.22    9.28
 -22  -1   2    0.16    7.42
 -22   1   2   11.32    8.64
 -21  -1   2   26.66    7.94
 -21   1   2   12.69    8.40
 -20  -1   2   71.70   10.45
 -20   1   2   77.11   11.40
 -19   1   2   98.31   12.50
 -19  -1   2   95.45   11.29
 -18   1   2   70.41   11.12
 -18  -1   2   65.45    9.80
 -17   1   2  109.25   12.81
 -17  -1   2   92.39   11.27
 -16  -1   2  178.92   13.77
 -16   1   2  192.84   21.75
 -16   1   2  187.41   14.65
 -15   1   2  178.06   20.46
 -15   1   2  167.55   13.57
 -14   1   2   60.61   13.72
 -13   1   2  123.34   16.61
 -12   1   2   17.01    8.74
 -11   1   2   53.88   11.20
 -10   1   2   64.92   10.76
  -9   1   2    1.96    6.19
  -8  -1   2   37.90    7.05
  -7  -1   2   22.93    5.53
  -6  -1   2   11.46    4.37
   5  -1  -2   59.96    3.05
  -5  -1   2   70.19    6.48
  -4  -1   2   32.02    3.92
   4  -1  -2   31.97    2.71
   3  -1  -2  163.95    5.96
  -1   1  -2  275.99    7.40
  -2   1  -2   73.24    6.16
  -2   1  -2   62.73    4.90
  -3   1  -2   52.50    5.61
  -3   1  -2   52.23    5.82
  -4   1  -2    5.96    4.18
  -4   1  -2    4.84    4.14
  -5  -1  -2   25.77    5.24
  -5   1  -2   18.83    4.75
  -5   1  -2   23.03    5.54
  -6  -1  -2   16.88    4.93
  -6   1  -2   20.74    6.23
  -6   1  -2   11.62    4.37
  -7   1  -2  114.32    8.55
  -7   1  -2   97.77   10.53
  -7  -1  -2  113.33    9.08
  -8   1  -2   35.41    5.62
  -8  -1  -2   33.71    6.13
  -8   1  -2   28.00    7.27
  -9   1  -2   21.68    7.69
  -9  -1  -2   20.12    5.52
 -10  -1  -2   -0.24    4.45
 -11  -1  -2   -0.77    5.43
 -12  -1  -2   90.17   10.18
 -13  -1  -2   -1.25    5.46
 -15   1  -2    3.38    7.05
 -16  -1  -2   -9.42    9.25
 -16   1  -2   -3.40    8.42
 -17   1  -2   -0.30    8.10
 -17  -1  -2    6.02    7.74
 -18   1  -2   -0.05    9.51
 -26   2   2   44.05   13.44
 -25   2   2    7.75   10.61
 -24   2   2   44.16   12.38
 -23   2   2   -0.48    9.86
 -22   2   2   52.22   11.51
 -21   2   2    0.03    8.78
 -20  -2   2   29.02    7.23
 -20   2   2   31.71    8.88
 -19   2   2   42.17    9.51
 -19  -2   2   29.49    7.18
 -18  -2   2  149.53   12.74
 -18   2   2  154.40   22.70
 -18   2   2  151.44   14.93
 -17  -2   2   19.04    6.14
 -17   2   2   23.32   14.45
 -17   2   2   40.54    9.18
 -16   2   2  123.07   20.05
 -16   2   2  130.95   13.00
 -15   2   2   13.82   11.37
 -15   2   2   10.54    5.66
 -14   2   2   93.06   16.39
 -13   2   2    8.37    9.06
 -12   2   2  112.15   14.85
  -4   2  -2   97.93    8.62
  -5   2  -2  100.23    9.92
  -6   2  -2  110.08   11.05
  -7   2  -2  212.93   15.44
  -8   2  -2   26.04    7.75
  -9  -2  -2    6.24    4.93
  -9   2  -2    6.07    6.81
 -10  -2  -2   50.80    7.72
 -10   2  -2   58.98   11.28
 -11   2  -2  187.68   18.13
 -11  -2  -2  207.22   14.48
 -12   2  -2   15.82    9.11
 -12  -2  -2   10.54    6.33
 -13   2  -2   78.89   13.61
 -13  -2  -2   61.76    9.38
 -14   2  -2   51.48    9.13
 -15   2  -2  281.03   18.70
 -16   2  -2   22.24    8.81
 -17   2  -2   58.87   12.26
 -18   2  -2   49.39   13.11
 -26   3   2   65.45   15.03
 -25   3   2   36.04   13.36
 -24   3   2   47.27   13.78
 -23   3   2   26.23   11.44
 -22   3   2    9.23    9.67
 -21   3   2   26.71   10.34
 -20   3   2   42.20   10.62
 -20   3   2   48.03   18.31
 -19   3   2   20.30    8.06
 -19   3   2   50.32   17.51
 -18   3   2   -0.14    8.16
 -18   3   2    7.26   12.43
 -17   3   2  113.14   20.36
 -17   3   2  125.99   13.11
 -16   3   2   54.39    9.73
 -16   3   2   39.36   15.07
 -15   3   2   46.74   14.30
 -15   3   2   62.40    9.35
 -14   3   2   17.34   11.51
 -14   3   2   32.71    7.23
 -13   3   2  110.24   16.39
  -7   3  -2  247.19   16.99
  -8   3  -2    1.27    6.49
  -9   3  -2  231.63   18.69
 -10   3  -2  107.99   14.35
 -11   3  -2  268.88   21.97
 -12   3  -2   21.53   10.35
 -12  -3  -2   17.61    6.95
 -13   3  -2   84.65   10.62
 -13  -3  -2   69.91   10.46
 -13   3  -2   85.58   14.82
 -14  -3  -2  254.31   19.02
 -14   3  -2  285.57   18.22
 -14   3  -2  272.22   24.35
 -15   3  -2   92.14   12.19
 -15   3  -2   91.66   16.68
 -16   3  -2  211.30   18.28
 -17   3  -2  115.90   16.14
 -18   3  -2  298.74   24.40
 -25   4   2  185.23   20.83
 -24   4   2   18.54   12.45
 -23   4   2   84.14   15.77
 -22   4   2   15.30   10.89
 -21   4   2   92.93   14.06
 -20   4   2   48.22   17.21
 -20   4   2   25.50    9.69
 -19   4   2  176.25   25.90
 -19   4   2  186.75   16.55
 -18   4   2   19.27   14.61
 -18   4   2    5.77    7.53
 -17   4   2   27.10    7.90
 -17   4   2   38.01   15.10
 -16   4   2   60.73   16.93
 -16   4   2   71.80   10.15
 -15   4   2  205.70   15.12
 -15   4   2  180.90   23.62
 -14   4   2   29.44   10.36
 -14   4   2   52.24    8.84
 -13   4   2  213.61   14.39
  -9   4  -2  114.43   14.56
 -10   4  -2  630.27   32.76
 -11   4  -2   38.90   11.95
 -12   4  -2  159.75   13.93
 -12   4  -2  178.45   20.18
 -13   4  -2  166.59   20.21
 -13  -4  -2  149.86   15.54
 -13   4  -2  152.48   14.45
 -14   4  -2   77.45   11.55
 -14   4  -2   75.40   15.50
 -14  -4  -2   46.62    9.63
 -15   4  -2   82.56   16.68
 -15   4  -2   87.51   13.04
 -16   4  -2  119.59   15.39
 -16   4  -2  103.34   18.64
 -24   5   2  164.09   20.43
 -23   5   2   19.44   12.58
 -22   5   2  108.44   15.76
 -21   5   2    1.75    9.06
 -20   5   2   95.66   21.06
 -20   5   2   94.00   13.68
 -19   5   2   29.31   15.65
 -19   5   2   15.26    7.97
 -18   5   2  183.06   15.94
 -18   5   2  203.41   28.42
 -17   5   2   -2.08    7.22
 -17   5   2   10.04   13.17
 -16   5   2   58.55   17.22
 -16   5   2   55.25    9.33
 -15   5   2   18.44    6.78
 -15   5   2   -0.50   13.56
 -14   5   2  146.87   12.85
 -13   5   2   15.65    6.23
 -12   5   2  184.77   13.15
 -10   5  -2   16.77    9.80
 -11   5  -2  210.82   22.09
 -11   5  -2  179.56   14.77
 -12   5  -2   17.42   10.95
 -12   5  -2   24.53    8.01
 -13   5  -2   47.42    9.97
 -13   5  -2   48.60   13.97
 -14  -5  -2   32.16   10.00
 -14   5  -2   35.12   13.70
 -14   5  -2   48.89   11.35
 -15   5  -2   44.45   15.10
 -16   5  -2  128.40   20.89
 -17   5  -2   22.88   13.74
 -23   6   2   77.29   15.86
 -22   6   2   17.55   11.52
 -21   6   2   36.54   12.55
 -20   6   2    2.00    9.60
 -19   6   2   15.97    9.12
 -18   6   2   -0.04    7.66
 -18   6   2  -13.42   14.65
 -17   6   2   60.77   19.02
 -17   6   2   67.12   10.87
 -16   6   2   -8.68   13.57
 -16   6   2   -5.86    7.32
 -15   6   2    8.10   11.62
 -15   6   2   10.21    6.26
 -14   6   2   -9.19    6.35
 -13   6   2   24.62    6.61
 -12   6   2    9.18    5.19
 -11   6   2   15.38    5.43
 -10   6  -2   14.96   10.60
 -11   6  -2   21.59   11.29
 -12   6  -2    0.06   10.85
 -13   6  -2   -8.27   12.34
 -14   6  -2    3.66   11.64
 -15   6  -2   44.83   15.68
 -16   6  -2   19.14   13.41
 -17   6  -2   14.77   13.83
 -18   6  -2    2.31   11.66
 -21   7   2   17.72   11.52
 -20   7   2   -0.47    9.77
 -19   7   2   29.42   10.96
 -18   7   2    4.51    8.30
 -17   7   2    5.18   13.05
 -17   7   2   13.66    8.38
 -16   7   2  -14.22   15.43
 -16   7   2  -10.09    8.10
 -15   7   2   34.32   15.54
 -15   7   2   33.08    8.93
 -14   7   2   -4.54    6.86
 -13   7   2   75.73    9.92
 -12   7   2   -5.55    5.50
 -11   7   2   39.67    7.31
 -10   7   2   -2.04    4.62
 -11   7  -2   23.24   12.84
 -12   7  -2  -12.43   13.12
 -13   7  -2   -3.13   12.33
 -14   7  -2    3.01   12.04
 -15   7  -2   29.68   15.45
 -16   7  -2   27.36   15.13
 -17   7  -2   11.35   13.54
 -19   8   2   19.88   11.20
 -18   8   2   78.60   14.08
 -17   8   2   19.27   10.06
 -16   8   2   59.73   12.07
 -15   8   2    5.83    7.82
 -15   8   2  -31.53   17.53
 -14   8   2   92.90   12.76
 -13   8   2    2.79    6.74
 -12   8   2   75.64   10.32
 -11   8  -2   -4.66   12.28
 -12   8  -2   61.05   18.09
 -13   8  -2   24.61   16.19
 -14   8  -2  113.69   23.18
 -15   8  -2   32.16   15.28
 -27   0   3    3.09    8.11
 -26   0   3    1.50    7.89
 -25   0   3   -4.53    8.50
 -24   0   3   -7.94    8.58
 -23   0   3  -14.85    9.63
 -22   0   3  -11.32    9.24
 -21   0   3   -9.61    8.94
 -20   0   3    3.42    7.88
 -19   0   3    7.60    7.52
 -18   0   3    0.46    6.61
 -17   0   3   -6.60    7.48
 -16   0   3   -1.67    6.13
 -14   0   3    1.00    8.42
 -13   0   3    6.58    8.26
 -12   0   3    3.27    7.89
 -11   0   3    1.85    6.83
 -10   0   3   -2.29    5.86
  -9   0   3    0.18    5.70
  -8   0   3   -2.97    5.55
   4   0  -3    1.83    2.91
   3   0  -3    1.04    3.33
   2   0  -3    2.28    3.29
   1   0  -3    0.83    3.37
   0   0  -3   -1.48    3.79
  -1   0  -3    2.11    4.11
  -2   0  -3    0.25    4.42
  -3   0  -3    3.98    5.01
  -4   0  -3   -3.48    5.45
  -5   0  -3   -1.08    4.85
  -6   0  -3   -3.10    5.41
  -7   0  -3   -3.08    5.49
  -8   0  -3   -2.37    5.73
  -9   0  -3   -0.07    5.70
 -10   0  -3   -2.58    5.91
 -11   0  -3    4.48    6.29
 -12   0  -3   -0.23    5.65
 -13   0  -3    4.38    6.15
 -27   1   3   -0.95    8.60
 -26  -1   3   91.69   12.30
 -26   1   3   94.72   13.65
 -25  -1   3    1.78    7.38
 -25   1   3    1.37    8.48
 -24   1   3  135.98   15.46
 -24  -1   3  142.25   14.21
 -23   1   3   -3.67    8.98
 -23  -1   3   -0.46    6.94
 -22  -1   3   94.52   11.70
 -22   1   3   98.43   13.45
 -21   1   3  -15.64   10.56
 -21  -1   3  -10.51    7.76
 -20  -1   3  151.77   14.85
 -20   1   3  164.87   16.58
 -19  -1   3   14.30    7.67
 -19   1   3   21.06    9.06
 -18  -1   3  153.58   14.10
 -18   1   3  152.15   15.03
 -17   1   3   12.50   12.04
 -17   1   3   -4.28    7.27
 -17  -1   3   -0.30    6.19
 -16   1   3  261.87   25.40
 -16   1   3  254.19   17.30
 -16  -1   3  258.48   16.72
 -15   1   3    5.55   10.02
 -15   1   3    7.15    6.10
 -14   1   3   44.90   12.99
 -13   1   3    4.90    8.26
 -12   1   3 2851.30   68.07
 -11   1   3   -1.06    8.39
 -10  -1   3 1405.97   38.97
 -10   1   3 1418.30   42.95
  -9  -1   3   24.18    6.90
  -8  -1   3 2721.60   46.21
  -7  -1   3    4.33    4.19
   6  -1  -3  242.32    8.22
  -6  -1   3  241.58   12.24
   5  -1  -3    7.54    2.71
  -5  -1   3    6.85    3.43
  -4  -1   3 1549.43   22.27
   4  -1  -3 1552.38   21.55
  -3  -1   3   18.71    2.47
   3  -1  -3   24.68    4.00
   2  -1  -3  913.16   19.17
   1  -1  -3    3.85    3.53
   0   1  -3  436.16   15.52
   0  -1  -3  448.69   14.90
  -1  -1  -3    6.72    4.53
  -1   1  -3    9.92    4.91
  -2   1  -3 3875.34   48.64
  -2  -1  -3 3898.58   47.51
  -3  -1  -3   56.28    7.81
  -3   1  -3   60.30    8.17
  -4  -1  -3 3590.64   49.30
  -4   1  -3 3614.59   49.60
  -5  -1  -3   20.21    6.14
  -5   1  -3   21.76    6.29
  -6   1  -3 1314.39   31.42
  -6  -1  -3 1319.66   31.77
  -7  -1  -3   16.28    6.18
  -7   1  -3   14.67    5.85
  -8   1  -3  449.19   19.42
  -8  -1  -3  444.22   19.53
  -9   1  -3    6.63    5.75
  -9  -1  -3    3.70    5.22
 -10   1  -3  302.24   16.66
 -10  -1  -3  296.80   17.28
 -11  -1  -3   31.55    8.07
 -12  -1  -3  780.39   29.99
 -13  -1  -3   14.42    6.73
 -27   2   3  346.87   23.21
 -26   2   3    8.50    9.91
 -25   2   3  376.87   24.05
 -24   2   3    5.78    9.32
 -23   2   3  301.72   21.26
 -22   2   3    3.76    9.06
 -22  -2   3    7.76    5.77
 -21  -2   3  592.97   24.48
 -21   2   3  607.32   28.67
 -20   2   3   -0.04    8.18
 -20  -2   3    6.72    6.36
 -19  -2   3  299.65   18.16
 -19   2   3  315.64   32.28
 -19   2   3  322.32   21.44
 -18   2   3   34.45    9.54
 -18  -2   3   26.91    7.85
 -18   2   3   43.43   15.42
 -17   2   3  540.97   39.12
 -17  -2   3  534.46   23.20
 -17   2   3  536.52   25.31
 -16   2   3    6.71   11.15
 -16  -2   3    1.07    5.26
 -16   2   3   -1.37    6.42
 -15   2   3  371.73   30.93
 -15   2   3  360.57   19.79
 -14   2   3   11.61    5.35
 -14   2   3    8.05    9.67
 -13   2   3  685.12   37.89
 -12   2   3   -1.28   10.06
   8  -2  -3    1.59    1.22
   7  -2  -3 2823.62   24.27
   6  -2  -3    3.03    2.15
   0   2  -3    3.12    1.56
  -1   2  -3  270.38    9.35
  -2   2  -3   18.70    4.75
  -3   2  -3 5197.54   54.85
  -4   2  -3   52.72    7.76
  -5   2  -3 2659.62   47.07
  -6   2  -3   56.99    9.36
  -7  -2  -3 2191.77   43.03
  -7   2  -3 2204.14   47.41
  -8   2  -3   30.57    8.87
  -8  -2  -3   28.20    7.36
  -9   2  -3  214.98   17.58
  -9  -2  -3  213.27   15.18
 -10  -2  -3   12.16    6.72
 -10   2  -3   22.84    9.03
 -11  -2  -3 1375.96   38.58
 -12  -2  -3   35.28    8.38
 -13  -2  -3  572.93   27.14
 -13   2  -3  595.32   26.66
 -14  -2  -3   28.36    8.67
 -27   3   3   22.36   10.82
 -26   3   3  499.09   28.34
 -25   3   3   18.16   11.50
 -24   3   3  338.95   23.67
 -23   3   3   -1.62    9.26
 -22   3   3  691.35   31.18
 -21   3   3   -0.14    9.61
 -20   3   3  540.07   27.03
 -20   3   3  518.08   42.49
 -19   3   3   13.44   13.66
 -19   3   3   14.70    8.69
 -18   3   3  462.20   24.47
 -18   3   3  429.20   37.91
 -17   3   3   25.88    8.99
 -17   3   3   25.94   13.79
 -16   3   3  503.49   23.77
 -16   3   3  503.20   38.39
 -15   3   3   -6.38   12.27
 -15   3   3    4.43    6.04
 -14   3   3 1138.03   33.05
 -14   3   3 1198.99   53.60
  -4   3  -3 1804.28   38.23
  -5   3  -3    7.91    5.47
  -6   3  -3 1780.59   43.70
  -7   3  -3   35.96    8.87
  -8   3  -3 1175.05   39.74
  -9   3  -3   15.54    9.02
 -10   3  -3  691.00   32.69
 -10  -3  -3  647.12   27.43
 -11   3  -3    7.16    8.47
 -11  -3  -3    2.83    6.89
 -12   3  -3  797.01   37.48
 -12  -3  -3  774.95   32.01
 -13  -3  -3   27.06    7.86
 -14  -3  -3 1210.34   42.00
 -26   4   3   30.30   12.42
 -25   4   3  267.23   22.08
 -24   4   3   17.55   11.08
 -23   4   3  410.67   25.75
 -22   4   3    0.87   10.07
 -21   4   3  285.47   20.88
 -20   4   3   19.55   15.35
 -20   4   3    3.51    8.44
 -19   4   3  380.28   37.60
 -19   4   3  386.96   22.35
 -18   4   3    3.85   13.48
 -18   4   3    9.38    7.53
 -17   4   3  324.21   20.38
 -17   4   3  263.39   30.83
 -16   4   3  -14.71   15.22
 -16   4   3   11.84    7.63
 -15   4   3  515.64   23.21
 -15   4   3  487.42   37.59
 -14   4   3    0.82    4.73
 -13   4   3  724.78   25.64
  -6   4  -3   75.55   10.95
  -7   4  -3 1019.70   37.03
  -8   4  -3   43.95   10.93
  -9   4  -3 1598.71   50.04
 -10   4  -3   41.67   11.87
 -11  -4  -3  258.10   19.91
 -11   4  -3  262.20   24.06
 -12   4  -3   15.37   10.38
 -12  -4  -3    9.47    7.58
 -13  -4  -3  913.36   38.19
 -13   4  -3  904.82   43.30
 -14  -4  -3    0.42    7.36
 -14   4  -3   17.96   11.54
 -26   5   3   56.07   13.94
 -25   5   3   22.32   11.61
 -24   5   3  155.44   18.28
 -23   5   3   11.09   10.85
 -22   5   3   51.01   12.40
 -21   5   3    2.84    9.08
 -20   5   3   79.30   12.34
 -19   5   3   17.04   15.23
 -19   5   3    9.81    7.74
 -18   5   3   78.33   20.59
 -18   5   3   71.17   10.77
 -17   5   3   -1.95    7.75
 -17   5   3  -15.09   14.97
 -16   5   3  164.72   14.37
 -16   5   3  126.62   22.64
 -15   5   3   24.86    8.08
 -15   5   3    7.05   11.53
 -14   5   3  162.17   13.54
 -13   5   3   19.41    6.50
 -12   5   3  196.54   13.91
  -8   5  -3  388.81   25.88
  -9   5  -3  161.53   18.81
 -10   5  -3  369.91   27.96
 -11   5  -3   11.96   10.49
 -12   5  -3  199.55   22.89
 -13  -5  -3   58.59   12.40
 -13   5  -3   71.67   16.13
 -14   5  -3  124.38   19.67
 -14  -5  -3  123.03   16.63
 -15   5  -3   23.36   14.05
 -24   6   3   24.81   12.43
 -23   6   3    6.47   10.71
 -22   6   3   18.44   11.05
 -21   6   3   -7.94   10.32
 -20   6   3   10.39    8.86
 -19   6   3    2.24    8.28
 -18   6   3   19.70   15.20
 -18   6   3   16.20    8.12
 -17   6   3   -5.74   13.97
 -17   6   3  -10.59    8.15
 -16   6   3    3.07   12.47
 -16   6   3   10.25    6.99
 -15   6   3   -1.32    6.77
 -14   6   3   36.36    8.21
 -13   6   3    0.71    5.37
 -12   6   3   30.33    7.03
 -11   6   3   21.22    5.87
  -8   6  -3  157.49   18.93
  -9   6  -3    2.61   10.18
 -10   6  -3   54.40   14.56
 -11   6  -3   51.59   14.53
 -12   6  -3  107.07   19.14
 -13   6  -3    5.39   11.65
 -14   6  -3   44.00   15.26
 -14  -6  -3   36.60   11.86
 -15   6  -3   19.22   13.92
 -16   6  -3   48.52   16.50
 -23   7   3   21.24   11.68
 -22   7   3   19.72   11.15
 -21   7   3   21.06   10.78
 -20   7   3   12.01    9.50
 -19   7   3   -0.94    8.28
 -18   7   3   -3.64    8.37
 -17   7   3    9.00   12.67
 -17   7   3   13.78    7.81
 -16   7   3   18.46    7.78
 -16   7   3   12.38   12.85
 -15   7   3   -0.09    6.12
 -14   7   3    5.71    6.13
 -13   7   3   10.99    6.07
 -12   7   3    9.11    5.78
 -11   7   3    9.62    5.27
  -9   7  -3   28.53   12.46
 -10   7  -3  -15.83   13.14
 -11   7  -3  102.31   20.12
 -12   7  -3   -6.33   12.67
 -13   7  -3   56.47   17.79
 -14   7  -3   12.54   12.98
 -14  -7  -3   -3.60    9.84
 -15   7  -3   73.47   18.77
 -16   7  -3   -8.83   12.72
 -21   8   3   30.96   11.28
 -20   8   3   24.87   10.77
 -19   8   3   44.13   11.65
 -18   8   3    0.05    8.58
 -17   8   3   18.44    9.13
 -16   8   3    3.16    7.43
 -15   8   3   49.50   10.23
 -14   8   3   -5.67    6.89
 -13   8   3   13.84    6.74
 -14  -8  -3   76.00   17.59
 -17   9   3   15.19   10.03
 -16   9   3   12.37    9.46
 -28   0   4   24.02    8.49
 -27   0   4  353.72   21.20
 -26   0   4   43.63   10.05
 -25   0   4  253.53   18.44
 -24   0   4   41.08   10.02
 -23   0   4  363.66   21.75
 -22   0   4   64.44   11.69
 -21   0   4  467.13   25.25
 -20   0   4   45.19   11.06
 -19   0   4  555.08   26.65
 -18   0   4   65.86   11.03
 -17   0   4  562.65   26.12
 -16   0   4   70.03   10.31
 -15   0   4 1133.90   46.58
 -15   0   4 1105.82   33.79
 -14   0   4  104.75   15.20
 -13   0   4 1539.30   49.75
 -12   0   4  631.16   31.90
 -11   0   4 3712.17   70.22
 -10   0   4  630.14   28.26
  -9   0   4 2851.00   55.18
  -8   0   4  938.94   29.85
   4   0  -4  781.87   20.92
   3   0  -4 3761.01   46.55
   2   0  -4  592.07   19.30
   1   0  -4 1092.34   26.67
   0   0  -4  831.16   24.24
  -1   0  -4 4175.42   55.05
  -2   0  -4  473.61   20.05
  -3   0  -4 2234.29   43.09
  -4   0  -4  665.41   24.72
  -5   0  -4 4144.32   61.27
  -6   0  -4  653.08   25.57
  -7   0  -4  562.91   24.44
  -8   0  -4  325.08   19.26
  -9   0  -4 2905.80   56.39
 -10   0  -4  514.67   25.09
 -11   0  -4 1167.56   38.53
 -12   0  -4  345.34   22.06
 -13   0  -4 2008.11   51.88
 -28   1   4  144.16   14.74
 -27   1   4   21.60    9.08
 -27  -1   4   25.02    8.59
 -26  -1   4  230.76   16.74
 -26   1   4  219.30   17.70
 -25  -1   4   30.96    8.66
 -25   1   4   32.05   10.18
 -24   1   4  190.34   17.24
 -24  -1   4  189.60   15.53
 -23  -1   4   45.28    9.57
 -23   1   4   32.27    9.89
 -22  -1   4  246.57   18.37
 -22   1   4  256.13   19.85
 -21  -1   4   41.65   10.21
 -21   1   4   47.19   11.60
 -20   1   4  395.75   23.90
 -20  -1   4  373.02   21.78
 -19  -1   4   84.85   12.21
 -19   1   4   83.22   12.53
 -18   1   4  356.68   22.09
 -18  -1   4  350.36   21.12
 -18   1   4  334.09   31.10
 -17   1   4   58.55   15.65
 -17  -1   4   31.04    7.86
 -17   1   4   43.77    9.87
 -16   1   4  516.65   24.52
 -16   1   4  548.85   35.97
 -16  -1   4  533.15   23.80
 -15   1   4   81.19   10.61
 -15   1   4  115.54   18.67
 -15  -1   4  100.10   10.88
 -14   1   4  980.62   45.10
 -13   1   4  250.64   22.95
 -12   1   4 1049.50   42.62
 -11  -1   4  401.31   22.75
 -11   1   4  385.98   25.15
 -10  -1   4 1377.04   37.70
  -9  -1   4  421.81   20.02
  -8  -1   4  908.85   26.98
   7  -1  -4  392.05   12.39
  -7  -1   4  411.72   17.27
  -6  -1   4 1826.73   32.22
   6  -1  -4 1803.39   28.18
  -5  -1   4  590.33   16.29
   5  -1  -4  583.65   16.20
  -4  -1   4  924.96   16.95
   4  -1  -4  917.42   20.45
   3  -1  -4  270.61   11.67
   2  -1  -4 1059.56   23.57
   1   1  -4  408.95   17.15
   1  -1  -4  409.57   15.87
   0   1  -4 2834.53   45.41
   0  -1  -4 2852.04   42.95
  -1   1  -4  741.20   24.64
  -1  -1  -4  727.10   23.25
  -2  -1  -4 1297.24   31.87
  -2   1  -4 1313.70   33.13
  -3   1  -4  576.84   23.20
  -3  -1  -4  576.99   22.53
  -4  -1  -4 1290.17   33.70
  -4   1  -4 1296.85   34.70
  -5  -1  -4  352.58   18.71
  -5   1  -4  353.77   19.11
  -6  -1  -4  989.90   30.49
  -6   1  -4 1004.27   31.36
  -7   1  -4  433.76   21.42
  -7  -1  -4  430.38   21.09
  -8   1  -4  950.95   31.61
  -8  -1  -4  928.53   30.80
  -9   1  -4  232.78   16.69
  -9  -1  -4  264.45   17.87
 -10   1  -4 1517.63   40.69
 -10  -1  -4 1525.15   41.89
 -11  -1  -4  439.82   23.90
 -12  -1  -4 1201.47   39.88
 -13  -1  -4  390.39   24.41
 -14  -1  -4  876.27   37.13
 -28   2   4   33.74   10.17
 -27   2   4   16.97    9.19
 -26   2   4   21.12    9.89
 -25   2   4   58.39   11.78
 -24   2   4   21.44    9.42
 -23   2   4   31.36    9.97
 -23  -2   4   31.97    7.73
 -22  -2   4   27.88    7.74
 -22   2   4   16.04    8.88
 -21  -2   4   82.79   11.13
 -21   2   4  103.19   14.98
 -20   2   4   48.39   11.94
 -20  -2   4   37.22    8.65
 -19   2   4   87.99   20.35
 -19  -2   4   75.69   10.64
 -19   2   4   87.54   13.13
 -18  -2   4   57.86    9.73
 -18   2   4   68.33   18.79
 -18   2   4   70.69   12.22
 -17   2   4  132.86   14.46
 -17   2   4  144.63   23.33
 -17  -2   4  133.08   12.81
 -16  -2   4   45.76    8.21
 -16   2   4   52.41   16.19
 -16   2   4   42.10    8.79
 -15   2   4  225.85   25.22
 -15   2   4  200.20   15.27
 -14   2   4  230.96   24.68
 -14   2   4  188.77   14.31
 -13   2   4  382.58   29.26
   8  -2  -4   20.88    3.27
   7  -2  -4   18.36    3.16
   6  -2  -4  120.30    6.95
   5  -2  -4   98.17    6.91
   4  -2  -4   28.15    4.75
   3  -2  -4   34.75    5.55
   2  -2  -4   94.72    8.74
   1  -2  -4 1977.10   36.17
   0  -2  -4  264.50   14.74
  -1  -2  -4 1282.20   31.82
  -2  -2  -4  685.79   24.63
  -3  -2  -4   77.64   10.04
  -4  -2  -4  119.12   12.02
  -5  -2  -4  143.10   13.17
  -6  -2  -4  305.98   18.53
  -7  -2  -4  612.50   25.90
  -8  -2  -4   96.29   11.70
  -9  -2  -4   78.32   10.98
 -10  -2  -4  243.01   17.92
 -11  -2  -4  635.29   28.34
 -12  -2  -4  147.07   15.11
 -13  -2  -4  226.54   18.97
 -14  -2  -4  167.35   17.66
 -28   3   4   10.99    9.18
 -27   3   4   41.69   11.01
 -26   3   4   14.18    9.82
 -25   3   4   17.65    9.66
 -24   3   4   -4.29    9.93
 -23   3   4    9.22    9.68
 -22   3   4  -11.15   10.98
 -21   3   4   43.51   11.04
 -21   3   4   59.90   19.46
 -20   3   4   25.74   17.16
 -20   3   4   31.45   11.15
 -19   3   4   16.65   14.59
 -19   3   4   18.61    9.88
 -18   3   4   21.78    9.19
 -18   3   4   39.16   17.70
 -17   3   4   80.55   11.87
 -17   3   4   80.40   19.63
 -16   3   4    3.79   12.68
 -16   3   4   14.42    7.02
 -15   3   4   71.18   17.01
 -15   3   4   80.05   10.41
 -14   3   4   -1.15   13.22
 -14   3   4    9.25    5.90
 -13   3   4  103.84   10.67
   8  -3  -4   43.09    4.49
   7  -3  -4   42.21    4.83
   0   3  -4   49.51    3.31
  -1   3  -4   38.88    4.54
  -2   3  -4  140.03    9.38
  -3   3  -4   10.64    4.86
  -4   3  -4   12.42    5.83
  -5   3  -4   47.29    8.39
  -6   3  -4   98.44   11.96
  -7  -3  -4   28.48    8.69
  -7   3  -4   25.59    8.52
  -8   3  -4    1.15    6.74
  -8  -3  -4    5.99    7.35
  -9   3  -4    6.90    7.62
  -9  -3  -4    9.03    7.31
 -10  -3  -4   20.18    8.64
 -11  -3  -4    2.13    7.41
 -12  -3  -4    7.85    7.44
 -13  -3  -4   21.01    8.15
 -14  -3  -4    2.48    7.21
 -27   4   4   61.71   12.67
 -26   4   4   23.19   10.81
 -25   4   4   82.90   14.25
 -24   4   4   10.22   10.22
 -23   4   4   46.61   11.72
 -22   4   4   -5.38   10.43
 -21   4   4  109.32   14.40
 -20   4   4   29.41   15.63
 -20   4   4    6.58    8.69
 -19   4   4   49.94   18.96
 -19   4   4   97.39   14.00
 -18   4   4   -1.03   13.60
 -18   4   4    9.63    8.56
 -17   4   4   32.99    9.64
 -17   4   4   -2.00   16.04
 -16   4   4   21.33   14.17
 -16   4   4   47.17    9.79
 -15   4   4   29.27    8.41
 -15   4   4    9.89   14.92
 -14   4   4    4.13    5.57
 -13   4   4  156.93   13.00
 -12   4   4    3.62    4.80
  -2   4  -4   17.77    5.26
  -3   4  -4   95.90   10.00
  -4   4  -4    0.38    5.55
  -5   4  -4  703.52   28.85
  -6   4  -4  292.34   20.51
  -7   4  -4  376.69   24.25
  -8   4  -4    5.88    8.12
  -9   4  -4  188.99   19.08
  -9  -4  -4  199.13   18.29
 -10   4  -4   32.57   10.94
 -10  -4  -4   31.99   10.35
 -11  -4  -4  130.75   15.91
 -11   4  -4  128.74   17.38
 -12  -4  -4   14.30    8.51
 -13  -4  -4  128.16   16.71
 -14  -4  -4   -0.42    8.62
 -27   5   4   23.15   10.70
 -26   5   4   87.96   14.69
 -25   5   4   23.02   11.08
 -24   5   4  212.82   19.51
 -23   5   4   -3.16   10.22
 -22   5   4  182.39   17.66
 -21   5   4   -4.54   10.13
 -20   5   4  147.44   15.97
 -19   5   4   -5.75   14.61
 -19   5   4  -10.57   10.00
 -18   5   4  159.22   27.57
 -18   5   4  183.74   16.85
 -17   5   4   10.84    8.59
 -17   5   4    3.70   13.23
 -16   5   4  169.02   15.24
 -16   5   4  137.54   24.39
 -15   5   4   10.56    7.00
 -14   5   4  216.39   15.98
 -13   5   4    8.07    5.98
 -12   5   4  340.06   18.46
 -11   5   4    4.08    4.88
  -5   5  -4  209.93   17.16
  -6   5  -4  599.05   30.02
  -7   5  -4   53.87   11.55
  -8   5  -4  551.59   31.63
  -9   5  -4   38.38   12.27
 -10   5  -4  188.22   21.29
 -11  -5  -4   11.44    9.76
 -11   5  -4    5.11    9.70
 -12   5  -4  329.37   27.80
 -12  -5  -4  320.09   26.16
 -13  -5  -4   16.88   10.66
 -13   5  -4   14.28   11.65
 -14  -5  -4  249.41   23.89
 -26   6   4   23.96   10.97
 -25   6   4  131.91   16.98
 -24   6   4    8.61   10.74
 -23   6   4  242.56   20.51
 -22   6   4    8.86   10.08
 -21   6   4  103.64   14.22
 -20   6   4   17.83    9.35
 -19   6   4  137.10   14.88
 -18   6   4    1.66   14.12
 -18   6   4    5.73    7.73
 -17   6   4  108.98   23.88
 -17   6   4  149.11   14.72
 -16   6   4   28.62   15.78
 -16   6   4   46.04    9.95
 -15   6   4  257.83   18.09
 -14   6   4   65.39   10.18
 -13   6   4  193.86   14.89
 -12   6   4   55.49    8.97
 -11   6   4  294.10   16.68
 -10   6   4    6.89    5.11
  -6   6  -4   38.43   10.06
  -7   6  -4  315.11   24.90
  -8   6  -4  116.95   17.30
  -9   6  -4  111.73   17.50
 -10   6  -4   10.88   10.76
 -11   6  -4  251.69   25.62
 -12   6  -4   49.79   14.80
 -12  -6  -4   62.76   15.45
 -13   6  -4  161.48   22.31
 -13  -6  -4  192.08   22.91
 -14  -6  -4    8.52   11.46
 -24   7   4   56.18   13.44
 -23   7   4   37.63   12.28
 -22   7   4   86.92   14.56
 -21   7   4   52.87   12.52
 -20   7   4   43.38   11.24
 -19   7   4   33.40   10.38
 -18   7   4   60.62   10.85
 -17   7   4   21.86    8.33
 -17   7   4    6.73   12.41
 -16   7   4   33.91    8.79
 -15   7   4   12.62    7.14
 -14   7   4   86.48   11.47
 -13   7   4   67.40   10.12
 -12   7   4   68.98    9.35
 -11   7   4   41.36    7.96
 -12  -7  -4  104.89   19.71
 -13  -7  -4   22.54   12.96
 -14  -7  -4   81.32   18.29
 -22   8   4   65.67   13.39
 -21   8   4   18.03   10.34
 -20   8   4   54.68   12.29
 -19   8   4    0.32    8.11
 -18   8   4   66.43   12.15
 -17   8   4    3.07    7.76
 -16   8   4   19.98    8.39
 -15   8   4   -5.09    6.82
 -14   8   4   -0.06    6.09
 -13   8   4   16.43    6.84
 -12  -8  -4   22.03   14.20
 -13  -8  -4    9.19   12.69
 -14  -8  -4   46.76   15.81
 -19   9   4   45.52   11.88
 -18   9   4    2.80    8.85
 -17   9   4   42.39   11.16
 -29   0   5   -3.11    6.24
 -28   0   5   -3.31    6.74
 -27   0   5    1.49    6.84
 -26   0   5   -6.10    7.16
 -25   0   5   -9.13    8.10
 -24   0   5  -13.03    8.86
 -23   0   5    3.50    7.83
 -22   0   5    4.09    8.16
 -21   0   5    4.10    8.06
 -20   0   5   -4.01    7.97
 -19   0   5   -3.49    7.98
 -18   0   5   -2.27    8.03
 -17   0   5   -7.87    7.80
 -16   0   5   -4.61    7.11
 -15   0   5    0.50    7.49
 -14   0   5   -3.09    8.05
 -13   0   5    2.74    7.87
 -12   0   5   -0.47    6.92
 -11   0   5    1.56    6.99
 -10   0   5   -3.31    6.38
  -9   0   5   -2.70    6.28
   5   0  -5   -0.89    4.22
   4   0  -5   -0.96    4.40
   3   0  -5    2.30    5.06
   2   0  -5   -0.84    5.14
   1   0  -5    1.10    5.33
   0   0  -5   -1.98    5.84
  -1   0  -5   -2.70    6.08
  -2   0  -5    2.07    6.65
  -3   0  -5   -3.08    7.08
  -4   0  -5   -1.17    6.71
  -5   0  -5   -1.75    6.96
  -6   0  -5   -2.44    7.28
  -7   0  -5   -1.30    7.54
  -8   0  -5    1.49    7.21
  -9   0  -5   -0.21    7.76
 -10   0  -5   -7.97    8.54
 -11   0  -5    1.40    7.40
 -12   0  -5   -0.95    7.20
 -13   0  -5    1.27    7.01
 -29   1   5    7.82    6.87
 -28   1   5   -2.04    7.16
 -27   1   5    0.73    7.31
 -27  -1   5   -1.93    6.71
 -26  -1   5    6.11    6.75
 -26   1   5   -0.22    7.43
 -25  -1   5   -3.00    7.04
 -25   1   5  -15.73    9.18
 -24   1   5   -9.90    9.62
 -24  -1   5   -7.86    7.86
 -23   1   5    1.62    8.66
 -23  -1   5   -9.65    8.26
 -22   1   5   34.92   11.25
 -22  -1   5   32.44   10.02
 -21   1   5   24.41   10.25
 -21  -1   5   20.38    8.88
 -20   1   5    1.34    8.20
 -20  -1   5   -7.10    8.01
 -19  -1   5   10.35    7.39
 -19   1   5   14.91    8.63
 -18   1   5   43.89   10.22
 -18  -1   5   44.75    9.37
 -18   1   5   53.74   15.38
 -17   1   5   -1.74   10.32
 -17   1   5   -1.83    7.47
 -17  -1   5   -5.07    7.32
 -16   1   5   25.23   12.01
 -16   1   5   10.78    6.69
 -15   1   5   23.94   11.82
 -14   1   5   72.29   14.57
 -13   1   5  106.19   16.04
 -12   1   5   17.56    8.55
 -11  -1   5   19.11    6.76
 -10  -1   5   45.47    8.32
  -9  -1   5   15.77    5.92
  -8  -1   5    6.06    4.23
  -7  -1   5   65.15    7.45
   7  -1  -5   63.85    6.67
  -6  -1   5   27.29    4.94
   6  -1  -5   31.24    5.59
   5  -1  -5   78.18    7.52
  -5  -1   5   65.09    5.71
  -4  -1   5   10.40    2.43
   4  -1  -5   17.30    4.83
   3  -1  -5    8.79    4.63
   2  -1  -5   53.84    7.25
   1  -1  -5   23.48    5.83
   1   1  -5   34.02    7.89
   0   1  -5  141.08   12.92
   0  -1  -5  128.20   11.29
  -1  -1  -5   25.87    7.15
  -1   1  -5   30.77    8.16
  -2  -1  -5   96.98   10.95
  -2   1  -5  103.01   12.04
  -3   1  -5  125.83   13.50
  -3  -1  -5  135.69   12.86
  -4   1  -5   22.51    8.48
  -4  -1  -5   26.01    8.01
  -5  -1  -5    8.08    7.19
  -5   1  -5    7.63    7.55
  -6   1  -5  125.40   14.00
  -6  -1  -5  127.65   13.33
  -7   1  -5  121.31   14.10
  -7  -1  -5  118.57   13.31
  -8  -1  -5   45.22   10.26
  -8   1  -5   29.34    9.27
  -9  -1  -5   36.24    9.60
  -9   1  -5   32.02    9.76
 -10   1  -5  143.85   15.44
 -10  -1  -5  150.26   15.68
 -11  -1  -5    5.96    7.49
 -12  -1  -5   23.51    9.57
 -13  -1  -5   13.57    8.78
 -14  -1  -5   49.79   11.73
 -29   2   5    0.64    6.70
 -28   2   5    8.90    7.72
 -27   2   5   -2.00    7.82
 -26   2   5   -7.13    8.57
 -25   2   5    2.75    8.83
 -24  -2   5   -9.52    6.92
 -24   2   5  -14.87   10.27
 -23  -2   5  -10.29    8.02
 -23   2   5   -9.04   10.07
 -22  -2   5    7.61    7.27
 -22   2   5   16.79   10.65
 -21   2   5   15.76   10.21
 -21  -2   5    2.28    6.61
 -20   2   5    1.54    8.31
 -20  -2   5    1.10    6.85
 -20   2   5   12.99   14.67
 -19   2   5   15.42    8.85
 -19   2   5   24.47   14.44
 -19  -2   5   15.41    7.35
 -18  -2   5   -1.70    6.74
 -18   2   5   12.21   13.30
 -18   2   5   -2.59    8.46
 -17   2   5   80.33   18.70
 -17  -2   5   75.71   10.51
 -17   2   5   71.41   11.45
 -16   2   5   12.99   12.83
 -16   2   5   -0.02    7.65
 -15   2   5   46.91   14.23
 -15   2   5   44.99    9.13
 -14   2   5  -14.84   13.68
 -13   2   5   63.47   13.84
   8  -2  -5   25.05    4.53
   7  -2  -5    5.99    3.29
   6  -2  -5   -0.51    3.23
   5  -2  -5   64.15    6.35
   4  -2  -5   51.83    6.68
   3  -2  -5   58.55    7.24
   2  -2  -5  195.65   12.72
   1  -2  -5  471.99   20.07
   0  -2  -5   11.51    6.82
  -1  -2  -5  410.66   20.57
  -2  -2  -5  389.55   20.79
  -3  -2  -5   50.54   10.04
  -4  -2  -5  202.82   16.83
  -5  -2  -5  108.16   13.13
  -6  -2  -5   39.68    9.66
  -7  -2  -5  156.93   15.23
  -8  -2  -5  448.52   24.40
  -9  -2  -5   69.23   11.79
 -10  -2  -5   14.41    8.28
 -11  -2  -5  196.52   18.03
 -11   2  -5  230.04   17.59
 -12  -2  -5  148.84   16.59
 -13  -2  -5   72.18   13.15
 -14  -2  -5    1.90    7.41
 -29   3   5   14.67    8.07
 -28   3   5   -4.30    7.64
 -27   3   5    7.62    8.31
 -26   3   5   -4.45    8.71
 -25   3   5   -1.11    9.49
 -24   3   5  -10.78   10.61
 -23   3   5  -24.53   12.37
 -22   3   5   -0.74    9.94
 -21   3   5   14.65   10.79
 -21   3   5    6.00   12.75
 -20   3   5    4.11   12.86
 -20   3   5   14.98   10.02
 -19   3   5   11.33   14.71
 -19   3   5    2.79    8.31
 -18   3   5   15.97   15.24
 -18   3   5   20.47    9.20
 -17   3   5   28.72   15.15
 -17   3   5   23.76    9.09
 -17  -3   5   29.97    7.53
 -16   3   5   33.44   14.72
 -16   3   5   32.10    8.72
 -16  -3   5   38.26    7.85
 -15   3   5  -16.65   14.96
 -15   3   5  -10.52    8.08
 -14   3   5   23.16    6.98
   8  -3  -5    1.81    2.69
   7  -3  -5   20.85    4.17
   6  -3  -5    2.03    3.52
   5  -3  -5    9.36    4.59
   4  -3  -5  132.95   10.58
   3  -3  -5  227.82   14.42
   2  -3  -5  165.21   13.22
   1  -3  -5   22.80    7.47
   0  -3  -5  273.24   17.83
  -1  -3  -5  275.03   18.59
  -2  -3  -5  197.28   16.27
  -3  -3  -5  654.86   28.80
  -4  -3  -5  109.91   14.06
  -5  -3  -5   64.21   11.65
  -6  -3  -5   24.56    9.33
  -7  -3  -5  667.08   30.72
  -8  -3  -5  231.18   19.21
  -9  -3  -5  172.42   17.41
 -10   3  -5   12.31    8.90
 -10  -3  -5   18.91    9.00
 -11  -3  -5  161.29   16.86
 -12  -3  -5  105.02   14.47
 -13  -3  -5    1.99    9.06
 -14  -3  -5   22.00    8.98
 -28   4   5   11.10    8.88
 -27   4   5    3.45    8.35
 -26   4   5   10.99    9.20
 -25   4   5    2.80    9.22
 -24   4   5   10.10    9.55
 -23   4   5   -8.74   11.23
 -22   4   5  -16.42   11.60
 -21   4   5   11.71   10.53
 -20   4   5   21.90   15.59
 -20   4   5   39.46   12.51
 -19   4   5    6.09    9.18
 -19   4   5   12.33   15.60
 -18   4   5   74.42   20.64
 -18   4   5   68.65   12.26
 -17   4   5   -2.82   15.09
 -17   4   5   10.45    8.25
 -16   4   5  118.41   13.60
 -16   4   5  106.67   21.49
 -15   4   5    2.55    6.73
 -14   4   5   94.58   11.31
 -13   4   5   -1.91    6.25
 -12   4   5   99.09   10.50
   8  -4  -5    6.53    3.82
   7  -4  -5   18.49    5.03
   6  -4  -5    4.34    4.43
  -3   4  -5    6.19    4.52
  -4   4  -5  277.18   16.09
  -5   4  -5    2.60    5.59
  -6  -4  -5  808.94   34.72
  -6   4  -5  742.84   30.65
  -7  -4  -5    6.43    8.91
  -8  -4  -5  116.78   15.61
  -9  -4  -5    8.84    8.88
  -9   4  -5    0.57    8.43
 -10  -4  -5  226.66   20.84
 -10   4  -5  230.65   18.63
 -11  -4  -5   -1.70    9.57
 -12  -4  -5  -10.62   10.47
 -13  -4  -5   -6.56    9.02
 -14  -4  -5   27.33   10.49
 -27   5   5   55.20   12.25
 -26   5   5   30.97   10.92
 -25   5   5   13.30    9.96
 -24   5   5   65.50   13.03
 -23   5   5   69.13   13.42
 -22   5   5   20.29   10.46
 -21   5   5   25.71   10.04
 -20   5   5   12.91    9.90
 -19   5   5  166.85   28.78
 -19   5   5  212.96   19.06
 -18   5   5   33.49   18.99
 -18   5   5   49.40   12.10
 -17   5   5   46.75   18.23
 -17   5   5   60.43   11.53
 -16   5   5    3.34   14.82
 -16   5   5   24.18    9.34
 -15   5   5  374.16   21.51
 -14   5   5   39.67    8.89
 -13   5   5  142.36   13.21
 -12   5   5   96.87   11.07
 -11   5   5  162.05   12.71
   8  -5  -5  260.45   14.92
  -6   5  -5   86.85   12.51
  -7   5  -5  170.57   16.97
  -8   5  -5   85.55   13.84
  -8  -5  -5  107.27   16.86
  -8   5  -5  106.52   12.70
  -9  -5  -5  193.90   21.06
  -9   5  -5  171.48   19.44
  -9   5  -5  196.31   16.77
 -10  -5  -5   18.22   10.57
 -11  -5  -5   10.50   10.79
 -12  -5  -5   81.52   16.18
 -13  -5  -5   31.83   12.13
 -14  -5  -5   61.60   14.72
 -15  -5  -5    8.50    9.14
 -26   6   5   66.52   13.32
 -25   6   5  105.37   15.66
 -24   6   5   46.58   12.28
 -23   6   5  100.87   14.89
 -22   6   5   98.59   14.30
 -21   6   5   47.03   11.22
 -20   6   5   96.97   13.55
 -19   6   5   71.88   11.99
 -18   6   5  143.74   15.73
 -18   6   5   97.43   24.05
 -17   6   5  153.56   15.77
 -17   6   5   90.28   22.62
 -16   6   5   85.83   12.38
 -15   6   5  139.89   14.10
 -14   6   5  239.84   17.24
 -13   6   5  131.41   13.17
 -12   6   5  128.80   12.71
 -11   6   5  206.67   14.98
 -10   6   5   52.04    8.48
  -7   6  -5  193.33   14.81
  -9  -6  -5   51.66   14.84
 -10  -6  -5   97.36   18.31
 -11  -6  -5  207.57   24.50
 -12  -6  -5   31.87   13.73
 -13  -6  -5  177.94   23.41
 -14  -6  -5    5.25   10.22
 -25   7   5   51.19   12.72
 -24   7   5   84.38   14.24
 -23   7   5   44.69   11.98
 -22   7   5  107.54   15.04
 -21   7   5  122.22   15.05
 -20   7   5   65.51   12.09
 -19   7   5   57.07   11.17
 -18   7   5   82.89   12.15
 -17   7   5   83.32   11.89
 -16   7   5  118.55   13.46
 -15   7   5   17.51    7.94
 -14   7   5  159.59   14.46
 -13   7   5  123.46   12.83
 -12   7   5  143.78   13.14
 -11   7   5   41.07    8.35
 -10  -7  -5  199.58   26.33
 -11  -7  -5   92.27   20.00
 -12  -7  -5  179.44   25.43
 -13  -7  -5   42.77   15.85
 -14  -7  -5  157.59   23.64
 -23   8   5   37.63   11.77
 -22   8   5   29.18   10.90
 -21   8   5   50.64   12.04
 -20   8   5   32.71   10.61
 -19   8   5   40.89   10.71
 -18   8   5   16.59    8.74
 -17   8   5   44.91   10.06
 -16   8   5   20.82    8.32
 -15   8   5   49.40    9.54
 -14   8   5    0.39    6.46
 -10  -8  -5   16.16   15.07
 -11  -8  -5   92.68   21.63
 -12  -8  -5   25.66   17.04
 -13  -8  -5  106.49   22.25
 -20   9   5   21.17    9.98
 -19   9   5   13.62    9.23
 -18   9   5    9.81    8.38
 -10  -9  -5   16.61   15.64
 -29   0   6   10.90    6.87
 -28   0   6  121.42   12.17
 -27   0   6   17.62    7.50
 -26   0   6  135.37   13.45
 -25   0   6   -2.39    8.11
 -24   0   6  240.16   18.67
 -23   0   6   32.43   10.55
 -22   0   6  264.86   20.20
 -21   0   6   21.20    9.61
 -20   0   6  384.63   23.80
 -19   0   6   43.00   10.16
 -18   0   6  773.20   31.54
 -17   0   6    4.34    6.93
 -15   0   6   35.24   10.29
 -14   0   6 1814.02   53.48
 -13   0   6   16.63    9.01
 -12   0   6  943.41   36.97
 -11   0   6   28.97    8.46
 -10   0   6 1431.00   41.32
  -9   0   6    6.39    5.37
   5   0  -6   15.02    6.07
   4   0  -6 2361.77   43.69
   3   0  -6   86.54    9.80
   2   0  -6  918.48   29.48
   1   0  -6   18.76    7.55
   0   0  -6 1158.06   34.64
  -1   0  -6   13.68    8.61
  -2   0  -6 3236.41   61.28
  -3   0  -6   25.05    9.90
  -4   0  -6 3678.72   68.26
  -5   0  -6    8.97    8.69
  -6   0  -6  851.76   34.81
  -7   0  -6   34.18   11.35
  -8   0  -6 7911.17  108.33
  -9   0  -6   20.36   10.69
 -10   0  -6  276.88   21.98
 -11   0  -6    8.56    9.24
 -11   0  -6   19.20    9.45
 -12   0  -6  222.25   20.85
 -12   0  -6  254.90   18.75
 -13   0  -6   13.57    9.95
 -29   1   6  106.61   11.63
 -28   1   6   16.46    7.76
 -27  -1   6   71.49   10.28
 -27   1   6   64.31   10.38
 -26   1   6    8.16    7.16
 -26  -1   6   13.46    6.95
 -25  -1   6  170.03   14.85
 -25   1   6  139.24   14.62
 -24  -1   6   15.22    8.35
 -24   1   6   -0.69    8.54
 -23   1   6  154.53   17.09
 -23  -1   6  173.75   16.28
 -22   1   6   30.70   10.71
 -22  -1   6   34.41    9.90
 -21   1   6  220.48   19.35
 -21  -1   6  221.41   18.38
 -20  -1   6   20.73    8.66
 -20   1   6   26.80    9.70
 -19  -1   6  424.72   23.77
 -19   1   6  403.51   24.73
 -18   1   6   38.03   12.06
 -18  -1   6   29.05    8.69
 -18   1   6   21.74    8.58
 -17   1   6  590.35   36.78
 -17   1   6  583.56   27.95
 -16   1   6   20.40   11.03
 -15   1   6  941.30   45.02
 -14   1   6   27.83   10.87
 -13   1   6  765.68   37.97
 -12   1   6   16.79    8.69
 -11  -1   6  576.65   25.12
 -10  -1   6   56.87    8.54
  -9  -1   6  677.10   24.24
  -8  -1   6   55.73    7.44
  -7  -1   6  584.97   19.57
   7  -1  -6  612.54   20.57
  -6  -1   6   64.04    6.07
   6  -1  -6   87.30    8.63
   5  -1  -6  288.48   14.46
  -5  -1   6  212.92    9.12
   4  -1  -6   17.46    5.08
   3  -1  -6  808.21   25.09
   2  -1  -6   23.63    6.79
   1   1  -6 1044.51   32.98
   1  -1  -6  979.60   30.04
   0  -1  -6   27.35    7.86
   0   1  -6   22.57    8.05
  -1   1  -6  496.32   24.59
  -1  -1  -6  515.99   24.31
  -2   1  -6    4.80    9.41
  -2  -1  -6   21.41    9.11
  -3   1  -6 1744.82   47.69
  -3  -1  -6 1755.36   46.08
  -4  -1  -6   43.85   11.28
  -4   1  -6   23.71    8.95
  -5   1  -6 1082.38   39.04
  -5  -1  -6 1122.65   38.71
  -6  -1  -6   29.35   10.66
  -6   1  -6   19.29    9.78
  -7   1  -6 2392.39   57.97
  -7  -1  -6 2380.21   57.27
  -8  -1  -6    2.78    8.66
  -8   1  -6    9.29    9.11
  -9  -1  -6 1423.17   45.88
  -9   1  -6 1428.45   46.62
 -10   1  -6   12.62    9.05
 -10   1  -6   13.81    8.63
 -10  -1  -6   -2.83    8.74
 -11  -1  -6  296.35   22.96
 -11  -1  -6  265.36   16.92
 -12  -1  -6    0.64    8.42
 -12   1  -6    8.22    9.63
 -13  -1  -6   27.79   10.91
 -14  -1  -6    3.81    8.31
 -29   2   6   14.95    7.29
 -28   2   6   25.69    8.17
 -27   2   6    8.34    7.41
 -26   2   6   18.84    8.51
 -25  -2   6    6.50    6.77
 -25   2   6    1.98    8.63
 -24  -2   6   25.51    7.98
 -24   2   6   22.31    9.42
 -23  -2   6   28.07    9.08
 -23   2   6   23.42   10.84
 -22  -2   6   71.51   11.42
 -22   2   6   71.46   13.62
 -21   2   6   32.15   11.11
 -21  -2   6   27.01    9.07
 -20   2   6  132.31   22.44
 -20   2   6  170.74   17.94
 -20  -2   6  184.37   16.41
 -19   2   6   28.87   13.95
 -19  -2   6   17.83    7.63
 -19   2   6   19.94    9.76
 -18   2   6  159.81   23.86
 -18   2   6  146.29   16.14
 -18  -2   6  162.91   14.83
 -17   2   6   84.35   18.36
 -17   2   6   64.41   11.35
 -16   2   6  257.82   27.19
 -16   2   6  208.32   17.43
 -15   2   6   25.16   13.41
 -14   2   6   74.08   15.74
   8  -2  -6   17.75    5.03
   7  -2  -6   25.94    5.20
   6  -2  -6  722.56   21.03
   5  -2  -6   96.25    8.61
   4  -2  -6   12.50    5.05
   3  -2  -6   46.87    7.53
   2  -2  -6  368.12   18.53
   1  -2  -6   43.82    8.49
   0  -2  -6   90.70   11.43
  -1  -2  -6  130.90   13.97
  -2  -2  -6  117.71   13.88
  -3  -2  -6  150.04   15.90
  -4  -2  -6   13.62    9.36
  -5  -2  -6   90.92   13.42
  -6  -2  -6 1054.32   38.09
  -7  -2  -6  197.21   18.25
  -8  -2  -6   22.66    9.66
  -9  -2  -6   82.64   13.50
 -10   2  -6  561.63   26.56
 -10  -2  -6  527.75   29.65
 -11  -2  -6   53.05    8.01
 -11   2  -6   71.92   12.71
 -11  -2  -6   80.52   14.17
 -12  -2  -6   29.98   10.44
 -13  -2  -6   16.88    9.45
 -14  -2  -6   68.38   14.01
 -29   3   6    6.55    6.87
 -28   3   6    4.63    7.45
 -27   3   6    0.31    7.54
 -26   3   6    2.46    7.85
 -25   3   6   -8.60   10.25
 -24   3   6    7.75    9.56
 -23   3   6  -10.25   11.10
 -22   3   6   23.74   11.87
 -21   3   6   18.69   11.23
 -20   3   6    2.39   11.81
 -20   3   6   26.06   10.97
 -20  -3   6   28.72    8.17
 -19   3   6   33.35   16.17
 -19   3   6   20.44   10.08
 -19  -3   6   22.85    8.04
 -18   3   6   30.72   10.27
 -18   3   6   36.80   16.10
 -18  -3   6   47.73    9.39
 -17  -3   6    4.03    6.19
 -17   3   6    2.54   13.06
 -17   3   6    0.68    8.85
 -16   3   6   79.76   12.05
 -16   3   6   91.76   20.15
 -15   3   6   -2.25    7.86
 -15   3   6  -10.33   13.95
   8  -3  -6   65.87    6.79
   7  -3  -6   18.58    4.41
   6  -3  -6   51.02    6.70
   5  -3  -6  351.36   16.38
   4  -3  -6   68.37    8.77
   3  -3  -6   16.17    6.56
   2  -3  -6  105.85   11.71
   1  -3  -6   31.15    9.19
   0  -3  -6  235.22   18.01
  -1  -3  -6   28.53   10.26
  -2  -3  -6  312.31   21.90
  -3  -3  -6   92.62   14.41
  -4  -3  -6  339.12   23.63
  -5  -3  -6  162.54   18.09
  -6  -3  -6  362.39   24.55
  -7  -3  -6  187.40   18.66
  -8  -3  -6  375.43   25.36
  -9   3  -6   -3.62   10.23
  -9  -3  -6    8.87    9.17
 -10   3  -6  114.83   15.06
 -10  -3  -6  126.32   16.23
 -11  -3  -6   33.14   11.32
 -11   3  -6   10.99    9.95
 -12  -3  -6   96.19   15.08
 -13  -3  -6   98.66   15.92
 -14  -3  -6   61.32   13.72
 -29   4   6    0.70    6.52
 -28   4   6   17.21    8.86
 -27   4   6   15.20    8.85
 -26   4   6   26.29    9.79
 -25   4   6   -7.35    9.31
 -24   4   6   34.36   10.62
 -23   4   6  -11.62   11.86
 -22   4   6   12.28   10.46
 -21   4   6   41.45   13.90
 -20   4   6   37.21   12.51
 -19   4   6   35.35   17.20
 -19   4   6   51.51   12.91
 -18   4   6   18.04    9.54
 -18   4   6   11.65   15.06
 -17   4   6   67.60   19.53
 -17   4   6   53.58   11.53
 -16   4   6   43.85   17.61
 -16   4   6   58.13   11.14
 -15   4   6   87.66   11.99
 -14   4   6   77.99   11.46
   8  -4  -6   21.24    5.00
   7  -4  -6   63.08    7.89
   6  -4  -6   58.52    8.40
   5  -4  -6   41.06    7.94
   4  -4  -6  198.51   14.94
   3  -4  -6  233.48   17.22
   2  -4  -6   94.96   12.74
   1  -4  -6  145.43   15.52
   0  -4  -6   14.70    9.15
  -1  -4  -6  360.06   24.01
  -2  -4  -6    4.89   10.48
  -3  -4  -6  182.09   18.70
  -4  -4  -6   17.01   10.39
  -5  -4  -6  454.05   28.31
  -6  -4  -6  113.61   16.28
  -7  -4  -6  149.26   18.09
  -8   4  -6   57.56   12.15
  -8  -4  -6   66.50   14.06
  -9  -4  -6  257.50   23.25
  -9   4  -6  270.69   20.32
 -10   4  -6   39.38   11.66
 -10  -4  -6   47.22   12.80
 -11  -4  -6   44.81   12.00
 -12  -4  -6   -5.34   10.05
 -13  -4  -6   74.95   14.58
 -14  -4  -6    1.46    8.98
 -28   5   6    6.19    8.06
 -27   5   6   51.07   11.30
 -26   5   6   15.81    9.36
 -25   5   6   78.93   13.46
 -24   5   6   -9.11    9.78
 -23   5   6   39.17   11.28
 -22   5   6  -10.75   11.87
 -21   5   6   75.66   14.27
 -20   5   6   51.86   13.47
 -19   5   6  128.20   16.54
 -18   5   6   19.25   10.04
 -18   5   6   10.85   14.91
 -17   5   6  100.29   14.40
 -17   5   6   96.29   23.59
 -16   5   6   44.71   10.66
 -15   5   6   98.74   13.64
 -14   5   6   23.66    7.99
 -13   5   6  156.41   14.03
 -12   5   6   22.86    7.64
 -11   5   6  141.98   12.93
   7  -5  -6  172.04   13.45
   6  -5  -6   49.35    8.72
   5  -5  -6  122.20   13.10
   4  -5  -6   32.30    8.28
  -4  -5  -6  276.20   24.47
  -5  -5  -6  192.23   21.55
  -6  -5  -6   83.74   16.30
  -7  -5  -6  106.18   17.27
  -7   5  -6   93.27   13.48
  -8  -5  -6   45.29   13.67
  -8   5  -6   46.64   12.16
  -9   5  -6  112.21   15.51
  -9  -5  -6  116.29   18.80
 -10  -5  -6   27.10   12.47
 -11  -5  -6   47.60   13.33
 -12  -5  -6   23.17   12.42
 -13  -5  -6   18.00   11.16
 -14  -5  -6   16.33   11.08
 -15  -5  -6   16.45   10.49
 -27   6   6   -3.11    8.34
 -26   6   6   65.07   12.69
 -25   6   6    6.75    9.66
 -24   6   6   35.76   11.85
 -23   6   6   -1.40    9.17
 -22   6   6   52.13   12.11
 -21   6   6  -17.51   11.00
 -20   6   6   79.45   13.54
 -19   6   6    7.05    9.08
 -18   6   6  113.37   15.13
 -17   6   6  -19.85   17.57
 -17   6   6   11.75    9.19
 -16   6   6   87.65   13.15
 -15   6   6    3.75    7.49
 -14   6   6   82.85   12.04
 -13   6   6   -0.09    7.18
 -12   6   6  141.12   14.08
 -11   6   6   -5.52    6.37
 -10   6   6   46.18    7.91
  -9   6   6    4.99    4.82
   7  -6  -6   -1.09    6.09
  -5   6  -6    3.77    8.18
  -6  -6  -6   77.50   16.78
  -6   6  -6   47.71   10.25
  -7  -6  -6   18.51   13.27
  -7   6  -6   25.30   10.39
  -8  -6  -6   27.01   13.59
  -8   6  -6   20.82   10.24
  -9  -6  -6   -4.11   11.68
 -10  -6  -6  106.76   20.11
 -11  -6  -6    8.57   12.85
 -12  -6  -6   33.37   14.30
 -13  -6  -6  -13.64   13.30
 -14  -6  -6   66.13   16.59
 -26   7   6   24.91   10.83
 -25   7   6   14.79   10.22
 -24   7   6   15.07   10.06
 -23   7   6   32.34   11.19
 -22   7   6    5.56    9.00
 -21   7   6   21.94    9.97
 -20   7   6   -3.77    8.99
 -19   7   6   34.30   10.43
 -18   7   6  -15.90    9.69
 -17   7   6   41.87   10.78
 -16   7   6   45.15   10.55
 -15   7   6   43.11   10.30
 -14   7   6   19.34    8.16
 -13   7   6   34.78    8.75
 -12   7   6   16.62    7.15
 -11   7   6   35.37    8.16
  -7  -7  -6    9.31   12.85
  -8  -7  -6    5.20   12.85
  -9  -7  -6   21.25   14.71
 -10  -7  -6    7.49   13.51
 -11  -7  -6   25.29   15.05
 -12  -7  -6   34.61   16.26
 -13  -7  -6   73.88   18.84
 -24   8   6    0.19    8.57
 -23   8   6   14.12    9.88
 -22   8   6    0.53    8.49
 -21   8   6   42.25   10.99
 -20   8   6    1.13    8.03
 -19   8   6   19.93    8.95
 -18   8   6   -4.60    7.99
 -17   8   6   36.78    9.54
 -16   8   6   -2.31    7.30
 -15   8   6   36.03    8.99
 -14   8   6   -1.95    6.51
  -7  -8  -6   51.39   18.50
  -8  -8  -6   -2.96   14.09
  -9  -8  -6   43.76   18.24
 -10  -8  -6   26.84   16.51
 -11  -8  -6  114.31   23.87
 -21   9   6   18.36    9.29
 -20   9   6   55.08   11.52
 -19   9   6   -0.22    7.82
  -7  -9  -6   -0.20   16.01
  -8  -9  -6  114.82   25.13
 -29   0   7    1.38    5.60
 -28   0   7   -0.30    5.92
 -27   0   7  -10.57    7.50
 -26   0   7  -10.67    8.20
 -25   0   7  -20.14    9.35
 -24   0   7    9.01    8.64
 -23   0   7   -4.78    8.23
 -22   0   7   -1.18    8.50
 -21   0   7  -10.07   10.16
 -20   0   7   -8.72    9.48
 -19   0   7  -14.31   10.18
 -18   0   7  -20.08   10.46
 -14   0   7   -2.80    6.28
 -13   0   7    0.82    5.91
 -12   0   7    3.95    6.11
 -11   0   7    2.55    5.74
 -10   0   7   -1.86    6.04
  -9   0   7   -4.61    5.52
   4   0  -7    1.79    6.05
   3   0  -7   -2.28    6.40
   2   0  -7    2.24    6.51
   1   0  -7   -2.36    7.43
   0   0  -7   -5.00    8.60
  -1   0  -7   -2.56    9.48
  -2   0  -7   -9.58   10.66
  -3   0  -7   -1.37   10.16
  -4   0  -7   -9.96   11.02
  -5   0  -7   -9.43   11.30
  -6   0  -7   -8.68   11.86
  -7   0  -7  -16.82   11.88
  -8   0  -7   -0.98   10.43
  -9   0  -7   -5.87   10.16
  -9   0  -7   -1.28    8.18
 -10   0  -7    1.45    8.87
 -10   0  -7  -12.60    9.78
 -11   0  -7    5.59    8.64
 -11   0  -7   -8.92    9.82
 -12   0  -7   -8.56   10.85
 -12   0  -7    6.86    8.85
 -13   0  -7    3.75    8.82
 -29   1   7   19.74    6.82
 -28  -1   7    6.20    6.12
 -28   1   7    0.31    5.99
 -27  -1   7   60.11    9.30
 -27   1   7   58.97    9.65
 -26  -1   7   -7.76    7.29
 -26   1   7   -8.67    8.16
 -25  -1   7   49.24    9.48
 -25   1   7   44.54   10.24
 -24  -1   7   12.42    8.52
 -24   1   7   13.48   10.05
 -23   1   7  149.83   16.58
 -23  -1   7  139.04   15.19
 -22   1   7    1.78    9.28
 -22  -1   7    5.34    8.03
 -21   1   7  189.69   18.78
 -21  -1   7  198.62   18.03
 -20  -1   7  -12.07    9.40
 -20   1   7  -14.98   11.06
 -19   1   7   30.83    9.73
 -19  -1   7   30.17    9.10
 -18   1   7   -3.64    9.71
 -17   1   7  148.79   18.88
 -16   1   7   39.07   11.57
 -15   1   7  415.87   29.36
 -14   1   7   40.09   11.62
 -13   1   7  157.38   17.56
 -12   1   7   70.79   12.22
   7  -1  -7  913.05   27.17
   6  -1  -7    6.07    5.12
   5  -1  -7  111.69   10.81
   4  -1  -7  179.94   13.65
   3  -1  -7  426.72   20.20
   2  -1  -7   46.30    8.96
   1  -1  -7  188.02   15.64
   0  -1  -7  140.20   14.90
   0   1  -7  147.28   16.02
  -1   1  -7  583.07   29.11
  -1  -1  -7  585.43   27.84
  -2   1  -7  169.29   18.09
  -2  -1  -7  147.50   16.50
  -3   1  -7  233.90   20.89
  -3  -1  -7  259.31   21.04
  -4   1  -7  191.14   20.07
  -4  -1  -7  186.46   19.22
  -5  -1  -7  675.40   33.28
  -5   1  -7  645.93   33.33
  -6  -1  -7  209.68   20.51
  -6   1  -7  225.17   21.96
  -7  -1  -7  792.35   36.34
  -7   1  -7  789.93   36.77
  -8  -1  -7  140.50   17.90
  -8   1  -7  161.76   19.47
  -8   1  -7  132.81   13.90
  -9  -1  -7  368.27   26.19
  -9   1  -7  364.56   26.28
  -9   1  -7  342.21   20.55
  -9  -1  -7  338.83   19.94
 -10  -1  -7   97.48   15.89
 -10   1  -7  105.96   14.01
 -10  -1  -7   79.30   11.46
 -11  -1  -7   93.87   12.86
 -11  -1  -7   89.03   15.17
 -11   1  -7   77.46   13.24
 -12   1  -7   32.45   11.34
 -12  -1  -7   38.95   12.14
 -12  -1  -7   22.33    9.57
 -13  -1  -7  138.72   18.46
 -14  -1  -7   35.91   11.78
 -29   2   7    5.81    6.11
 -28   2   7  106.93   11.72
 -27   2   7   11.95    7.55
 -26   2   7  126.28   13.61
 -25  -2   7    3.29    6.84
 -25   2   7  -15.55   10.21
 -24  -2   7  331.17   20.34
 -24   2   7  320.62   22.33
 -23   2   7   35.89   12.90
 -23  -2   7   27.23    9.71
 -22   2   7  322.24   23.75
 -22  -2   7  381.26   22.89
 -21  -2   7   13.09    8.36
 -21   2   7   11.95   10.02
 -20  -2   7  352.18   22.30
 -20   2   7  319.14   24.38
 -19   2   7   27.35   13.10
 -19   2   7    8.17    9.41
 -19  -2   7   14.50    7.98
 -18   2   7  215.30   24.97
 -18   2   7  188.62   18.93
 -17   2   7   50.87   15.05
 -17   2   7   34.21   10.30
 -16   2   7  707.98   42.22
 -15   2   7  124.39   19.71
 -14   2   7  496.36   33.97
   8  -2  -7 1260.85   30.51
   7  -2  -7  109.29   10.13
   6  -2  -7  757.59   24.08
   5  -2  -7   90.79    9.83
   4  -2  -7  512.81   21.02
   3  -2  -7  181.88   14.09
   2  -2  -7  902.87   30.47
   1  -2  -7  271.99   18.78
   0  -2  -7  579.10   27.27
  -1  -2  -7  203.36   18.21
  -2  -2  -7 1309.75   43.03
  -3  -2  -7  466.05   27.72
  -4  -2  -7 1086.28   41.36
  -5  -2  -7  363.54   25.80
  -6  -2  -7 1792.81   53.64
  -7  -2  -7  494.11   30.31
  -8   2  -7 1181.51   36.63
  -8  -2  -7 1267.72   46.85
  -9  -2  -7  268.26   23.65
  -9   2  -7  245.88   19.37
 -10   2  -7  577.41   29.31
 -10  -2  -7  594.22   24.29
 -10  -2  -7  613.08   33.97
 -11  -2  -7  242.67   22.96
 -11  -2  -7  215.00   16.42
 -11   2  -7  254.12   21.49
 -12  -2  -7  344.60   27.08
 -12   2  -7  383.72   24.91
 -13  -2  -7  103.16   17.17
 -14  -2  -7  233.48   24.00
 -29   3   7  129.67   12.70
 -28   3   7   11.39    7.30
 -27   3   7  151.63   14.63
 -26   3   7   25.24    8.99
 -25   3   7  204.30   17.90
 -24   3   7  -23.58   11.79
 -23   3   7  369.45   25.60
 -22   3   7   51.54   13.74
 -21   3   7  278.39   23.60
 -21  -3   7  325.55   20.86
 -20   3   7   30.66   14.33
 -20   3   7   10.09   10.81
 -20  -3   7   16.60    8.06
 -19   3   7  435.88   38.71
 -19   3   7  456.37   29.03
 -19  -3   7  528.94   26.03
 -18  -3   7   64.55   11.18
 -18   3   7   54.57   17.35
 -18   3   7   50.34   12.25
 -17   3   7  417.80   37.92
 -17   3   7  385.84   25.35
 -16   3   7   54.18   16.47
 -16   3   7   54.90   12.00
 -15   3   7  428.32   36.17
   8  -3  -7  119.08   10.04
   7  -3  -7  585.45   20.88
   6  -3  -7  118.76   10.50
   5  -3  -7  842.28   26.41
   4  -3  -7   93.96   10.82
   3  -3  -7  916.56   30.97
   2  -3  -7  248.21   18.22
   1  -3  -7  801.58   32.08
   0  -3  -7  122.70   15.57
  -1  -3  -7 1017.02   39.10
  -2  -3  -7  387.04   26.45
  -3  -3  -7 1815.19   54.25
  -4  -3  -7  323.41   25.04
  -5  -3  -7 1717.68   53.90
  -6  -3  -7  510.15   31.08
  -7  -3  -7 1276.90   47.40
  -7   3  -7 1188.77   37.30
  -8  -3  -7  287.54   24.80
  -8   3  -7  268.90   20.29
  -9   3  -7  758.74   33.88
  -9  -3  -7  792.81   38.51
 -10  -3  -7  329.14   26.76
 -10   3  -7  296.95   23.34
 -11   3  -7  649.46   31.31
 -11  -3  -7  602.68   35.14
 -12  -3  -7  118.92   18.33
 -12   3  -7  123.15   17.64
 -13  -3  -7  441.42   31.79
 -14  -3  -7  154.20   20.97
 -29   4   7   16.32    7.72
 -28   4   7  107.27   12.87
 -27   4   7   16.07    8.55
 -26   4   7  146.47   15.42
 -25   4   7   25.85    9.91
 -24   4   7  113.52   14.88
 -23   4   7    5.39   10.16
 -22   4   7  254.46   22.72
 -21   4   7   40.60   13.08
 -20   4   7  284.77   23.98
 -19   4   7   56.49   20.09
 -19   4   7   38.13   12.62
 -18   4   7  429.73   41.53
 -18   4   7  495.95   29.39
 -17   4   7   83.30   21.82
 -17   4   7   75.86   14.26
 -16   4   7  156.74   25.79
 -16   4   7  197.49   18.44
 -15   4   7   13.88    8.81
   7  -4  -7   42.71    7.16
   6  -4  -7  474.94   21.12
   5  -4  -7   84.38   10.79
   4  -4  -7 1121.37   35.87
   3  -4  -7  169.79   16.23
   2  -4  -7  386.48   24.05
   1  -4  -7  101.66   14.91
   0  -4  -7  842.10   37.29
  -1  -4  -7  200.47   20.96
  -2  -4  -7  808.08   38.28
  -3  -4  -7   77.15   16.13
  -4  -4  -7 1303.76   49.69
  -5   4  -7  193.74   16.94
  -5  -4  -7  229.13   23.46
  -6  -4  -7  598.90   35.03
  -6   4  -7  501.99   25.68
  -7   4  -7  127.62   15.76
  -7  -4  -7  154.00   20.00
  -8   4  -7  389.09   24.72
  -8  -4  -7  401.20   30.01
  -9   4  -7  104.84   16.54
  -9  -4  -7  131.43   19.32
 -10  -4  -7  360.73   28.61
 -10   4  -7  360.39   25.70
 -11  -4  -7   42.30   13.32
 -11   4  -7   52.92   14.39
 -12  -4  -7  313.83   27.79
 -13  -4  -7   54.98   14.65
 -14  -4  -7  293.58   27.78
 -28   5   7   19.04    8.92
 -27   5   7   57.40   11.21
 -26   5   7   -1.51    8.26
 -25   5   7   39.02   10.93
 -24   5   7   12.66    9.38
 -23   5   7    7.14   10.19
 -22   5   7  -28.08   12.84
 -21   5   7  122.10   17.71
 -20   5   7   62.14   14.73
 -19   5   7  115.25   17.30
 -18   5   7    9.00   15.18
 -18   5   7   23.68   11.17
 -17   5   7  119.66   26.33
 -17   5   7  150.59   17.68
 -16   5   7   88.43   14.27
 -15   5   7   61.66   11.92
 -14   5   7    7.38    7.71
 -13   5   7   95.92   12.60
   7  -5  -7  158.24   13.82
   6  -5  -7   16.18    7.12
   5  -5  -7  366.97   22.24
   4  -5  -7   45.31   10.27
   3  -5  -7  155.98   16.77
   2  -5  -7   23.03   10.21
   1  -5  -7  173.92   19.41
   0  -5  -7   59.32   14.05
  -1  -5  -7  299.56   25.37
  -2  -5  -7   20.00   12.07
  -3  -5  -7  223.54   23.65
  -4   5  -7   27.29   10.25
  -4  -5  -7   24.16   12.32
  -5  -5  -7  222.83   24.51
  -5   5  -7  192.43   18.09
  -6  -5  -7   11.20   11.83
  -6   5  -7    5.03   10.56
  -7  -5  -7  119.81   19.65
  -7   5  -7   91.10   15.53
  -8  -5  -7   51.54   14.96
  -8   5  -7   40.76   12.63
  -9  -5  -7   40.52   13.76
  -9   5  -7   15.14   12.00
 -10  -5  -7  -17.52   13.77
 -10   5  -7  -13.05   14.24
 -11  -5  -7   81.73   17.05
 -12  -5  -7   23.55   13.15
 -13  -5  -7   57.58   15.75
 -14  -5  -7  -16.58   12.42
 -27   6   7   -2.95    8.81
 -26   6   7    4.52    8.58
 -25   6   7    0.50    9.00
 -24   6   7   -1.49    9.63
 -23   6   7  -14.74   10.79
 -22   6   7  -16.69   11.58
 -21   6   7  -17.17   12.03
 -20   6   7   11.62   10.06
 -19   6   7   26.92   11.85
 -18   6   7   13.75   10.44
 -17   6   7    2.47    8.93
 -16   6   7    6.61    8.99
 -15   6   7   45.72   11.04
 -14   6   7   -4.72    7.94
 -13   6   7   11.62    7.24
 -12   6   7   -9.01    7.89
 -11   6   7   -7.86    7.54
 -10   6   7  -11.90    7.46
   6  -6  -7   48.44   10.55
   5  -6  -7   -5.98    8.34
   4  -6  -7   13.71    9.17
   3  -6  -7  -11.79   10.21
   2  -6  -7   14.93   10.44
   1  -6  -7   -0.21   10.93
   0  -6  -7    8.83   10.87
  -1  -6  -7   -6.23   12.50
  -2  -6  -7    2.90   11.58
  -2   6  -7    2.20    8.07
  -3   6  -7   -4.56    9.18
  -3  -6  -7   -5.50   12.29
  -4  -6  -7    3.83   11.85
  -4   6  -7   11.73    9.70
  -5  -6  -7   -4.31   12.45
  -5   6  -7   -3.68   10.17
  -6   6  -7   -9.67   11.10
  -6  -6  -7    0.27   12.25
  -7  -6  -7    1.90   11.93
  -7   6  -7  -22.87   13.14
  -8  -6  -7   10.27   13.16
  -8   6  -7  -10.05   12.93
  -9   6  -7  -30.90   14.57
  -9  -6  -7   -9.86   13.64
 -10  -6  -7   -7.87   13.29
 -11  -6  -7  -25.53   15.95
 -12  -6  -7   -5.67   13.17
 -13  -6  -7  -11.08   13.14
 -14  -6  -7    9.55   12.33
 -26   7   7  -17.07    9.89
 -25   7   7    2.15    8.86
 -24   7   7    5.00    9.19
 -23   7   7    5.76    8.96
 -22   7   7   -3.30    9.45
 -21   7   7   -3.76    9.47
 -20   7   7  -11.27   10.22
 -19   7   7    8.08    8.93
 -18   7   7  -10.20    9.36
 -17   7   7   21.66   10.47
 -16   7   7   10.42    8.97
 -15   7   7    4.96    7.77
 -14   7   7   42.68   10.19
 -13   7   7   13.14    8.24
 -12   7   7   -1.58    6.52
   6  -7  -7   16.77   10.29
   5  -7  -7   35.52   11.34
   4  -7  -7   49.54   13.66
   3  -7  -7   -3.69   11.03
   2  -7  -7  -10.59   12.34
   1  -7  -7   -7.75   12.21
   0  -7  -7    5.50   12.09
  -1  -7  -7  -17.16   14.35
  -2  -7  -7   -4.18   13.12
  -3  -7  -7   15.97   13.25
  -4  -7  -7  -15.34   14.93
  -5  -7  -7   -6.52   15.18
  -5   7  -7  -11.86   10.59
  -6  -7  -7   -3.04   14.12
  -6   7  -7   -7.71   10.39
  -7   7  -7  -23.90   12.44
  -7  -7  -7    4.96   13.50
  -8  -7  -7   16.87   14.82
  -9  -7  -7    5.08   13.98
 -10  -7  -7   -7.41   14.43
 -11  -7  -7  -16.39   15.41
 -12  -7  -7  -22.56   14.92
 -24   8   7   14.46    9.76
 -23   8   7    6.03    8.67
 -22   8   7   29.10   10.31
 -21   8   7   15.93    9.36
 -20   8   7   16.40    9.15
 -19   8   7   -0.87    7.91
 -18   8   7   40.25   10.19
 -17   8   7   -6.23    8.07
 -16   8   7   17.12    8.07
 -15   8   7   12.50    8.09
   5  -8  -7   46.10   14.87
   4  -8  -7   22.80   13.03
   3  -8  -7   34.99   14.53
   2  -8  -7    1.32   12.10
   1  -8  -7    7.51   13.40
   0  -8  -7   36.75   15.82
  -1  -8  -7    8.70   14.05
  -2  -8  -7    3.13   15.13
  -3  -8  -7    1.89   15.18
  -4  -8  -7   20.90   16.70
  -5  -8  -7    6.59   16.54
  -6  -8  -7   -4.45   17.08
  -7  -8  -7   48.26   19.88
  -8  -8  -7    8.64   15.56
  -9  -8  -7    7.15   15.47
 -22   9   7   10.01    8.13
 -21   9   7   30.68    9.72
   4  -9  -7    9.04   12.46
   3  -9  -7   12.65   13.48
   2  -9  -7   18.50   14.69
   1  -9  -7   42.61   18.35
   0  -9  -7   24.30   17.23
  -1  -9  -7   36.99   17.29
  -2  -9  -7   -2.31   16.29
  -3  -9  -7   28.95   17.46
  -4  -9  -7   -3.74   17.02
  -5  -9  -7   -1.89   17.53
  -6  -9  -7   31.07   18.78
   3 -10  -7   -5.62   13.30
   2 -10  -7    1.26   14.01
   1 -10  -7   -4.73   15.88
 -29   0   8   31.56    7.10
 -28   0   8    2.99    5.69
 -27   0   8   -0.56    6.70
 -26   0   8   35.17    8.55
 -25   0   8   80.95   12.33
 -24   0   8   45.79   10.93
 -23   0   8   71.29   12.74
 -22   0   8   78.38   13.60
 -21   0   8  140.80   16.63
 -20   0   8  185.42   18.20
 -19   0   8  107.21   14.51
   4   0  -8  355.82   20.05
   3   0  -8  968.44   33.59
   2   0  -8  523.84   25.71
   1   0  -8  487.65   25.88
   0   0  -8  353.91   22.99
  -1   0  -8 1091.56   41.22
  -2   0  -8  378.46   25.94
  -3   0  -8  239.43   22.41
  -4   0  -8  176.50   19.94
  -5   0  -8  605.06   34.86
  -6   0  -8  247.64   23.48
  -7   0  -8  312.09   25.91
  -7   0  -8  228.36   16.08
  -8   0  -8  114.61   17.06
  -8   0  -8   93.36   12.23
  -9   0  -8  242.03   18.33
  -9   0  -8  267.02   24.59
 -10   0  -8  202.23   21.77
 -10   0  -8  213.10   17.53
 -11   0  -8  386.42   29.59
 -11   0  -8  390.34   23.28
 -12   0  -8  132.38   18.74
 -12   0  -8  142.49   16.49
 -29   1   8   10.76    5.82
 -28  -1   8   26.11    7.04
 -28   1   8   11.32    6.43
 -27  -1   8   10.70    6.45
 -27   1   8    2.89    6.31
 -26  -1   8   22.75    7.61
 -26   1   8   10.72    7.24
 -25  -1   8   25.42    8.45
 -25   1   8   27.11    9.23
 -24   1   8   73.76   13.04
 -24  -1   8   85.36   12.78
 -23   1   8   32.06   10.98
 -23  -1   8   26.87   10.08
 -22  -1   8   84.85   13.27
 -22   1   8   73.08   13.71
 -21   1   8   78.59   14.30
 -21  -1   8   70.75   12.82
 -20   1   8  140.90   17.14
 -20  -1   8  158.20   16.78
 -19   1   8   32.13   10.74
 -19  -1   8   37.36   10.84
 -11   1   8   53.74   10.00
   7  -1  -8  236.98   15.34
   6  -1  -8 1058.76   31.52
   5  -1  -8  284.68   17.10
   4  -1  -8  703.11   27.31
   3  -1  -8  372.40   20.82
   2  -1  -8  850.73   31.82
   1  -1  -8  338.76   21.37
   0  -1  -8 1044.23   38.35
  -1  -1  -8  219.29   19.40
  -1   1  -8  215.20   19.99
  -2  -1  -8  431.15   27.31
  -2   1  -8  430.09   27.46
  -3  -1  -8  180.56   19.33
  -3   1  -8  192.77   20.46
  -4  -1  -8  678.47   35.31
  -4   1  -8  659.67   35.35
  -5  -1  -8  114.03   16.85
  -5   1  -8  109.02   17.07
  -6  -1  -8  358.84   27.12
  -6   1  -8  354.42   27.42
  -7  -1  -8   67.59    9.79
  -7  -1  -8   87.85   15.52
  -7   1  -8   91.16   15.88
  -7   1  -8   81.50   10.72
  -8  -1  -8  349.54   27.63
  -8   1  -8  286.58   19.64
  -8  -1  -8  302.69   19.18
  -9  -1  -8   72.61   15.02
  -9  -1  -8   76.17   12.71
  -9   1  -8   63.99   11.96
 -10  -1  -8  305.45   26.77
 -10  -1  -8  286.21   19.57
 -10   1  -8  268.76   19.94
 -11  -1  -8  144.55   15.39
 -11   1  -8  135.91   16.10
 -11  -1  -8  118.12   17.57
 -12  -1  -8  521.57   34.24
 -12   1  -8  514.77   28.06
 -12  -1  -8  565.24   27.33
 -13  -1  -8   94.36   16.90
 -14  -1  -8  280.32   26.67
 -29   2   8   12.41    6.40
 -28   2   8    0.33    5.90
 -27   2   8   28.25    7.92
 -26   2   8  -15.41    9.13
 -25  -2   8   18.50    8.18
 -25   2   8   22.20    9.29
 -24   2   8   13.34   10.25
 -24  -2   8    8.50    7.87
 -23   2   8   51.87   12.94
 -23  -2   8   53.34   11.02
 -22   2   8   -6.42   10.56
 -22  -2   8   -4.01    8.37
 -21   2   8   80.27   15.04
 -21  -2   8   75.02   12.62
 -20   2   8  -13.29   12.40
 -20  -2   8   -3.49    9.06
 -19  -2   8  111.66   14.07
 -19   2   8   77.81   14.49
 -18   2   8  -14.89   11.84
 -15   2   8   57.67   13.43
 -14   2   8   -3.73    8.91
 -13   2   8   24.56    9.66
   8  -2  -8   29.00    6.37
   7  -2  -8  350.96   18.05
   6  -2  -8   23.80    6.73
   5  -2  -8  835.18   28.23
   4  -2  -8  108.70   11.57
   3  -2  -8  567.26   25.33
   2  -2  -8   45.49   10.01
   1  -2  -8  921.74   35.27
   0  -2  -8   74.45   12.96
  -1  -2  -8  341.31   24.25
  -2  -2  -8   -3.15   10.48
  -3  -2  -8  517.43   31.01
  -4  -2  -8   16.22   11.04
  -5  -2  -8  171.14   19.90
  -6  -2  -8   18.42   11.50
  -7   2  -8  107.08   13.33
  -7  -2  -8  113.77   11.96
  -8   2  -8   10.47    9.74
  -8  -2  -8   -3.57    8.90
  -8  -2  -8   13.74   11.35
  -9  -2  -8  228.45   23.10
  -9  -2  -8  201.33   16.55
  -9   2  -8  197.55   18.05
 -10  -2  -8    7.62   10.83
 -10   2  -8   -2.50   11.00
 -10  -2  -8    2.07    8.64
 -11   2  -8  286.55   21.65
 -11  -2  -8  279.45   26.01
 -11  -2  -8  275.61   19.16
 -12  -2  -8   26.59   11.82
 -12   2  -8   -2.30   12.32
 -13  -2  -8  189.25   23.06
 -14  -2  -8    3.05    9.99
 -29   3   8   -4.62    5.88
 -28   3   8   12.72    6.99
 -27   3   8   -6.03    7.17
 -26   3   8   16.65    7.93
 -25   3   8  -17.67   10.74
 -24   3   8   27.50   10.98
 -23   3   8   14.22   11.55
 -22   3   8   46.41   13.95
 -22  -3   8   53.51   10.95
 -21   3   8   47.36   14.06
 -21  -3   8   50.02   11.15
 -20  -3   8   14.20    8.08
 -20   3   8    5.20   11.23
 -19   3   8    5.87   10.85
 -19  -3   8   15.66    8.88
 -18   3   8  109.13   16.19
 -17   3   8  -14.07   12.49
 -17   3   8   10.29   11.85
 -16   3   8    7.49   11.17
 -15   3   8    8.77   10.06
   7  -3  -8   37.26    7.51
   6  -3  -8   41.67    7.60
   5  -3  -8    7.74    5.56
   4  -3  -8  437.38   22.22
   3  -3  -8   22.56    8.25
   2  -3  -8  248.82   19.16
   1  -3  -8    9.93    8.92
   0  -3  -8   27.46   10.21
  -1  -3  -8    5.86    9.75
  -2  -3  -8  135.71   17.62
  -3  -3  -8   90.68   16.00
  -4  -3  -8   -8.76   12.73
  -5  -3  -8   85.33   16.13
  -6   3  -8    2.83    8.16
  -6  -3  -8    7.36   10.48
  -7   3  -8   44.09   11.78
  -7  -3  -8   38.42   13.44
  -8  -3  -8   15.65   11.60
  -8   3  -8    3.58   10.23
  -9  -3  -8   18.30   11.43
  -9   3  -8    2.89   10.70
 -10  -3  -8  147.70   20.23
 -10   3  -8  109.21   16.12
 -11  -3  -8    3.09   10.74
 -11   3  -8   -1.90   12.88
 -12   3  -8  -23.31   15.57
 -12  -3  -8    3.70   10.16
 -13  -3  -8    6.96   10.16
 -14  -3  -8   44.70   13.97
 -29   4   8    3.96    6.03
 -28   4   8   17.12    7.62
 -27   4   8   10.52    7.74
 -26   4   8   19.01    8.69
 -25   4   8  -17.72   10.61
 -24   4   8    2.74   10.00
 -23   4   8   25.74   11.94
 -22   4   8  106.11   17.29
 -21   4   8    5.17   11.50
 -20   4   8   68.90   15.67
 -19   4   8    2.71   11.72
 -18   4   8   46.38   14.11
 -18   4   8   72.03   19.47
 -17   4   8  119.29   16.83
 -17   4   8   82.80   19.73
 -16   4   8   14.21   12.49
 -16   4   8    6.20   10.61
   7  -4  -8  -11.26    6.09
   6  -4  -8   90.38   10.67
   5  -4  -8   -8.14    7.07
   4  -4  -8  219.22   17.64
   3  -4  -8   86.12   12.77
   2  -4  -8   75.33   13.24
   1  -4  -8   -2.72   10.01
   0  -4  -8  149.81   18.66
  -1  -4  -8   -0.44   10.60
  -2  -4  -8  136.96   19.23
  -3  -4  -8    6.61   11.34
  -4  -4  -8  288.08   26.17
  -5   4  -8   28.63   10.75
  -5  -4  -8   11.55   11.53
  -6   4  -8   74.40   13.79
  -6  -4  -8  101.42   17.84
  -7  -4  -8   -9.14   11.67
  -7   4  -8   -6.19   11.34
  -8  -4  -8   79.11   16.68
  -8   4  -8   59.81   14.91
  -9  -4  -8    4.73   10.87
  -9   4  -8  -19.16   14.29
 -10  -4  -8   43.46   14.26
 -10   4  -8   30.88   13.71
 -11  -4  -8   -1.96   11.39
 -11   4  -8  -34.29   14.55
 -12  -4  -8   75.45   17.00
 -13  -4  -8   -5.50   11.10
 -14  -4  -8   39.19   14.12
 -28   5   8   -8.29    7.55
 -27   5   8   38.25    9.83
 -26   5   8  -10.61    8.65
 -25   5   8   16.37    9.44
 -24   5   8  -25.42   11.65
 -23   5   8   45.03   12.64
 -22   5   8   17.56   11.86
 -21   5   8   88.77   17.09
 -20   5   8   18.01   12.01
 -19   5   8   65.82   15.59
 -18   5   8   -2.38   11.29
 -17   5   8   40.73   12.87
 -17   5   8   55.55   20.39
 -16   5   8   99.38   15.94
 -16   5   8   89.01   21.09
 -15   5   8   55.58   12.78
 -14   5   8   -2.07    9.53
   7  -5  -8  149.90   14.00
   6  -5  -8   27.86    8.41
   5  -5  -8  210.15   18.30
   4  -5  -8   25.12    9.89
   3  -5  -8   96.19   14.75
   2  -5  -8    0.63    9.12
   1  -5  -8  157.43   19.99
   0  -5  -8    9.36   11.63
  -1  -5  -8  242.41   24.82
  -2  -5  -8   50.10   15.34
  -3  -5  -8  219.61   24.74
  -4   5  -8   59.58   13.72
  -4  -5  -8   30.24   14.22
  -5   5  -8  146.35   17.94
  -5  -5  -8  142.19   21.43
  -6  -5  -8    5.40   12.29
  -6   5  -8   -0.56   11.72
  -7  -5  -8   94.70   18.51
  -7   5  -8   90.10   16.66
  -8   5  -8  -18.23   14.46
  -8  -5  -8    6.28   11.76
  -9  -5  -8   43.87   14.88
  -9   5  -8   27.42   13.94
 -10  -5  -8   11.70   13.40
 -10   5  -8  -24.18   16.63
 -11  -5  -8   70.17   17.74
 -12  -5  -8   -9.04   12.79
 -13  -5  -8   49.55   15.67
 -27   6   8   -2.02    8.33
 -26   6   8   26.64    9.93
 -25   6   8    1.53    8.55
 -24   6   8   26.92   10.09
 -23   6   8   51.21   12.45
 -22   6   8    7.23   10.32
 -21   6   8    1.21   10.34
 -20   6   8   38.92   13.25
 -19   6   8   57.56   14.17
 -18   6   8   20.38   11.73
 -17   6   8    9.94   10.70
 -16   6   8    8.56    9.72
 -15   6   8   17.81   10.07
 -14   6   8   31.55   10.36
 -13   6   8   -9.26    9.18
 -12   6   8   12.03    7.74
 -11   6   8   15.49    7.39
   6  -6  -8   77.88   13.11
   5  -6  -8   69.04   13.32
   4  -6  -8   17.30   10.42
   3  -6  -8   61.02   14.51
   2  -6  -8   54.55   14.39
   1  -6  -8    4.61   11.59
   0  -6  -8   93.81   18.84
  -1  -6  -8   39.00   15.39
  -2  -6  -8   94.03   19.17
  -3  -6  -8   59.91   17.13
  -3   6  -8   92.94   15.17
  -4   6  -8   70.15   14.58
  -4  -6  -8   63.08   17.36
  -5  -6  -8   28.71   15.41
  -5   6  -8   34.90   13.47
  -6  -6  -8   -5.28   12.75
  -6   6  -8   13.35   12.57
  -7  -6  -8   -6.92   13.48
  -7   6  -8  -41.48   15.62
  -8  -6  -8   10.47   13.54
  -8   6  -8  -24.73   15.92
  -9  -6  -8   23.23   14.62
  -9   6  -8  -18.66   17.00
 -10  -6  -8   16.94   14.02
 -11  -6  -8    1.88   12.79
 -12  -6  -8   13.45   12.81
 -26   7   8   27.82    9.95
 -25   7   8    0.40    8.48
 -24   7   8   24.05   10.12
 -23   7   8   -3.11    9.12
 -22   7   8   69.36   12.74
 -21   7   8  -15.65   10.32
 -20   7   8   12.16    9.51
 -19   7   8  -15.61   10.13
 -18   7   8   59.78   12.98
 -17   7   8    5.99    9.34
 -16   7   8   58.08   12.25
 -15   7   8   -0.20    8.51
 -14   7   8    5.92    8.34
 -13   7   8    3.72    7.47
 -12   7   8   23.32    8.55
   5  -7  -8   20.71   11.02
   4  -7  -8   58.03   14.78
   3  -7  -8    0.41   10.93
   2  -7  -8   63.23   16.45
   1  -7  -8    7.17   12.25
   0  -7  -8   35.76   15.02
  -1  -7  -8   18.01   14.29
  -2  -7  -8   46.32   16.55
  -3  -7  -8    0.43   13.85
  -3   7  -8   -2.20   10.05
  -4  -7  -8   25.04   15.43
  -4   7  -8   21.45   11.49
  -5  -7  -8    0.29   14.40
  -5   7  -8  -40.14   14.17
  -6  -7  -8   79.12   20.24
  -6   7  -8   56.11   14.47
  -7  -7  -8    7.87   15.42
  -7   7  -8  -38.27   15.86
  -8  -7  -8    9.01   14.63
  -9  -7  -8  -18.71   17.51
 -10  -7  -8   26.08   16.49
 -24   8   8   -4.77    8.36
 -23   8   8   21.51    9.45
 -22   8   8    5.51    8.10
 -21   8   8   48.99   10.71
 -20   8   8    0.12    8.00
 -19   8   8   13.06    8.92
 -18   8   8    0.88    8.36
 -17   8   8   36.38    9.75
 -16   8   8   -9.77    8.65
   5  -8  -8   52.82   15.48
   4  -8  -8   28.97   14.22
   3  -8  -8   71.92   17.95
   2  -8  -8    8.99   13.25
   1  -8  -8   49.04   17.34
   0  -8  -8   12.47   14.24
  -1  -8  -8   23.58   15.51
  -2  -8  -8  -12.30   16.24
  -3  -8  -8   23.49   17.03
  -4  -8  -8    9.59   15.46
  -5  -8  -8   52.39   20.26
  -6  -8  -8   20.43   17.97
  -7  -8  -8   39.47   18.73
   4  -9  -8   54.58   17.74
   3  -9  -8   52.76   18.16
   2  -9  -8   70.72   19.75
   1  -9  -8   45.74   17.89
   0  -9  -8   35.38   18.00
  -1  -9  -8   50.29   20.54
  -2  -9  -8   17.14   17.64
  -3  -9  -8   44.94   20.54
 -28   0   9   -0.80    5.53
 -27   0   9   -7.19    6.55
 -26   0   9  -20.24    8.62
 -25   0   9    8.77    8.06
 -24   0   9   -3.44    8.26
 -23   0   9   -2.08    9.31
 -22   0   9  -11.05   10.73
 -21   0   9  -13.15   11.44
 -20   0   9  -10.68   11.22
   3   0  -9    5.52    7.90
   2   0  -9   -0.28    7.64
   1   0  -9    8.54    9.14
   0   0  -9   -2.92    9.61
  -1   0  -9    5.71   10.17
  -2   0  -9    6.22   11.09
  -3   0  -9   13.84   11.55
  -4   0  -9   -7.80   11.52
  -5   0  -9    4.02   11.43
  -6   0  -9    8.30   11.56
  -7   0  -9   -2.04   11.14
  -7   0  -9   17.18    8.57
  -8   0  -9   -7.36   10.97
  -8   0  -9    9.40    9.10
  -9   0  -9    1.90   10.24
  -9   0  -9  -13.50   10.59
 -10   0  -9    1.21   10.30
 -10   0  -9  -32.58   11.46
 -11   0  -9   10.24   11.18
 -12   0  -9  -43.24   15.93
 -29   1   9   -3.70    5.50
 -28  -1   9   16.16    6.11
 -28   1   9   10.74    6.09
 -27  -1   9   -7.87    6.17
 -27   1   9   -8.89    7.00
 -26  -1   9  -11.64    8.16
 -26   1   9   -6.64    8.08
 -25   1   9    1.41    7.96
 -25  -1   9   -0.63    7.21
 -24   1   9    8.96    9.48
 -24  -1   9   14.47    9.26
 -23   1   9  -16.53   10.55
 -23  -1   9   -5.66    9.35
 -22   1   9   20.50   10.52
 -22  -1   9   15.73    9.29
 -21  -1   9  -11.16   10.34
 -21   1   9  -12.34   13.00
 -20  -1   9   93.05   14.38
 -20   1   9   84.20   15.13
 -19   1   9   -3.26   11.85
   6  -1  -9  913.09   31.14
   5  -1  -9  114.90   12.67
   4  -1  -9   21.20    8.11
   3  -1  -9   16.03    8.09
   2  -1  -9    3.50    8.24
   1  -1  -9   55.29   12.31
   0  -1  -9  340.80   25.31
  -1  -1  -9    9.53   10.57
  -2  -1  -9   67.39   15.36
  -3  -1  -9   19.44   12.28
  -4  -1  -9  117.23   18.61
  -5  -1  -9    3.29   11.63
  -6  -1  -9   14.87   13.21
  -7  -1  -9   25.97    9.36
  -7   1  -9   25.27    9.63
  -7  -1  -9   18.95   12.81
  -8   1  -9   22.35   10.49
  -8  -1  -9   17.36    9.37
  -8  -1  -9   12.99   12.86
  -9   1  -9    0.91    9.96
  -9  -1  -9    0.79    9.42
  -9  -1  -9    9.38   12.19
 -10  -1  -9    6.34   10.86
 -10  -1  -9  -22.54   12.32
 -11   1  -9  -27.48   14.69
 -11  -1  -9    8.18   11.00
 -11  -1  -9  -20.51   12.61
 -12  -1  -9   36.38   13.45
 -12  -1  -9  -10.31   14.42
 -13  -1  -9   11.03   10.51
 -14  -1  -9    0.79    8.79
 -29   2   9   21.31    6.85
 -28   2   9   -3.20    5.80
 -27   2   9    8.74    6.63
 -26  -2   9    0.61    6.13
 -26   2   9  -20.25    8.99
 -25  -2   9   40.14    9.48
 -25   2   9   25.71    9.46
 -24   2   9    7.69    9.43
 -24  -2   9    2.01    7.64
 -23   2   9   20.96   11.47
 -23  -2   9   23.69    9.42
 -22   2   9  -18.36   12.61
 -22  -2   9   -8.75    9.64
 -21   2   9  117.26   17.04
 -21  -2   9  127.88   15.74
 -20  -2   9   -6.70    9.92
 -20   2   9  -13.74   12.89
 -19   2   9   48.24   13.73
   7  -2  -9  286.97   17.69
   6  -2  -9   15.68    7.00
   5  -2  -9  419.21   22.35
   4  -2  -9   36.52    8.99
   3  -2  -9   10.22    7.74
   2  -2  -9   24.54    9.57
   1  -2  -9  103.01   14.55
   0  -2  -9   15.70   10.42
  -1  -2  -9    6.57   10.21
  -2  -2  -9    7.96   10.80
  -3  -2  -9   -0.85   11.66
  -4  -2  -9   -2.68   12.73
  -5  -2  -9   47.36   14.49
  -6  -2  -9   -2.89   12.32
  -7  -2  -9    9.47    8.54
  -7  -2  -9   12.80   12.89
  -7   2  -9   20.11    9.99
  -8   2  -9   11.34   10.88
  -8  -2  -9    1.55   11.38
  -8  -2  -9    3.26    9.22
  -9  -2  -9    0.22   10.62
  -9  -2  -9  -15.82   10.70
  -9   2  -9  -11.27   11.57
 -10  -2  -9   -4.51   11.15
 -10  -2  -9  -10.61   11.04
 -10   2  -9  -11.96   13.51
 -11  -2  -9   24.91   10.06
 -11   2  -9    7.92   12.53
 -12   2  -9  -36.25   16.55
 -12  -2  -9   28.66   13.11
 -13  -2  -9   -3.32    9.87
 -14  -2  -9   17.17   12.41
 -28   3   9   18.80    7.24
 -27   3   9   -3.29    6.83
 -26   3   9    7.22    7.69
 -25   3   9  -27.66   10.98
 -24   3   9   30.21   11.28
 -23   3   9   -5.04   10.60
 -23  -3   9    1.22    7.77
 -22   3   9   33.35   12.86
 -22  -3   9   55.54   11.44
 -21   3   9    3.22   13.05
 -21  -3   9   11.95    8.53
 -20   3   9   -3.54   13.79
 -20  -3   9    0.94    8.80
 -19   3   9  -19.85   15.13
 -18   3   9  116.16   18.31
   7  -3  -9    3.41    5.46
   6  -3  -9   22.18    7.15
   5  -3  -9   -4.97    6.41
   4  -3  -9  175.73   16.10
   3  -3  -9   -1.57    7.55
   2  -3  -9   49.06   11.53
   1  -3  -9   -0.77    8.98
   0  -3  -9   10.96   10.28
  -1  -3  -9   -0.72   10.59
  -2  -3  -9   13.97   11.45
  -3  -3  -9    3.36   10.86
  -4  -3  -9   12.60   12.05
  -5  -3  -9    0.43   11.19
  -6   3  -9    9.09    9.99
  -6  -3  -9   -2.98   12.33
  -7   3  -9   13.13   11.29
  -7  -3  -9  -11.76   13.03
  -8  -3  -9   -8.73   12.26
  -8   3  -9  -11.68   11.89
  -9  -3  -9    4.77   11.95
  -9   3  -9    0.89   11.97
 -10   3  -9  -18.45   14.17
 -10  -3  -9    7.22   11.11
 -11  -3  -9   -1.83   11.49
 -11   3  -9  -34.60   15.92
 -12  -3  -9   -7.61   11.49
 -13  -3  -9   -6.81   12.51
 -14  -3  -9   -2.49   10.46
 -28   4   9    3.45    6.42
 -27   4   9   13.97    7.79
 -26   4   9    2.90    7.83
 -25   4   9  -12.46    9.91
 -24   4   9   -1.79   10.83
 -23   4   9   17.41   11.83
 -22   4   9   36.86   13.78
 -21   4   9   -5.19   12.92
 -20   4   9   48.61   14.71
 -19   4   9   -7.12   13.84
 -18   4   9    7.13   12.26
 -17   4   9   29.15   13.16
 -16   4   9   -9.95   13.23
 -15   4   9    8.29   10.77
   7  -4  -9   -1.83    5.63
   6  -4  -9   44.57    9.58
   5  -4  -9   -1.01    7.05
   4  -4  -9   50.24   10.93
   3  -4  -9  100.37   14.47
   2  -4  -9   41.26   11.56
   1  -4  -9   13.94   10.29
   0  -4  -9   27.41   12.48
  -1  -4  -9   -2.14   11.58
  -2  -4  -9   39.19   13.74
  -3  -4  -9   -2.60   12.15
  -4  -4  -9   46.93   15.07
  -5   4  -9   40.92   13.01
  -5  -4  -9    1.18   12.04
  -6   4  -9   38.36   13.24
  -6  -4  -9   32.71   14.72
  -7  -4  -9   -3.77   12.26
  -7   4  -9   18.70   13.08
  -8  -4  -9   18.78   13.73
  -8   4  -9   21.48   13.07
  -9  -4  -9   10.48   12.72
  -9   4  -9  -15.15   14.70
 -10  -4  -9    6.73   11.59
 -10   4  -9  -23.41   16.59
 -11  -4  -9  -12.45   12.71
 -12  -4  -9    6.75   12.20
 -13  -4  -9    4.12   10.96
 -27   5   9   24.70    8.76
 -26   5   9  -12.10    8.63
 -25   5   9   24.89    9.67
 -24   5   9  -19.67   11.05
 -23   5   9   55.33   13.93
 -22   5   9   -0.37   10.97
 -21   5   9   98.35   17.74
 -20   5   9   -8.04   12.95
 -19   5   9  102.70   18.21
 -18   5   9   -1.42   12.44
 -17   5   9   34.51   13.50
 -16   5   9   59.18   14.61
 -15   5   9   23.67   11.95
 -14   5   9  -25.07   13.70
   6  -5  -9   -1.87    7.91
   5  -5  -9  157.16   16.80
   4  -5  -9   -0.25    8.21
   3  -5  -9  179.88   19.86
   2  -5  -9   40.53   12.70
   1  -5  -9  103.46   17.90
   0  -5  -9    3.81   11.26
  -1  -5  -9  253.74   26.62
  -2  -5  -9    7.58   11.80
  -3  -5  -9  107.04   19.84
  -4   5  -9   89.72   15.91
  -4  -5  -9   38.97   15.33
  -5   5  -9  210.02   21.35
  -5  -5  -9  142.80   22.45
  -6  -5  -9   26.75   15.36
  -6   5  -9   55.80   16.75
  -7  -5  -9   31.03   15.47
  -7   5  -9   62.09   16.38
  -8  -5  -9   -1.05   12.99
  -8   5  -9  -44.82   15.87
  -9  -5  -9   78.78   19.61
  -9   5  -9   32.06   16.12
 -10  -5  -9    5.76   13.40
 -11  -5  -9   57.30   17.39
 -12  -5  -9  -16.92   13.66
 -26   6   9   65.91   11.89
 -25   6   9   -2.76    8.34
 -24   6   9   97.19   14.33
 -23   6   9  -12.86   10.41
 -22   6   9   96.65   15.30
 -21   6   9   18.51   11.70
 -20   6   9  131.79   18.42
 -19   6   9    6.78   11.96
 -18   6   9  110.25   17.30
 -17   6   9   11.86   11.07
 -16   6   9   64.96   15.02
 -15   6   9   -4.62   10.41
 -14   6   9   92.58   14.86
 -13   6   9    7.01    8.70
 -12   6   9  125.59   16.06
   5  -6  -9    8.70    8.57
   4  -6  -9  206.48   21.73
   3  -6  -9    1.99   10.36
   2  -6  -9  187.02   22.76
   1  -6  -9    6.51   11.58
   0  -6  -9  323.05   30.31
  -1  -6  -9   10.86   13.31
  -2  -6  -9  235.04   28.10
  -3   6  -9   37.64   14.16
  -3  -6  -9   -7.42   13.94
  -4  -6  -9  181.34   25.73
  -4   6  -9  248.63   22.90
  -5  -6  -9   19.27   15.57
  -5   6  -9   38.02   15.23
  -6   6  -9  144.54   20.60
  -6  -6  -9  102.50   21.96
  -7  -6  -9    1.86   13.45
  -8  -6  -9  103.30   21.74
  -8   6  -9   63.85   17.79
  -9  -6  -9   12.41   13.99
 -10  -6  -9   52.57   17.50
 -25   7   9   74.69   12.30
 -24   7   9    8.25    8.39
 -23   7   9   70.74   12.08
 -22   7   9  -14.11    9.63
 -21   7   9   39.76   11.42
 -20   7   9   -1.37   10.17
 -19   7   9   55.40   12.73
 -18   7   9    5.75    9.90
 -17   7   9   99.63   15.75
 -16   7   9   28.75   11.23
 -15   7   9   54.47   12.31
 -14   7   9   -5.40    9.17
 -13   7   9  129.89   15.52
 -12   7   9   21.76    9.23
   5  -7  -9  118.53   18.69
   4  -7  -9    1.54   10.82
   3  -7  -9  119.50   19.57
   2  -7  -9   17.39   13.55
   1  -7  -9  241.05   28.13
   0  -7  -9  -12.59   15.29
  -1  -7  -9  222.16   28.28
  -1   7  -9  283.14   20.64
  -2   7  -9   29.11   13.37
  -2  -7  -9    6.92   13.95
  -3  -7  -9  195.83   27.57
  -3   7  -9  217.47   21.34
  -4  -7  -9   -0.46   14.74
  -4   7  -9   -2.80   13.63
  -5   7  -9  143.63   19.60
  -5  -7  -9  114.32   23.91
  -6   7  -9   23.62   14.29
  -6  -7  -9   37.55   17.48
  -7   7  -9  105.51   18.69
  -7  -7  -9  129.26   25.10
  -8  -7  -9   -1.15   13.93
 -23   8   9   13.94    7.89
 -22   8   9   31.60    9.64
 -21   8   9   -0.70    7.35
 -20   8   9    6.60    7.83
 -19   8   9   -2.52    8.25
 -18   8   9   20.72    8.67
 -17   8   9  -13.77    9.05
   4  -8  -9   40.16   15.02
   3  -8  -9   -1.83   12.08
   2  -8  -9   92.33   20.51
   1  -8  -9    1.34   13.48
   0  -8  -9   95.34   21.95
  -1  -8  -9   -8.85   15.76
  -2  -8  -9   84.22   22.65
  -3  -8  -9   -8.58   16.33
  -4  -8  -9   70.69   22.09
 -28   0  10    3.61    5.41
 -27   0  10   84.72   10.24
 -26   0  10   -9.34    7.90
 -25   0  10  147.75   14.93
 -24   0  10   11.73    9.38
 -23   0  10  354.48   24.28
 -22   0  10   50.68   12.79
 -21   0  10  300.93   23.63
 -20   0  10   81.20   15.83
   1   0 -10  912.10   38.98
   0   0 -10  248.58   23.59
  -1   0 -10  876.57   41.75
  -2   0 -10  108.43   18.74
  -3   0 -10  484.24   33.92
  -4   0 -10  198.50   24.33
  -5   0 -10  927.90   46.81
  -6   0 -10   63.57   17.02
  -7   0 -10  233.35   25.76
  -7   0 -10  272.84   18.57
  -8   0 -10   95.82   18.89
  -8   0 -10  112.31   15.15
  -9   0 -10  436.87   33.91
  -9   0 -10  441.68   25.33
 -10   0 -10   47.36   13.54
 -11   0 -10  191.17   18.78
 -12   0 -10  -13.25   14.16
 -28   1  10   54.86    8.51
 -27  -1  10   -5.33    5.87
 -27   1  10   -5.31    6.49
 -26  -1  10   67.59   10.17
 -26   1  10   55.17    9.88
 -25   1  10    4.03    7.99
 -25  -1  10    3.79    7.57
 -24   1  10  165.36   17.25
 -24  -1  10  200.40   17.43
 -23   1  10    3.10    9.26
 -23  -1  10   20.24   10.00
 -22   1  10  231.93   21.65
 -22  -1  10  240.17   20.78
 -21   1  10   20.10   11.37
 -21  -1  10   22.31   10.83
 -20   1  10  341.93   27.14
 -20  -1  10  374.22   26.18
   5  -1 -10  179.04   16.53
   4  -1 -10  880.24   34.47
   3  -1 -10  180.90   17.87
   2  -1 -10  623.71   31.74
   1  -1 -10  109.59   16.30
   0  -1 -10  455.73   29.87
  -1  -1 -10   82.72   16.55
  -2  -1 -10  583.20   36.30
  -3  -1 -10  137.49   21.05
  -4  -1 -10  514.09   35.90
  -5  -1 -10   44.56   15.92
  -6  -1 -10  332.01   30.15
  -7  -1 -10   86.07   13.79
  -7   1 -10  105.55   15.13
  -8  -1 -10  355.25   30.88
  -8  -1 -10  344.61   22.33
  -8   1 -10  360.04   22.62
  -9  -1 -10   42.78   15.50
  -9  -1 -10   45.87   13.32
  -9   1 -10   51.63   13.72
 -10  -1 -10  252.44   26.70
 -10  -1 -10  229.94   19.94
 -10   1 -10  234.13   20.47
 -11  -1 -10   -1.61   12.11
 -11   1 -10  -10.44   12.95
 -12  -1 -10  108.72   16.29
 -12   1 -10  119.58   16.32
 -28   2  10   -2.25    5.60
 -27   2  10   15.74    7.29
 -26  -2  10   -6.47    6.81
 -26   2  10  -13.24    8.58
 -25  -2  10   42.40    9.67
 -25   2  10   32.93   10.03
 -24   2  10    3.44    9.12
 -24  -2  10    8.35    8.23
 -23   2  10   37.01   12.63
 -23  -2  10   45.86   11.05
 -22   2  10    1.04   10.99
 -22  -2  10   -5.36    9.92
 -21   2  10  132.45   18.62
 -21  -2  10  157.44   17.73
 -20   2  10  -11.74   14.10
 -20  -2  10  -12.56   10.95
 -19   2  10    3.08   13.47
   7  -2 -10  149.13   14.20
   6  -2 -10   21.50    7.72
   5  -2 -10  150.82   14.81
   4  -2 -10    0.49    7.05
   3  -2 -10  191.78   18.33
   2  -2 -10   22.02   10.48
   1  -2 -10  176.89   19.54
   0  -2 -10    6.77   10.38
  -1  -2 -10  126.68   18.91
  -2  -2 -10    8.36   11.70
  -3  -2 -10  446.02   33.10
  -4  -2 -10   -3.74   12.65
  -5  -2 -10   43.31   15.56
  -6  -2 -10   45.84   11.02
  -6  -2 -10   26.17   14.42
  -6   2 -10   56.08   12.47
  -7   2 -10  377.66   23.42
  -7  -2 -10  383.68   33.00
  -7  -2 -10  364.79   21.56
  -8  -2 -10    2.94   12.25
  -8  -2 -10    6.94   10.64
  -8   2 -10   34.07   13.05
  -9  -2 -10   95.75   19.34
  -9   2 -10  125.08   16.68
  -9  -2 -10   98.64   14.93
 -10  -2 -10    5.70   12.71
 -10  -2 -10  -31.77   14.24
 -10   2 -10  -28.10   12.98
 -11  -2 -10   27.11   12.10
 -11   2 -10   26.60   14.11
 -12  -2 -10   13.43   11.40
 -28   3  10    0.85    5.74
 -27   3  10   -5.32    6.51
 -26   3  10    0.17    7.73
 -25   3  10  -19.08   10.86
 -24   3  10   -5.14    9.97
 -23   3  10  -10.40   11.78
 -23  -3  10   -2.67    8.26
 -22   3  10   -2.84   12.36
 -22  -3  10    8.30    8.67
 -21   3  10   -6.11   13.58
 -21  -3  10   -8.19   10.00
 -20   3  10   -9.89   14.91
 -20  -3  10   -0.60    9.26
 -19   3  10   -5.00   14.71
 -18   3  10  -10.03   15.83
   6  -3 -10    7.06    6.60
   5  -3 -10   21.06    8.38
   4  -3 -10    0.90    7.41
   3  -3 -10   46.97   11.50
   2  -3 -10   -1.60    9.37
   1  -3 -10   49.29   13.43
   0  -3 -10   34.74   13.47
  -1  -3 -10   22.53   12.71
  -2  -3 -10    3.09   12.04
  -3  -3 -10   62.21   16.49
  -4  -3 -10   15.04   13.03
  -5  -3 -10    8.20   13.22
  -6   3 -10   94.02   15.10
  -6  -3 -10   56.42   17.12
  -7   3 -10   74.62   16.13
  -7  -3 -10   27.30   14.71
  -8  -3 -10   21.19   13.70
  -8   3 -10   39.53   14.53
  -9  -3 -10   18.30   13.63
  -9   3 -10   15.94   13.27
 -10  -3 -10   15.40   13.36
 -10   3 -10  -14.19   16.23
 -11  -3 -10   24.86   14.01
 -11   3 -10  -29.94   17.31
 -12  -3 -10   -4.21   12.32
 -27   4  10   -5.38    6.71
 -26   4  10   -7.66    7.80
 -25   4  10   -0.06    8.62
 -24   4  10  -25.26   11.99
 -23   4  10   12.26   11.05
 -22   4  10   15.06   12.64
 -21   4  10   37.47   15.31
 -20   4  10    3.21   13.96
 -19   4  10   39.01   15.54
 -18   4  10    3.84   13.53
 -17   4  10   71.01   17.25
   6  -4 -10   72.29   11.89
   5  -4 -10   84.58   13.12
   4  -4 -10   36.67   11.10
   3  -4 -10   83.95   14.61
   2  -4 -10  107.46   16.91
   1  -4 -10   41.87   13.58
   0  -4 -10   21.87   12.88
  -1  -4 -10   -1.97   12.48
  -2  -4 -10  157.45   23.02
  -3  -4 -10  103.20   20.05
  -4  -4 -10   52.35   16.56
  -5  -4 -10   15.65   13.80
  -5   4 -10   64.33   15.83
  -6  -4 -10   68.16   17.93
  -6   4 -10  150.60   19.29
  -7  -4 -10   -4.86   14.10
  -7   4 -10   35.16   14.69
  -8  -4 -10   58.12   17.71
  -8   4 -10   70.59   17.52
  -9  -4 -10   12.76   12.95
  -9   4 -10   -9.82   16.94
 -10   4 -10   90.94   17.72
 -10  -4 -10  100.31   20.80
 -11  -4 -10   -5.84   13.73
 -27   5  10   12.12    7.74
 -26   5  10   26.41    8.78
 -25   5  10    7.79    8.43
 -24   5  10   33.16   11.20
 -23   5  10    5.16   10.54
 -22   5  10  121.35   18.17
 -21   5  10   26.21   14.15
 -20   5  10  110.43   19.42
 -19   5  10    7.96   12.91
 -18   5  10   59.29   16.28
 -17   5  10   -4.17   14.06
 -16   5  10  235.18   24.45
 -15   5  10   32.20   14.20
   5  -5 -10   55.76   12.52
   4  -5 -10  153.61   18.84
   3  -5 -10   63.83   14.80
   2  -5 -10  165.76   20.86
   1  -5 -10   31.24   13.14
   0  -5 -10  186.38   23.88
  -1  -5 -10   55.53   17.09
  -2  -5 -10  141.95   22.82
  -3  -5 -10  119.35   21.87
  -4  -5 -10   57.02   17.64
  -4   5 -10  137.12   19.16
  -5  -5 -10   64.69   19.15
  -5   5 -10  117.03   18.98
  -6  -5 -10   73.93   19.41
  -6   5 -10   77.74   18.24
  -7  -5 -10  126.89   23.84
  -7   5 -10  105.16   20.74
  -8  -5 -10   93.78   21.22
  -8   5 -10   68.12   18.76
  -9  -5 -10  124.18   23.27
  -9   5 -10  102.93   20.16
 -10   5 -10  -16.62   19.99
 -26   6  10   15.61    8.21
 -25   6  10   71.78   11.90
 -24   6  10   26.87   10.12
 -23   6  10   65.57   13.11
 -22   6  10  -15.62   11.57
 -21   6  10  102.86   16.64
 -20   6  10   27.71   13.13
 -19   6  10   84.29   16.54
 -18   6  10   -6.05   11.86
 -17   6  10   75.31   16.08
 -16   6  10    6.29   11.33
 -15   6  10  249.18   23.05
 -14   6  10   40.74   13.06
 -13   6  10   52.07   13.34
 -12   6  10   67.15   13.73
   5  -6 -10   54.31   12.97
   4  -6 -10   29.76   12.02
   3  -6 -10  151.47   20.94
   2  -6 -10    8.99   11.39
   1  -6 -10  176.66   24.09
   0  -6 -10   53.56   16.82
  -1  -6 -10  186.45   25.56
  -2  -6 -10   36.21   15.37
  -2   6 -10  120.34   18.24
  -3  -6 -10   39.99   16.44
  -3   6 -10  121.73   19.73
  -4  -6 -10   64.91   18.62
  -4   6 -10  139.81   20.74
  -5  -6 -10   47.01   17.45
  -5   6 -10  115.75   20.21
  -6  -6 -10   18.88   15.19
  -6   6 -10   26.07   16.84
  -7  -6 -10   31.02   16.51
  -7   6 -10   53.21   17.91
  -8   6 -10   63.14   19.09
  -9   6 -10   13.87   16.52
 -24   7  10   40.08    9.84
 -23   7  10   11.08    8.34
 -22   7  10   40.39   10.75
 -21   7  10  -10.95    9.61
 -20   7  10    7.32    9.18
 -19   7  10   -7.84    9.50
 -18   7  10   53.38   13.00
 -17   7  10    2.25    9.62
 -16   7  10   20.23   10.79
 -15   7  10   -5.71    9.49
 -14   7  10  113.88   15.35
 -13   7  10   13.89    9.73
   4  -7 -10   54.21   14.98
   3  -7 -10   -9.33   12.22
   2  -7 -10   72.43   18.11
   1  -7 -10    4.24   12.34
   0   7 -10  155.40   17.18
   0  -7 -10   65.15   18.44
  -1   7 -10   79.70   15.68
  -1  -7 -10   21.43   15.70
  -2  -7 -10   13.57   14.86
  -2   7 -10   76.99   16.69
  -3  -7 -10   12.04   16.06
  -3   7 -10   21.09   13.84
  -4  -7 -10   31.06   16.58
  -4   7 -10   46.50   16.42
  -5   7 -10   10.71   15.05
  -6   7 -10   19.25   15.17
  -7   7 -10  -18.65   15.90
  -8   7 -10   16.54   16.19
 -22   8  10   -0.22    6.47
 -21   8  10    3.04    6.82
 -20   8  10  -15.36    7.91
 -19   8  10   -0.33    7.01
   3  -8 -10   35.93   14.55
   2  -8 -10   -4.02   12.07
   1  -8 -10   19.87   14.42
  -5   8 -10   -9.64   13.62
 -27   0  11    3.46    5.74
 -26   0  11  -13.67    8.23
 -25   0  11  -15.00    9.60
 -24   0  11  -15.59   10.23
 -23   0  11  -13.76   10.70
 -22   0  11   -4.36   10.49
 -21   0  11  -13.56   12.09
 -20   0  11  -14.36   12.77
  -2   0 -11    7.23   11.58
  -3   0 -11   19.78   13.79
  -4   0 -11    0.79   12.03
  -5   0 -11  -10.03   12.97
  -7   0 -11   31.80   13.10
  -8   0 -11   23.77   12.46
  -9   0 -11   -1.47   11.18
 -10   0 -11  -24.02   14.38
 -27  -1  11    8.21    5.82
 -27   1  11    3.12    5.80
 -26  -1  11   -9.45    7.28
 -26   1  11   -4.35    7.58
 -25   1  11  -10.76    9.20
 -25  -1  11    0.39    7.44
 -24   1  11    3.42    9.11
 -24  -1  11    9.03    8.49
 -23   1  11    2.15   10.29
 -23  -1  11   -3.44    9.42
 -22  -1  11   16.06   10.12
 -22   1  11    6.94   10.93
 -21   1  11  -16.57   12.16
 -21  -1  11   -3.29   10.72
 -20  -1  11    4.46   10.32
 -20   1  11   -0.62   12.24
   4  -1 -11   53.20   11.19
   3  -1 -11  152.51   17.52
   2  -1 -11  139.23   17.51
   1  -1 -11   63.41   14.11
   0  -1 -11   24.90   12.15
  -1  -1 -11  223.54   24.56
  -2  -1 -11  128.17   20.16
  -3  -1 -11   27.02   14.85
  -4  -1 -11   33.80   16.14
  -5  -1 -11  166.29   24.03
  -6   1 -11  116.48   15.36
  -6  -1 -11   93.26   14.64
  -7  -1 -11   45.62   16.77
  -7   1 -11   89.29   15.25
  -7  -1 -11   77.94   14.06
  -8  -1 -11   48.04   16.58
  -8  -1 -11   67.21   13.98
  -8   1 -11   80.54   15.17
  -9  -1 -11  103.27   19.80
  -9  -1 -11  112.68   16.69
  -9   1 -11  105.08   16.57
 -10  -1 -11   53.20   16.06
 -10   1 -11   26.38   12.98
 -10  -1 -11   21.39   12.43
 -11  -1 -11    6.43   12.33
 -11   1 -11   -2.98   13.70
 -12  -1 -11  -23.57   14.67
 -12   1 -11  -20.14   16.03
 -27   2  11   21.16    7.13
 -26  -2  11    3.13    5.73
 -26   2  11    0.38    7.09
 -25   2  11    2.77    9.01
 -25  -2  11   31.86    8.71
 -24   2  11   14.79    9.73
 -24  -2  11   27.87    9.18
 -23   2  11   42.57   12.80
 -23  -2  11   43.22   10.83
 -22   2  11   -1.73   12.13
 -22  -2  11   14.17   10.05
 -21   2  11   37.14   14.41
 -21  -2  11   37.51   11.58
 -20  -2  11   23.18   11.26
 -20   2  11   25.20   13.45
 -19   2  11   71.91   17.76
   6  -2 -11  179.74   16.71
   5  -2 -11  127.36   15.26
   4  -2 -11  211.44   19.55
   3  -2 -11  200.35   19.65
   2  -2 -11  354.22   26.92
   1  -2 -11  202.73   22.27
   0  -2 -11  432.59   32.31
  -1  -2 -11  180.98   23.17
  -2  -2 -11  182.65   24.17
  -3  -2 -11  295.35   30.81
  -4  -2 -11  340.79   32.93
  -5  -2 -11  145.98   23.67
  -6  -2 -11  325.53   21.22
  -6   2 -11  369.99   23.26
  -7  -2 -11  242.53   28.30
  -7  -2 -11  278.27   21.65
  -7   2 -11  290.08   23.03
  -8  -2 -11  355.25   33.56
  -8   2 -11  416.41   26.33
  -8  -2 -11  405.33   25.39
  -9  -2 -11  134.11   22.22
  -9  -2 -11  159.67   18.08
  -9   2 -11  162.55   19.85
 -10  -2 -11  175.89   24.61
 -10  -2 -11  181.04   19.10
 -10   2 -11  171.98   19.46
 -11  -2 -11   77.39   14.92
 -11   2 -11   51.99   15.06
 -12   2 -11  163.05   19.97
 -27   3  11   27.04    7.68
 -26   3  11   26.32    8.78
 -25   3  11    7.24    8.57
 -24   3  11   11.05    9.83
 -23   3  11   13.25   10.68
 -23  -3  11   27.55    9.22
 -22   3  11   34.70   13.44
 -22  -3  11   40.33   11.11
 -21   3  11   57.99   16.49
 -21  -3  11   66.44   13.67
 -20  -3  11   86.98   15.40
 -20   3  11   61.65   16.61
 -19   3  11   13.42   14.08
 -18   3  11   59.68   19.07
   6  -3 -11  119.53   14.79
   5  -3 -11  306.69   22.78
   4  -3 -11  145.05   17.38
   3  -3 -11  329.95   26.32
   2  -3 -11  152.10   19.63
   1  -3 -11  530.36   35.16
   0  -3 -11  318.37   29.10
  -1  -3 -11  235.70   26.66
  -2  -3 -11  178.21   24.57
  -3  -3 -11  328.80   32.40
  -4  -3 -11  378.23   34.76
  -5   3 -11  449.89   25.99
  -5  -3 -11  401.91   36.15
  -5  -3 -11  415.46   22.58
  -6  -3 -11  262.87   19.93
  -6   3 -11  305.15   23.69
  -7  -3 -11  627.21   44.42
  -7   3 -11  678.42   34.43
  -8  -3 -11  219.27   28.56
  -8   3 -11  239.56   23.64
  -9  -3 -11  372.88   35.26
  -9   3 -11  424.60   28.10
 -10   3 -11  104.06   18.33
 -11   3 -11  362.58   26.90
 -26   4  11   39.00    9.42
 -25   4  11   18.51    9.16
 -24   4  11    7.68    9.71
 -23   4  11   -8.25   11.98
 -22   4  11   62.06   15.40
 -21   4  11    2.69   13.19
 -20   4  11   58.73   17.15
 -20  -4  11   64.72   13.31
 -19   4  11   11.64   14.03
 -18   4  11   30.59   16.12
 -17   4  11   34.22   16.33
   5  -4 -11   57.90   12.45
   4  -4 -11  219.38   21.67
   3  -4 -11   47.88   13.39
   2  -4 -11  227.51   24.21
   1  -4 -11   77.54   16.87
   0  -4 -11  200.49   24.68
  -1  -4 -11  118.41   21.08
  -2  -4 -11  206.33   26.82
  -3  -4 -11   69.05   19.10
  -4  -4 -11  135.66   23.99
  -5  -4 -11  192.92   27.25
  -5   4 -11  311.69   24.56
  -6  -4 -11  421.35   37.99
  -6   4 -11  473.10   30.37
  -7  -4 -11   98.68   21.40
  -7   4 -11   99.20   18.88
  -8  -4 -11  287.23   32.09
  -8   4 -11  301.83   26.89
  -9   4 -11   51.42   17.37
 -10   4 -11  299.15   26.49
 -11   4 -11   17.72   17.05
 -26   5  11   -2.41    6.96
 -25   5  11   28.74    9.39
 -24   5  11    2.28    8.80
 -23   5  11   32.51   11.70
 -22   5  11   -7.95   11.75
 -21   5  11   30.92   13.75
 -20   5  11  -14.41   13.67
 -19   5  11   76.20   18.15
 -18   5  11  -12.85   15.07
 -17   5  11   13.56   14.18
 -16   5  11   -8.69   14.31
 -15   5  11  294.17   27.59
   5  -5 -11   69.05   14.33
   4  -5 -11   -8.04   10.66
   3  -5 -11  117.60   18.65
   2  -5 -11  -11.37   11.88
   1  -5 -11   20.40   11.84
   0  -5 -11   -3.47   12.26
  -1  -5 -11   98.77   20.44
  -2  -5 -11   19.35   15.06
  -3  -5 -11   81.27   19.94
  -3   5 -11  130.27   19.15
  -4   5 -11   53.90   16.62
  -4  -5 -11   -5.29   15.23
  -5   5 -11   75.12   18.81
  -5  -5 -11   59.88   19.37
  -6  -5 -11   39.08   17.25
  -6   5 -11   31.44   16.79
  -7   5 -11  101.85   20.95
  -8   5 -11  -54.31   17.99
  -9   5 -11   61.99   19.08
 -25   6  11    6.90    6.90
 -24   6  11   15.60    8.43
 -23   6  11   -4.68    8.81
 -22   6  11   -0.99    9.78
 -21   6  11   -4.84   10.62
 -20   6  11    5.19   10.78
 -19   6  11    5.95   11.38
 -18   6  11   21.39   12.27
 -17   6  11    3.42   11.32
 -16   6  11   -5.65   12.61
 -15   6  11   -9.36   12.58
 -14   6  11   85.71   15.87
 -13   6  11  -15.60   12.45
   4  -6 -11   28.29   12.90
   3  -6 -11    6.91   10.44
   2  -6 -11  -16.11   13.92
   1  -6 -11   -9.02   13.87
   0  -6 -11  -13.33   15.57
  -1  -6 -11  -33.30   16.75
  -2   6 -11   82.14   17.04
  -2  -6 -11   17.71   14.27
  -3   6 -11   35.49   16.38
  -3  -6 -11  -17.05   15.75
  -4  -6 -11   17.53   15.60
  -4   6 -11   70.26   18.43
  -5   6 -11   13.43   16.10
  -6   6 -11   -9.01   16.09
  -7   6 -11  -49.52   17.56
  -8   6 -11   -9.77   17.63
 -23   7  11   -2.98    6.68
 -22   7  11    1.47    7.04
 -21   7  11   -8.18    8.23
 -20   7  11    5.69    8.86
 -19   7  11  -10.33    9.66
 -18   7  11    9.84    9.44
 -17   7  11    1.58    9.14
 -16   7  11   -3.26    9.67
 -15   7  11   -0.33    9.21
 -14   7  11   13.69    9.67
   3  -7 -11  -14.06   13.50
   2  -7 -11   22.62   12.97
   1  -7 -11  -13.41   15.25
   0   7 -11   46.62   13.98
   0  -7 -11   14.09   13.33
  -1   7 -11   48.46   15.19
  -2   7 -11   40.51   15.41
  -3   7 -11   31.71   15.20
  -4   7 -11    1.89   14.87
  -5   7 -11  -26.02   15.99
  -6   7 -11    5.65   14.29
  -7   7 -11  -52.45   17.82
  -4   8 -11  -28.17   14.37
  -5   8 -11  -13.65   14.27
 -26   0  12  -20.04    8.42
 -25   0  12  -11.56    8.96
 -24   0  12  -16.69    9.92
 -23   0  12   -3.89    9.87
 -22   0  12    1.84   10.58
 -21   0  12   -2.31   11.04
 -20   0  12   90.13   17.61
  -6   0 -12  147.77   16.96
  -7   0 -12   65.53   15.60
  -8   0 -12   41.84   13.94
  -9   0 -12   18.69   13.93
 -10   0 -12   32.57   13.26
 -11   0 -12  -27.55   15.28
 -26  -1  12   -6.93    6.33
 -26   1  12   -9.76    7.56
 -25   1  12  -21.30    9.74
 -25  -1  12  -16.91    8.54
 -24   1  12  -22.79   11.08
 -24  -1  12   -6.14    8.58
 -23   1  12  -12.67   11.02
 -23  -1  12   -7.54    9.86
 -22   1  12   -1.15   11.18
 -22  -1  12   -7.72   10.91
 -21   1  12    2.42   11.54
 -21  -1  12   12.67   11.06
 -20   1  12   10.40   13.36
   1  -1 -12   11.54   10.37
   0  -1 -12    3.14   10.93
  -1  -1 -12    8.36   11.47
  -2  -1 -12   -0.96   12.21
  -3  -1 -12  139.56   22.44
  -4  -1 -12   12.98   14.44
  -5  -1 -12   28.76   15.28
  -6  -1 -12   51.31   14.11
  -6   1 -12   62.07   14.80
  -7  -1 -12   58.38   14.38
  -7   1 -12   75.12   16.33
  -7  -1 -12   20.80   13.46
  -8  -1 -12   29.97   13.77
  -8   1 -12   24.26   13.11
  -9  -1 -12   41.33   14.38
  -9   1 -12   44.49   15.20
 -10  -1 -12  -41.77   13.61
 -10   1 -12  -19.14   14.67
 -11  -1 -12  -30.26   15.38
 -11   1 -12  -13.48   15.05
 -26   2  12    5.05    6.95
 -25   2  12  -23.57   10.47
 -25  -2  12   -5.78    7.01
 -24   2  12  -22.78   10.65
 -24  -2  12   -3.13    8.07
 -23   2  12  -16.04   12.11
 -23  -2  12   -2.75    8.78
 -22   2  12   -8.43   12.08
 -22  -2  12   -4.59    9.51
 -21   2  12    1.53   12.29
 -21  -2  12   -1.05   10.21
 -20   2  12    4.72   12.64
 -19   2  12    5.34   14.59
   4  -2 -12  115.08   15.91
   3  -2 -12   34.12   12.06
   2  -2 -12   22.22   11.64
   1  -2 -12   70.68   15.93
   0  -2 -12   93.10   18.28
  -1  -2 -12   -1.71   11.98
  -2  -2 -12   62.93   17.89
  -3  -2 -12   22.58   14.96
  -4  -2 -12  122.01   22.67
  -5  -2 -12   48.52   12.73
  -5  -2 -12   -1.49   13.65
  -6  -2 -12   42.38   12.87
  -6   2 -12   56.05   15.13
  -7  -2 -12   14.95   13.12
  -7  -2 -12   39.57   13.72
  -7   2 -12   42.73   15.63
  -8  -2 -12   64.42   14.74
  -8   2 -12   54.81   16.03
  -9  -2 -12   -8.23   12.68
  -9   2 -12  -25.30   14.29
 -10  -2 -12  -12.93   12.93
 -10   2 -12  -23.42   16.39
 -11  -2 -12  -13.75   14.27
 -11   2 -12  -14.56   15.88
 -26   3  12   28.43    8.74
 -25   3  12   -8.02    9.21
 -24   3  12   -3.81    9.76
 -23   3  12  -18.99   12.46
 -23  -3  12   -2.08    8.06
 -22   3  12  -15.57   13.03
 -22  -3  12    8.41    8.70
 -21   3  12   -9.63   13.99
 -21  -3  12    6.90    9.38
 -20   3  12    0.30   13.92
 -20  -3  12    9.47   11.12
 -19   3  12   -7.38   14.49
 -18   3  12    9.89   16.40
   5  -3 -12    8.95    8.23
   4  -3 -12   57.82   12.92
   3  -3 -12   39.92   12.15
   2  -3 -12   80.65   16.52
   1  -3 -12    8.98   12.10
   0  -3 -12   54.04   17.24
  -1  -3 -12   14.71   13.69
  -2  -3 -12   26.50   15.00
  -3  -3 -12  110.65   22.98
  -4  -3 -12   30.32   16.03
  -5  -3 -12   34.05   12.10
  -5   3 -12   56.92   15.69
  -6   3 -12  100.55   17.94
  -6  -3 -12   57.64   18.58
  -6  -3 -12   75.77   14.49
  -7   3 -12   24.36   15.36
  -8   3 -12   53.06   16.56
 -10   3 -12   22.84   15.29
 -11   3 -12  -42.71   18.31
 -25   4  12   15.76    8.65
 -24   4  12  -17.23   10.17
 -23   4  12    4.39   10.12
 -22   4  12  -20.65   13.12
 -21   4  12    3.40   12.50
 -20   4  12   -7.08   14.20
 -20  -4  12    6.69    9.45
 -19   4  12    5.26   13.99
 -18   4  12   -4.93   15.32
 -17   4  12   41.57   17.28
   4  -4 -12   -2.87    9.53
   3  -4 -12   71.46   15.67
   2  -4 -12   26.20   13.14
   1  -4 -12   33.49   14.18
   0  -4 -12   17.28   13.93
  -1  -4 -12   53.46   17.42
  -2  -4 -12   -3.22   13.52
  -3  -4 -12   33.57   17.03
  -4  -4 -12  134.51   24.31
  -4   4 -12  226.37   22.68
  -5  -4 -12   90.25   21.40
  -5   4 -12  126.89   19.89
  -6   4 -12   45.30   17.49
  -7   4 -12   71.56   18.34
  -8   4 -12  -48.44   17.82
  -9   4 -12   45.61   17.00
 -10   4 -12  -55.72   19.20
 -11   4 -12  -22.69   18.20
 -25   5  12    1.66    6.46
 -24   5  12    5.80    7.94
 -23   5  12  -11.80   10.14
 -22   5  12   -2.21   10.69
 -21   5  12   -8.96   12.08
 -20   5  12    4.92   11.82
 -19   5  12  -17.35   14.09
 -18   5  12   12.39   13.31
 -17   5  12  -16.95   14.50
 -16   5  12   28.31   15.18
 -15   5  12   -2.06   13.34
   4  -5 -12   17.41   10.83
   3  -5 -12    5.40   10.31
   2  -5 -12   -5.01   11.57
   1  -5 -12    1.27   11.94
   0  -5 -12   16.69   14.10
  -1  -5 -12  -11.39   13.93
  -2  -5 -12   45.96   17.68
  -3   5 -12   49.83   15.88
  -4   5 -12  118.35   19.82
  -5   5 -12  146.44   21.46
  -6   5 -12   73.06   19.32
  -7   5 -12  -22.72   18.12
  -8   5 -12    7.62   17.19
  -9   5 -12  -58.76   19.79
 -23   6  12  -11.11    7.93
 -22   6  12   -0.62    8.04
 -21   6  12   -8.64   10.04
 -20   6  12   -3.37   10.04
 -19   6  12  -10.35   11.21
 -18   6  12   -1.22   10.69
 -17   6  12   -9.91   11.75
 -16   6  12  -12.23   12.12
 -15   6  12   -8.05   11.70
 -14   6  12   -0.79   10.65
 -13   6  12    5.47   10.75
   2  -6 -12   10.18   12.55
  -1   6 -12   44.09   14.90
  -2   6 -12   55.30   16.89
  -3   6 -12   77.10   18.09
  -4   6 -12   14.63   15.52
  -5   6 -12   10.20   16.49
  -6   6 -12   46.45   17.86
  -7   6 -12  -22.07   17.81
 -22   7  12   -2.99    5.91
 -21   7  12    5.08    6.61
 -20   7  12    0.98    6.95
 -19   7  12   -9.71    8.34
 -18   7  12    6.61    8.25
 -17   7  12   11.42    9.12
 -16   7  12    2.74    8.55
 -15   7  12   -7.11    9.04
   1   7 -12   48.85   14.05
   0   7 -12   36.69   13.51
  -1   7 -12   44.62   15.47
  -2   7 -12   11.43   14.16
  -3   7 -12    3.01   14.12
  -4   7 -12   -4.78   14.43
  -5   7 -12  -30.18   16.14
  -6   7 -12  -23.21   16.50
  -3   8 -12   16.31   12.65
  -5   8 -12   -0.39   13.21
 -25   0  13  -17.15    8.35
 -24   0  13  -15.54    9.43
 -23   0  13  -11.31   10.53
 -22   0  13   -4.03   10.52
 -21   0  13   26.58   13.25
 -20   0  13   22.37   14.01
  -5   0 -13   67.36   14.63
  -6   0 -13   67.87   16.07
  -7   0 -13   35.24   15.17
  -8   0 -13   21.99   14.09
  -9   0 -13  -18.54   14.40
 -25   1  13   -7.81    8.30
 -25  -1  13   -0.75    6.86
 -24   1  13   -9.90    9.70
 -24  -1  13  -10.06    8.31
 -23   1  13   -9.79   10.66
 -23  -1  13   11.71    9.35
 -22   1  13    8.44   11.18
 -22  -1  13    8.24   10.57
 -21   1  13   22.07   13.84
 -21  -1  13   28.08   13.10
 -20  -1  13   28.70   14.10
 -20   1  13   34.25   15.86
  -5  -1 -13   86.63   15.78
  -5   1 -13   86.69   16.89
  -6  -1 -13   59.86   14.57
  -6   1 -13   54.58   16.94
  -7  -1 -13   41.96   14.73
  -7   1 -13   58.73   16.25
  -8  -1 -13   41.42   14.37
  -8   1 -13   46.44   15.19
  -9  -1 -13   26.82   12.99
  -9   1 -13   31.92   14.62
 -10   1 -13  -34.94   16.38
 -11  -1 -13  -45.64   16.17
 -25   2  13   -7.45    8.43
 -24   2  13   -4.31    9.64
 -24  -2  13   17.47    7.73
 -23   2  13   -5.13   10.57
 -23  -2  13   -6.73    8.60
 -22   2  13   20.05   12.40
 -22  -2  13   21.56   10.47
 -21   2  13    3.09   12.71
 -21  -2  13   24.97   11.18
 -20  -2  13   68.03   15.46
 -20   2  13   68.81   17.31
 -19   2  13   50.94   18.53
   2  -2 -13  141.34   20.10
   1  -2 -13   72.40   16.79
   0  -2 -13  125.32   21.21
  -1  -2 -13   19.25   14.11
  -2  -2 -13   23.00   14.50
  -3  -2 -13    3.89   13.10
  -5  -2 -13   70.69   14.63
  -5   2 -13   70.06   17.34
  -6   2 -13   69.08   18.24
  -6  -2 -13   82.76   15.72
  -7  -2 -13   53.19   14.40
  -7   2 -13   85.00   18.63
  -8  -2 -13   48.01   14.03
  -8   2 -13   64.50   17.87
  -9  -2 -13   10.56   12.38
  -9   2 -13    5.03   14.49
 -10  -2 -13   52.12   13.73
 -10   2 -13   14.02   14.45
 -11   2 -13    1.18   16.15
 -25   3  13   46.66    9.84
 -24   3  13  -17.69    9.49
 -23   3  13    0.52    9.93
 -23  -3  13   26.82    8.30
 -22   3  13  -10.27   11.79
 -22  -3  13   -2.48    7.92
 -21   3  13   47.00   14.93
 -21  -3  13   36.69   11.43
 -20   3  13    9.69   13.35
 -20  -3  13   17.43   11.05
 -19   3  13   85.56   19.00
 -18   3  13   52.05   18.26
   4  -3 -13   21.58   10.78
   3  -3 -13   97.07   16.98
   2  -3 -13   39.87   14.47
   1  -3 -13  189.76   24.69
   0  -3 -13   29.69   14.08
  -1  -3 -13   32.67   15.79
  -2  -3 -13    5.84   13.16
  -4  -3 -13   44.17   12.57
  -4   3 -13   61.28   16.71
  -5  -3 -13  101.82   15.68
  -5   3 -13  107.53   18.81
  -6   3 -13   85.88   18.63
  -7   3 -13   68.09   18.71
  -8   3 -13  -18.82   16.01
  -9   3 -13   17.91   15.75
 -10   3 -13   -3.86   16.16
 -11   3 -13   63.58   16.01
 -24   4  13   28.14    9.35
 -23   4  13  -12.42    9.94
 -22   4  13   16.23   10.93
 -21   4  13  -13.26   12.78
 -20   4  13   40.76   15.03
 -20  -4  13   51.87   11.71
 -19   4  13   -8.84   13.89
 -18   4  13   84.11   19.03
 -17   4  13   37.96   16.43
   3  -4 -13    1.36    9.43
   2  -4 -13   66.78   16.71
   1  -4 -13    0.78   10.44
  -3   4 -13   70.92   17.32
  -4   4 -13  153.48   20.87
  -5   4 -13   64.97   19.01
  -6   4 -13   81.41   19.25
  -7   4 -13    2.62   16.01
  -8   4 -13   23.70   16.53
  -9   4 -13  -36.39   16.82
 -10   4 -13   20.98   15.62
 -23   5  13   22.42    8.63
 -22   5  13   -5.53    9.55
 -21   5  13    9.03    9.97
 -20   5  13  -11.42   11.61
 -19   5  13   23.68   12.52
 -18   5  13    7.57   11.61
 -17   5  13   28.25   13.57
 -16   5  13   17.77   13.35
 -15   5  13   26.17   13.84
  -2   5 -13  106.76   18.70
  -3   5 -13   88.75   19.92
  -4   5 -13   44.12   18.09
  -5   5 -13   64.95   18.68
  -6   5 -13   44.13   17.83
  -7   5 -13   -0.06   16.41
  -8   5 -13  -19.43   17.37
 -22   6  13    0.78    6.03
 -21   6  13   24.50    8.94
 -20   6  13   -1.08    8.19
 -19   6  13   27.22   10.19
 -18   6  13   -6.97    9.71
 -17   6  13   31.60   11.59
 -16   6  13   -0.20   10.03
 -15   6  13   17.17   11.03
 -14   6  13    3.19    9.93
 -13   6  13   29.05   11.51
 -12   6  13   13.02   10.55
   0   6 -13   86.57   16.68
  -1   6 -13  124.98   18.52
  -2   6 -13   67.58   17.60
  -3   6 -13   68.31   17.86
  -4   6 -13   13.78   15.85
  -5   6 -13   50.26   17.50
  -6   6 -13  -18.90   16.56
  -7   6 -13   -5.07   15.05
 -19   7  13   14.94    6.77
   2   7 -13  135.79   16.88
   1   7 -13   47.61   13.91
   0   7 -13  109.32   17.13
  -1   7 -13   14.61   13.93
  -2   7 -13   79.70   16.74
  -3   7 -13    1.23   13.50
  -4   7 -13   36.89   14.96
  -5   7 -13  -43.81   15.82
  -6   7 -13    4.65   12.80
  -2   8 -13   -4.61   11.12
  -3   8 -13   27.14   12.42
  -4   8 -13  -24.81   11.53
 -24   0  14   69.25   11.08
 -23   0  14   75.82   13.00
 -22   0  14  169.10   18.48
 -21   0  14  214.76   21.86
 -20   0  14  165.28   21.18
  -4   0 -14  485.53   28.69
  -5   0 -14  522.95   29.26
  -6   0 -14  335.59   25.00
  -7   0 -14  229.20   22.74
  -8   0 -14  125.13   18.48
  -9   0 -14  220.28   20.59
 -10   0 -14  102.92   16.18
 -24   1  14   36.92    9.91
 -23   1  14   77.87   13.18
 -23  -1  14   72.49   12.13
 -22   1  14   95.71   15.83
 -22  -1  14  109.30   15.23
 -21   1  14  141.54   18.65
 -21  -1  14  136.99   17.63
 -20   1  14  161.45   21.20
 -20  -1  14  174.35   21.02
 -19   1  14  175.11   23.38
  -4  -1 -14  460.69   26.62
  -4   1 -14  575.18   29.46
  -5  -1 -14  339.55   24.77
  -5   1 -14  391.27   26.12
  -6  -1 -14  266.50   22.14
  -6   1 -14  299.52   25.15
  -7  -1 -14  167.00   19.30
  -7   1 -14  162.12   21.06
  -8  -1 -14  198.18   20.33
  -8   1 -14  184.47   21.61
  -9  -1 -14   47.17   13.93
  -9   1 -14   46.26   15.74
 -10  -1 -14   76.44   14.62
 -10   1 -14   80.63   15.72
 -24   2  14   24.28    8.96
 -23   2  14   33.01   11.10
 -23  -2  14   31.46    8.62
 -22   2  14   30.99   11.83
 -22  -2  14   31.36   10.05
 -21   2  14   37.54   13.55
 -21  -2  14   43.34   12.14
 -20  -2  14  107.34   16.86
 -20   2  14   84.65   17.55
 -19   2  14  142.77   21.70
  -4  -2 -14  207.13   19.11
  -4   2 -14  269.88   23.20
  -5  -2 -14  126.12   17.19
  -5   2 -14  223.97   22.42
  -6   2 -14  144.20   20.03
  -6  -2 -14   97.74   16.21
  -7  -2 -14   89.54   15.52
  -7   2 -14  117.15   19.16
  -8  -2 -14   36.84   12.72
  -8   2 -14   35.20   15.82
  -9  -2 -14  -18.25   12.70
  -9   2 -14  -35.98   15.63
 -10   2 -14  -33.93   16.64
 -23   3  14   -1.94    8.85
 -22   3  14   -4.08    9.05
 -22  -3  14   -4.38    6.75
 -21   3  14    7.57   10.93
 -21  -3  14    4.84    7.91
 -20   3  14   23.53   12.88
 -20  -3  14   30.79   11.20
 -19   3  14   21.31   13.82
 -18   3  14   46.55   16.55
  -3  -3 -14   79.50   14.36
  -3   3 -14  114.96   20.15
  -4  -3 -14   42.55   12.65
  -4   3 -14   74.80   19.04
  -5   3 -14   29.90   18.11
  -6   3 -14   27.14   17.74
  -7   3 -14   -1.30   15.62
  -8   3 -14  -44.97   18.12
  -9   3 -14  -49.33   18.36
 -23   4  14  -14.09    8.23
 -22   4  14   -3.34    8.78
 -21   4  14  -10.41   10.30
 -20   4  14    2.99   10.11
 -20  -4  14   10.97    7.64
 -19   4  14    5.17   11.19
 -19  -4  14   16.86    9.33
 -18   4  14   13.06   12.81
 -17   4  14   28.23   14.02
 -16   4  14   28.24   15.17
  -2   4 -14   84.04   18.50
  -3   4 -14  150.07   20.90
  -4   4 -14   47.62   18.59
  -5   4 -14   22.10   16.57
  -6   4 -14    5.96   15.59
  -7   4 -14  -29.58   17.46
  -8   4 -14  -41.07   17.60
  -9   4 -14  -45.32   17.26
 -21   5  14   11.20    7.95
 -20   5  14   17.31    9.34
 -19   5  14   12.38    9.97
 -18   5  14   29.40   11.74
 -17   5  14   12.80   11.29
 -16   5  14   40.96   13.23
 -15   5  14   30.40   12.81
 -14   5  14   58.15   14.68
  -1   5 -14  137.03   19.60
  -2   5 -14  142.89   21.82
  -3   5 -14   95.73   19.70
  -4   5 -14  130.80   20.26
  -5   5 -14   10.37   15.43
  -6   5 -14   -0.38   14.86
  -7   5 -14  -25.01   16.34
  -8   5 -14  -37.12   16.45
 -20   6  14    9.65    7.10
 -19   6  14   37.27    9.11
 -18   6  14    3.65    7.31
 -17   6  14   17.31    8.62
 -16   6  14   11.34    8.83
 -15   6  14   53.82   11.63
 -14   6  14    3.52    8.52
 -13   6  14   24.23    9.85
   1   6 -14  228.14   20.10
   0   6 -14   83.16   16.83
  -1   6 -14  132.16   19.20
  -2   6 -14   67.87   16.96
  -3   6 -14   81.12   17.63
  -4   6 -14   -0.72   14.07
  -5   6 -14   19.54   14.30
  -6   6 -14   -9.77   14.55
  -7   6 -14  -23.75   15.13
   4   7 -14   44.84   12.27
   3   7 -14   23.21   12.00
   2   7 -14   67.47   14.43
   1   7 -14   31.06   13.38
   0   7 -14   66.79   14.58
  -1   7 -14    9.81   12.05
  -2   7 -14   31.86   13.33
  -3   7 -14    4.92   12.14
  -4   7 -14   20.24   12.58
  -5   7 -14   -2.01   11.55
  -2   8 -14   -7.70    9.97
 -22   0  15   -4.93    8.79
 -21   0  15   -7.14   10.77
 -20   0  15   24.26   13.00
 -19   0  15   47.13   15.60
  -3   0 -15   46.98   15.06
  -4   0 -15   29.89   14.74
  -5   0 -15    6.80   13.75
  -6   0 -15   -5.88   13.51
  -7   0 -15  -10.97   14.47
  -8   0 -15  -35.99   14.99
  -9   0 -15  -28.73   13.43
 -22   1  15    2.60    8.92
 -22  -1  15    4.19    7.96
 -21   1  15   21.87   12.01
 -21  -1  15    4.33    9.06
 -20   1  15   24.26   12.85
 -20  -1  15   23.02   11.95
 -19   1  15   44.43   15.18
  -3  -1 -15   68.25   16.32
  -3   1 -15   73.84   18.10
  -4  -1 -15  118.47   17.60
  -4   1 -15  139.42   20.41
  -5  -1 -15   23.95   13.88
  -5   1 -15   45.04   16.82
  -6  -1 -15   63.54   15.07
  -6   1 -15  109.27   18.37
  -7  -1 -15   -2.33   12.93
  -7   1 -15    2.22   14.16
  -8  -1 -15  -20.17   12.71
  -8   1 -15  -12.42   14.38
  -9  -1 -15  -15.43   12.25
  -9   1 -15  -26.72   14.46
 -22   2  15   -6.39    8.77
 -21   2  15   12.81   10.33
 -21  -2  15   17.20    9.07
 -20   2  15   19.77   11.68
 -20  -2  15   21.35   10.89
 -19   2  15   52.04   14.98
 -18   2  15   71.09   17.30
  -3  -2 -15   67.07   14.29
  -3   2 -15   99.32   19.83
  -4  -2 -15   52.45   14.46
  -4   2 -15   90.93   19.74
  -5  -2 -15  260.08   20.29
  -5   2 -15  276.92   24.94
  -6  -2 -15   27.12   12.44
  -6   2 -15   35.44   16.48
  -7  -2 -15  116.99   15.41
  -7   2 -15  127.42   19.49
  -8  -2 -15  -10.62   10.80
  -8   2 -15    0.70   13.51
  -9   2 -15   65.31   15.02
 -22   3  15    0.98    7.30
 -21   3  15   -1.27    8.61
 -20   3  15   39.52   12.24
 -20  -3  15   38.64    9.61
 -19  -3  15   26.05   10.52
 -19   3  15    9.26   10.83
 -18   3  15   47.41   14.03
 -17   3  15   50.69   15.44
  -2  -3 -15  241.24   18.96
  -2   3 -15  387.47   27.55
  -3  -3 -15   50.17   13.31
  -3   3 -15   72.57   20.47
  -4   3 -15  103.66   20.84
  -5   3 -15   35.18   17.30
  -6   3 -15  142.12   20.62
  -7   3 -15   -5.20   14.50
  -8   3 -15  144.31   18.50
  -9   3 -15  -40.93   15.48
 -21   4  15   18.82    8.21
 -20   4  15   -4.50    8.44
 -19   4  15   29.32   10.74
 -19  -4  15   39.37    8.63
 -18   4  15   -9.27    9.87
 -17   4  15   50.10   13.23
 -16   4  15   34.14   12.77
  -1   4 -15  368.60   25.85
  -2   4 -15  105.01   20.52
  -3   4 -15  278.62   24.31
  -4   4 -15   28.51   16.49
  -5   4 -15   17.27   15.20
  -6   4 -15  -17.79   15.38
  -7   4 -15   54.91   15.67
  -8   4 -15  -25.89   15.05
 -19   5  15    5.24    6.97
 -18   5  15   11.37    7.98
 -17   5  15   12.43    9.00
 -16   5  15   -6.29    8.72
 -15   5  15   16.92    9.87
 -14   5  15   70.77   13.12
 -13   5  15   34.82   11.29
   1   5 -15   74.51   16.30
   0   5 -15  147.53   18.59
  -1   5 -15   96.93   17.83
  -2   5 -15  133.47   19.69
  -3   5 -15   49.48   16.24
  -4   5 -15   38.01   15.66
  -5   5 -15   -9.47   13.67
  -6   5 -15  -21.83   14.39
  -7   5 -15  -49.54   15.29
   3   6 -15   31.02   12.55
   2   6 -15   52.30   13.56
   1   6 -15   57.92   14.50
   0   6 -15   49.77   14.63
  -1   6 -15   13.27   12.68
  -2   6 -15   47.86   14.81
  -3   6 -15    3.76   12.04
  -4   6 -15    4.18   12.21
  -5   6 -15  -10.17   11.91
  -6   6 -15  -26.07   13.09
   6   7 -15   27.41   10.60
   5   7 -15   34.58   11.00
   4   7 -15   17.57   10.88
   3   7 -15   38.62   11.91
   2   7 -15    9.24   10.42
   1   7 -15   19.66   11.22
   0   7 -15   -1.56   10.23
  -1   7 -15   12.06   11.00
  -2   7 -15   -8.94   10.76
  -3   7 -15    3.08    9.82
  -4   7 -15  -12.54   10.51
 -20   0  16   -4.03    8.91
 -19   0  16   20.67   11.67
  -2   0 -16  140.29   18.99
  -3   0 -16   77.09   17.22
  -4   0 -16   24.97   14.94
  -5   0 -16    1.78   12.85
  -6   0 -16    8.11   12.31
  -7   0 -16  -17.65   12.65
  -8   0 -16  -33.15   13.31
 -20   1  16    0.29    9.09
 -20  -1  16    9.51    9.29
 -19   1  16   23.15   11.26
 -19  -1  16   18.99   10.76
 -18   1  16   41.65   13.78
  -2  -1 -16  113.92   17.57
  -2   1 -16  179.30   20.94
  -3  -1 -16   37.28   15.11
  -3   1 -16   61.26   17.57
  -4  -1 -16   25.22   13.88
  -4   1 -16   29.40   15.39
  -5  -1 -16    3.88   12.02
  -5   1 -16    5.25   13.95
  -6  -1 -16   -6.84   11.22
  -6   1 -16    4.11   12.79
  -7  -1 -16  -25.35   12.50
  -7   1 -16   -4.06   12.24
  -8  -1 -16  -30.59   11.88
  -8   1 -16  -18.94   12.73
 -20   2  16    2.39    8.08
 -19   2  16    6.96    9.84
 -19  -2  16   24.81    9.65
 -18   2  16   31.62   11.94
 -17   2  16   64.05   14.67
  -1  -2 -16   38.75   12.94
  -1   2 -16   64.11   18.56
  -2  -2 -16   35.45   12.78
  -2   2 -16   70.39   18.03
  -3   2 -16   51.24   17.04
  -3  -2 -16   44.77   13.34
  -4  -2 -16   27.60   12.62
  -4   2 -16   18.44   15.80
  -5  -2 -16   -8.40   11.33
  -5   2 -16    4.54   14.32
  -6  -2 -16  -20.10   10.75
  -6   2 -16   -6.39   14.59
  -7   2 -16  -30.97   14.92
  -8   2 -16  -19.11   13.84
 -19   3  16    8.65    8.44
 -18   3  16   12.96    9.44
 -17   3  16   31.13   11.26
 -16   3  16   22.18   11.53
   0  -3 -16   36.49   11.99
   0   3 -16   60.25   17.89
  -1  -3 -16   96.91   14.05
  -1   3 -16  154.91   20.13
  -2   3 -16   48.39   17.42
  -3   3 -16   70.03   17.65
  -4   3 -16   10.36   15.27
  -5   3 -16   16.38   14.18
  -6   3 -16  -38.76   13.93
  -7   3 -16  -43.42   13.65
 -18   4  16    5.38    7.22
 -17   4  16   -2.70    7.75
 -16   4  16   29.19    9.89
 -15   4  16   19.76   10.12
   1   4 -16   79.66   16.47
   0   4 -16  108.75   17.54
  -1   4 -16   49.93   16.69
  -2   4 -16  121.56   18.61
  -3   4 -16   13.07   14.16
  -4   4 -16   39.62   14.92
  -5   4 -16  -19.32   14.27
  -6   4 -16  -14.49   13.55
 -16   5  16   -4.11    6.43
 -15   5  16    0.82    6.42
 -14   5  16   -8.00    7.19
 -13   5  16   19.97    8.45
 -12   5  16   19.86    8.62
   2   5 -16   26.20   12.50
   1   5 -16   36.49   13.88
   0   5 -16   28.11   13.97
  -1   5 -16   50.50   14.59
  -2   5 -16   10.72   12.62
  -3   5 -16    9.67   12.39
  -4   5 -16  -12.13   12.36
  -5   5 -16  -29.19   12.94
   5   6 -16   10.20    9.94
   4   6 -16   23.77   11.02
   3   6 -16   24.08   11.59
   2   6 -16   26.79   11.96
   1   6 -16   17.28   11.67
   0   6 -16   10.07   11.20
  -1   6 -16    0.57   10.49
  -2   6 -16  -27.18   10.96
  -3   6 -16  -21.45   11.38
  -4   6 -16  -34.31   10.63
  -5   6 -16  -35.37   11.31
   5   7 -16   10.35    9.44
   4   7 -16    3.23    8.80
   3   7 -16    2.20    9.14
   2   7 -16    4.10    9.14
   1   7 -16   -4.10    8.98
   0   7 -16   -6.81    8.97
  -1   7 -16   -6.88    8.89
  -2   7 -16  -13.16    9.09
  -3   7 -16  -26.65    8.89
 -18   0  17   26.74   10.66
   0   0 -17   59.40   15.49
  -1   0 -17   33.14   14.50
  -2   0 -17   30.49   14.86
  -3   0 -17   28.25   14.26
  -4   0 -17   17.81   13.45
  -5   0 -17   -2.25   11.81
 -18   1  17   22.52    9.51
 -18  -1  17   22.09    9.68
 -17   1  17   32.44   10.92
   0  -1 -17   68.45   15.39
   0   1 -17   82.92   17.80
  -1   1 -17   74.74   16.99
  -1  -1 -17  108.70   16.73
  -2  -1 -17   43.76   14.09
  -2   1 -17   42.26   15.98
  -3  -1 -17   19.36   12.50
  -3   1 -17   39.42   15.27
  -4  -1 -17   10.11   11.47
  -4   1 -17   13.29   13.51
  -5  -1 -17   26.24   11.47
  -5   1 -17   28.74   13.21
  -6  -1 -17   -9.95   10.20
  -6   1 -17  -25.45   12.74
  -7   1 -17  -38.72   12.83
 -18   2  17   20.33    9.02
 -17   2  17   37.62   10.33
 -16   2  17   70.34   12.74
   1  -2 -17  149.30   17.10
   1   2 -17  178.53   20.49
   0  -2 -17  172.51   17.37
   0   2 -17  205.61   21.92
  -1  -2 -17   70.06   13.65
  -1   2 -17   93.64   18.08
  -2   2 -17   94.80   18.28
  -2  -2 -17   45.67   12.30
  -3  -2 -17   35.92   11.53
  -3   2 -17   51.56   15.85
  -4  -2 -17   55.85   11.62
  -4   2 -17   43.69   15.03
  -5   2 -17   16.30   12.64
  -6   2 -17   47.63   13.17
  -7   2 -17  -18.10   11.98
 -17   3  17   30.13    8.65
 -16   3  17   39.42    9.60
 -15   3  17   55.30   11.21
   2  -3 -17  138.33   15.06
   1   3 -17  210.47   21.50
   0   3 -17  162.94   19.68
  -1   3 -17   87.51   17.32
  -2   3 -17   62.29   15.72
  -3   3 -17   48.81   15.57
  -4   3 -17   65.69   15.03
  -5   3 -17   49.68   13.67
  -6   3 -17   10.39   11.18
  -7   3 -17   33.57   12.04
 -15   4  17   24.70    7.64
 -14   4  17   27.72    8.32
 -13   4  17   38.86    9.31
   3   4 -17  201.60   18.58
   2   4 -17  140.00   16.84
   1   4 -17   86.34   15.74
   0   4 -17   40.00   14.39
  -1   4 -17   47.14   14.08
  -2   4 -17   25.82   12.90
  -3   4 -17   24.72   12.61
  -4   4 -17    2.90   10.76
  -5   4 -17    5.37   10.60
  -6   4 -17   -1.58   10.00
   5   5 -17   55.34   12.52
   4   5 -17  116.32   14.31
   3   5 -17   72.46   13.74
   2   5 -17   72.08   13.80
   1   5 -17    8.65   11.56
   0   5 -17   23.96   11.66
  -1   5 -17    7.47   10.54
  -2   5 -17    4.60    9.92
  -3   5 -17  -29.36   11.15
  -4   5 -17   -6.75    9.87
  -5   5 -17  -28.80   10.40
   9   6 -17   12.26    8.10
   8   6 -17    4.68    7.97
   7   6 -17   18.21    9.26
   6   6 -17   26.16    9.84
   5   6 -17   24.08   10.27
   4   6 -17   23.61   10.16
   3   6 -17   22.52   10.17
   2   6 -17    1.29    8.64
   1   6 -17    6.05    9.06
   0   6 -17   -5.51    8.99
  -1   6 -17   -9.57    9.03
  -2   6 -17  -19.52    8.97
   2   0 -18  266.79   20.91
   1   0 -18   71.34   14.98
   0   0 -18  130.43   17.34
  -1   0 -18   70.47   14.84
  -2   0 -18  423.29   23.36
  -3   0 -18   73.68   13.99
  -4   0 -18   83.91   12.89
  -5   0 -18   23.42   10.08
   2  -1 -18   73.04   14.33
   2   1 -18   49.62   14.85
   1  -1 -18  129.06   16.14
   1   1 -18  124.55   17.23
   0  -1 -18   70.65   14.34
   0   1 -18   55.90   15.54
  -1  -1 -18  147.37   16.26
  -1   1 -18  148.19   18.13
  -2  -1 -18   41.15   12.00
  -2   1 -18   74.83   14.96
  -3  -1 -18  123.25   13.77
  -3   1 -18  154.59   16.72
  -4  -1 -18   15.06    9.14
  -4   1 -18   21.87   11.26
  -5   1 -18   84.97   12.73
   3  -2 -18   17.88   11.10
   3   2 -18   14.08   12.01
   2  -2 -18   40.07   11.52
   2   2 -18   36.30   13.64
   1   2 -18   32.20   13.71
   1  -2 -18   22.49   11.11
   0  -2 -18   97.70   13.12
   0   2 -18  123.90   16.73
  -1  -2 -18   14.15    9.41
  -1   2 -18   13.02   12.28
  -2   2 -18   13.11   12.08
  -3   2 -18   20.52   11.56
  -4   2 -18   55.31   12.75
  -5   2 -18   -1.16    9.25
   4   3 -18   21.88   11.91
   3   3 -18   12.34   11.46
   2   3 -18   10.25   11.50
   1   3 -18   13.92   11.84
   0   3 -18    3.12   11.34
  -1   3 -18    5.03   10.89
  -2   3 -18   -9.53   10.81
  -3   3 -18  -14.73   10.63
  -4   3 -18  -14.62    9.99
  -5   3 -18   -4.96    9.01
   6   4 -18   27.95   10.40
   5   4 -18   55.01   11.89
   4   4 -18   49.14   12.51
   3   4 -18   35.73   11.34
   2   4 -18   11.76   10.28
   1   4 -18   15.16   10.47
   0   4 -18   15.29   10.73
  -1   4 -18  -10.70   10.18
  -2   4 -18  -10.98    9.59
  -3   4 -18  -14.40    9.41
  -4   4 -18  -16.85    8.62
   7   5 -18   32.77    9.51
   6   5 -18   17.98    9.51
   5   5 -18   63.69   11.37
   4   5 -18   12.78    9.49
   3   5 -18   61.52   11.06
   2   5 -18   16.18    9.43
   1   5 -18   29.58    9.66
   0   5 -18   -5.40    8.39
  -1   5 -18    3.37    7.84
   5   0 -19    3.61    9.72
   4   0 -19   -9.10   10.11
   3   0 -19    1.72   10.06
   2   0 -19    0.63    9.73
   1   0 -19  -13.77    9.75
   0   0 -19   -1.39    9.17
   6  -1 -19   -8.16    9.43
   6   1 -19    8.95    9.37
   5  -1 -19   15.63    9.47
   5   1 -19   11.44    9.65
   4  -1 -19    0.78    9.18
   4   1 -19   14.61   10.16
   3  -1 -19  -16.50   10.41
   3   1 -19    2.07   10.07
   2   1 -19    3.85    9.62
   1   1 -19   -9.27    9.47
   0   1 -19    2.41    9.39
   7   2 -19   15.27    9.28
   6   2 -19   27.95    9.86
   5   2 -19   13.98    9.36
   4   2 -19   16.53    9.88
   3   2 -19   16.24    9.90
   2   2 -19   11.76    9.87
   1   2 -19    9.22    9.46
   0   2 -19   47.91   10.87
   6   3 -19   14.90    8.73
   5   3 -19   15.79    9.18
   4   3 -19    9.61    8.86
   3   3 -19   10.64    9.11
   0   0   0    0.00    0.00


TITL exp_6314 in P2(1)/c
REM P2(1)/c (#14 in standard setting)
CELL 1.54184  26.530690  13.617350  16.406742  90.0000  98.0404  90.0000
ZERR   26.00   0.002459   0.004002   0.001923   0.0000   0.0105   0.0000
LATT  1
SYMM -x, y+1/2,-z+1/2
SFAC C H N O
UNIT 286.00 260.00 26.00 26.00
TREF
HKLF 4
END
_computing_structure_solution     'SHELXT 2014/5 (Sheldrick, 2014)'
_computing_structure_solution     'SHELXT 2014/5 (Sheldrick, 2014)'
;
_shelx_hkl_checksum              80680
_shelx_fab_checksum              56313
_shelx_fab_file
;
    3    0    0      3.41      0.00
    4    0    0     54.45      0.00
    5    0    0      5.76      0.00
    6    0    0     -4.26      0.00
    7    0    0     -4.64      0.00
    8    0    0    -11.47      0.00
    9    0    0     -0.66      0.00
   10    0    0     -0.04      0.00
   11    0    0      3.50      0.00
   16    0    0     -7.19      0.00
   17    0    0     -3.50      0.00
   18    0    0     -0.32      0.00
   19    0    0     -1.02      0.00
   20    0    0     -1.73      0.00
   21    0    0      8.60      0.00
   22    0    0     -3.37      0.00
   23    0    0      1.76      0.00
    9    1    0      2.13      0.00
   10    1    0     -0.63      0.00
   11    1    0     -4.62      0.00
   12    1    0     -3.93      0.00
   13    1    0      3.76      0.00
   14    1    0      0.14      0.00
   15    1    0      7.54      0.00
   16    1    0     -0.48      0.00
   17    1    0     -1.30      0.00
   18    1    0     -1.91      0.00
   19    1    0     -0.86      0.00
   20    1    0     -4.14      0.00
   21    1    0     -0.37      0.00
   22    1    0     -0.27      0.00
   23    1    0      5.22      0.00
    9    2    0     -6.86      0.00
   10    2    0      0.37      0.00
   11    2    0      0.76      0.00
   12    2    0    -10.84      0.00
   13    2    0     -6.33      0.00
   14    2    0     -1.48      0.00
   15    2    0      4.91      0.00
   16    2    0     -4.95      0.00
   17    2    0      0.24      0.00
   18    2    0     -0.43      0.00
   19    2    0      2.08      0.00
   20    2    0      2.69      0.00
   21    2    0      1.19      0.00
   22    2    0     -2.34      0.00
   23    2    0     -6.05      0.00
   11    3    0     -6.92      0.00
   12    3    0     -3.06      0.00
   13    3    0      1.13      0.00
   14    3    0     -1.53      0.00
   15    3    0      0.69      0.00
   16    3    0      2.07      0.00
   17    3    0      1.16      0.00
   18    3    0     -2.64      0.00
   19    3    0     -0.53      0.00
   20    3    0     -0.81      0.00
   21    3    0      0.86      0.00
   22    3    0      1.28      0.00
   23    3    0     -8.87      0.00
   12    4    0      0.02      0.00
   13    4    0     -1.28      0.00
   14    4    0      5.12      0.00
   15    4    0     -1.28      0.00
   16    4    0      2.78      0.00
   17    4    0     -1.90      0.00
   18    4    0      3.31      0.00
   19    4    0     -3.21      0.00
   20    4    0      1.53      0.00
   21    4    0     -3.34      0.00
   22    4    0      4.62      0.00
   12    5    0     -0.54      0.00
   13    5    0     -3.65      0.00
   14    5    0     -2.36      0.00
   15    5    0      1.65      0.00
   16    5    0      4.09      0.00
   17    5    0     -5.55      0.00
   18    5    0     -0.57      0.00
   19    5    0      0.60      0.00
   20    5    0      4.91      0.00
   21    5    0      3.62      0.00
   11    6    0      0.02      0.00
   12    6    0      0.14      0.00
   13    6    0     -0.30      0.00
   14    6    0     -0.94      0.00
   15    6    0     -4.87      0.00
   16    6    0      4.00      0.00
   17    6    0      4.93      0.00
   18    6    0     -3.24      0.00
   19    6    0      0.46      0.00
   10    7    0      0.39      0.00
   11    7    0      1.62      0.00
   12    7    0      2.01      0.00
   13    7    0     -7.62      0.00
   14    7    0      4.56      0.00
   15    7    0      0.50      0.00
   16    7    0     -4.60      0.00
   17    7    0     -0.17      0.00
   14    8    0     -4.20      0.00
   15    8    0      2.82      0.00
   16    8    0     -2.74      0.00
   13    9    0      4.99      0.00
   14    9    0      6.34      0.00
  -25    1    1      2.81      0.00
  -24    1    1     -8.25      0.00
  -23    1    1      0.18      0.00
  -22    1    1      3.04      0.00
  -21    1    1      0.49      0.00
  -20    1    1      1.69      0.00
  -19    1    1     -4.10      0.00
  -18    1    1      1.46      0.00
  -17    1    1     -3.00      0.00
  -16    1    1      5.20      0.00
  -15    1    1      1.88      0.00
  -14    1    1      3.72      0.00
  -13    1    1    -13.83      0.00
  -12    1    1     -4.11      0.00
  -11    1    1      6.17      0.00
  -10    1    1     -0.67      0.00
   -9    1    1     -4.39      0.00
   -8    1    1     -4.20      0.00
    8    1    1     -2.34      0.00
    9    1    1     -7.52      0.00
   10    1    1      2.85      0.00
   11    1    1      4.52      0.00
   12    1    1     -0.57      0.00
   15    1    1     -3.44      0.00
   16    1    1     -1.05      0.00
   17    1    1     -1.55      0.00
   18    1    1      3.29      0.00
   19    1    1      0.34      0.00
   20    1    1      0.11      0.00
   21    1    1      4.77      0.00
  -25    2    1      4.81      0.00
  -24    2    1      0.71      0.00
  -23    2    1     -8.04      0.00
  -22    2    1      4.19      0.00
  -21    2    1     -5.63      0.00
  -20    2    1      1.61      0.00
  -19    2    1      0.84      0.00
  -18    2    1     -0.40      0.00
  -17    2    1      0.56      0.00
  -16    2    1     -0.35      0.00
  -15    2    1      6.54      0.00
  -14    2    1     -0.95      0.00
  -13    2    1      8.11      0.00
  -12    2    1     -5.39      0.00
  -11    2    1      1.66      0.00
  -10    2    1     -9.90      0.00
    7    2    1     -3.25      0.00
    8    2    1     15.15      0.00
    9    2    1    -12.09      0.00
   10    2    1     -9.14      0.00
   11    2    1    -10.07      0.00
   12    2    1     10.10      0.00
   13    2    1      3.59      0.00
   14    2    1      5.12      0.00
   15    2    1     -4.90      0.00
   16    2    1      4.55      0.00
   17    2    1      2.27      0.00
   18    2    1      2.10      0.00
   19    2    1      2.55      0.00
   20    2    1     -2.02      0.00
   21    2    1      0.57      0.00
  -24    3    1      8.12      0.00
  -23    3    1      4.32      0.00
  -22    3    1      2.63      0.00
  -21    3    1      2.60      0.00
  -20    3    1     -3.05      0.00
  -19    3    1      1.65      0.00
  -18    3    1     -4.43      0.00
  -17    3    1      2.44      0.00
  -16    3    1     -5.26      0.00
  -15    3    1      1.54      0.00
  -14    3    1     -4.21      0.00
  -13    3    1      4.24      0.00
  -12    3    1      0.29      0.00
    9    3    1      2.88      0.00
   10    3    1     -3.69      0.00
   11    3    1     -0.70      0.00
   12    3    1     -5.43      0.00
   13    3    1      2.28      0.00
   14    3    1      3.19      0.00
   15    3    1      2.08      0.00
   16    3    1     -1.69      0.00
   17    3    1     -2.03      0.00
   18    3    1     -0.74      0.00
   19    3    1      2.54      0.00
   20    3    1     -0.16      0.00
   21    3    1     -3.15      0.00
  -24    4    1    -11.13      0.00
  -23    4    1      2.26      0.00
  -22    4    1      4.39      0.00
  -21    4    1      2.74      0.00
  -20    4    1      2.54      0.00
  -19    4    1      4.26      0.00
  -18    4    1      1.54      0.00
  -17    4    1     -4.57      0.00
  -16    4    1     -0.07      0.00
  -15    4    1     -2.06      0.00
  -14    4    1     -3.28      0.00
  -13    4    1     -2.53      0.00
   11    4    1     -4.50      0.00
   12    4    1     -3.13      0.00
   13    4    1      2.36      0.00
   14    4    1     -4.79      0.00
   15    4    1     -2.64      0.00
   16    4    1      1.23      0.00
   17    4    1      2.41      0.00
   18    4    1     -4.93      0.00
   19    4    1      0.80      0.00
   20    4    1      0.55      0.00
  -23    5    1     -9.95      0.00
  -22    5    1     -1.45      0.00
  -21    5    1     -4.21      0.00
  -20    5    1     -0.68      0.00
  -19    5    1      0.22      0.00
  -18    5    1      2.97      0.00
  -17    5    1      1.25      0.00
  -16    5    1      0.79      0.00
  -15    5    1     -2.60      0.00
  -14    5    1      1.70      0.00
  -13    5    1      1.18      0.00
  -12    5    1      5.87      0.00
   11    5    1     -0.20      0.00
   12    5    1     -2.17      0.00
   13    5    1     -0.93      0.00
   14    5    1     -2.94      0.00
   15    5    1     -0.16      0.00
   16    5    1     -3.18      0.00
   17    5    1      4.74      0.00
   18    5    1     -1.15      0.00
  -21    6    1     -2.77      0.00
  -20    6    1     -2.63      0.00
  -19    6    1     -1.10      0.00
  -18    6    1     -0.02      0.00
  -17    6    1     -2.41      0.00
  -16    6    1      2.06      0.00
  -15    6    1     -0.35      0.00
  -14    6    1      1.89      0.00
  -13    6    1      1.04      0.00
  -12    6    1      4.63      0.00
  -11    6    1      2.81      0.00
   10    6    1      0.28      0.00
   11    6    1      2.28      0.00
   12    6    1      1.76      0.00
   13    6    1      4.87      0.00
   14    6    1      1.09      0.00
   15    6    1     -8.15      0.00
   16    6    1     -3.75      0.00
   17    6    1     -4.47      0.00
   18    6    1      0.32      0.00
  -19    7    1      3.63      0.00
  -18    7    1     -0.28      0.00
  -17    7    1     -2.25      0.00
  -16    7    1     -1.76      0.00
  -15    7    1      4.96      0.00
  -14    7    1     -3.92      0.00
  -13    7    1     -0.05      0.00
  -12    7    1     -1.54      0.00
  -11    7    1      0.06      0.00
  -10    7    1     -0.35      0.00
   12    7    1      2.57      0.00
   13    7    1     -0.31      0.00
   14    7    1     11.53      0.00
   15    7    1     -0.63      0.00
   16    7    1     -2.94      0.00
   17    7    1     -1.10      0.00
  -16    8    1     -6.49      0.00
  -15    8    1      3.73      0.00
  -14    8    1      1.79      0.00
  -13    8    1     -0.01      0.00
  -12    8    1     -0.56      0.00
   12    8    1     -0.73      0.00
   13    8    1      2.53      0.00
   14    8    1      0.91      0.00
   15    8    1      9.21      0.00
  -14    9    1      3.91      0.00
   12    9    1     -3.45      0.00
   13    9    1      4.09      0.00
  -26    0    2      0.98      0.00
  -25    0    2      1.25      0.00
  -24    0    2     -2.15      0.00
  -23    0    2      5.21      0.00
  -22    0    2     -0.08      0.00
  -21    0    2      1.15      0.00
  -20    0    2     -1.47      0.00
  -19    0    2      5.73      0.00
  -18    0    2     -5.06      0.00
  -17    0    2      2.07      0.00
  -16    0    2     -1.49      0.00
  -14    0    2      1.32      0.00
  -13    0    2     -0.11      0.00
  -12    0    2      3.96      0.00
  -11    0    2     -4.71      0.00
  -10    0    2     -3.75      0.00
   -9    0    2     16.00      0.00
   -8    0    2     16.75      0.00
   -7    0    2     -0.65      0.00
   -6    0    2     -2.53      0.00
   -3    0    2    -15.83      0.00
   -2    0    2     11.87      0.00
   -1    0    2     38.16      0.00
    0    0    2    -38.06      0.00
    1    0    2    -24.30      0.00
    2    0    2     27.49      0.00
    3    0    2     25.31      0.00
    4    0    2      6.72      0.00
    5    0    2     -8.78      0.00
    6    0    2     12.19      0.00
    7    0    2     26.08      0.00
    8    0    2    -14.46      0.00
    9    0    2    -10.58      0.00
   10    0    2     -4.17      0.00
   11    0    2     -3.36      0.00
   12    0    2      5.23      0.00
   15    0    2     -1.51      0.00
   16    0    2     -2.59      0.00
   17    0    2      7.81      0.00
   18    0    2     -3.37      0.00
  -26    1    2     -0.52      0.00
  -25    1    2     -0.13      0.00
  -24    1    2     -3.37      0.00
  -23    1    2      1.51      0.00
  -22    1    2     -2.07      0.00
  -21    1    2     -3.81      0.00
  -20    1    2     -2.47      0.00
  -19    1    2      0.82      0.00
  -18    1    2      4.25      0.00
  -17    1    2     -0.19      0.00
  -16    1    2      6.17      0.00
  -15    1    2     -3.80      0.00
  -14    1    2      2.77      0.00
  -13    1    2      6.18      0.00
  -12    1    2     10.92      0.00
  -11    1    2     -6.81      0.00
  -10    1    2    -15.88      0.00
   -9    1    2     -9.89      0.00
   -8    1    2     14.30      0.00
   -7    1    2      4.94      0.00
   -6    1    2     -2.11      0.00
   -5    1    2     -2.28      0.00
   -4    1    2     13.94      0.00
   -3    1    2      3.16      0.00
    1    1    2    -12.16      0.00
    2    1    2     22.37      0.00
    3    1    2     -0.46      0.00
    4    1    2      4.73      0.00
    5    1    2     10.03      0.00
    6    1    2     -5.48      0.00
    7    1    2     21.23      0.00
    8    1    2     13.56      0.00
    9    1    2     -2.58      0.00
   10    1    2     -3.77      0.00
   11    1    2      0.71      0.00
   12    1    2      0.74      0.00
   13    1    2      6.29      0.00
   15    1    2     -0.10      0.00
   16    1    2      5.34      0.00
   17    1    2      4.23      0.00
   18    1    2      7.12      0.00
  -26    2    2      1.05      0.00
  -25    2    2      2.52      0.00
  -24    2    2     -4.29      0.00
  -23    2    2     -1.85      0.00
  -22    2    2      2.28      0.00
  -21    2    2     -4.21      0.00
  -20    2    2     -1.12      0.00
  -19    2    2     -1.67      0.00
  -18    2    2     -0.51      0.00
  -17    2    2      1.73      0.00
  -16    2    2      2.01      0.00
  -15    2    2      4.75      0.00
  -14    2    2     -6.35      0.00
  -13    2    2    -12.53      0.00
  -12    2    2      7.50      0.00
    4    2    2     -9.37      0.00
    5    2    2    -16.12      0.00
    6    2    2      2.91      0.00
    7    2    2    -10.92      0.00
    8    2    2      9.48      0.00
    9    2    2      3.44      0.00
   10    2    2      2.83      0.00
   11    2    2      5.10      0.00
   12    2    2      2.50      0.00
   13    2    2      4.91      0.00
   14    2    2      3.27      0.00
   15    2    2     -3.22      0.00
   16    2    2     -1.66      0.00
   17    2    2     -2.11      0.00
   18    2    2      2.46      0.00
  -26    3    2     -4.24      0.00
  -25    3    2     -0.89      0.00
  -24    3    2      1.09      0.00
  -23    3    2     -2.43      0.00
  -22    3    2      0.45      0.00
  -21    3    2     -0.10      0.00
  -20    3    2     -3.01      0.00
  -19    3    2      2.43      0.00
  -18    3    2     -2.87      0.00
  -17    3    2     -1.81      0.00
  -16    3    2      0.74      0.00
  -15    3    2     -3.72      0.00
  -14    3    2      6.57      0.00
  -13    3    2     -4.53      0.00
    7    3    2      1.14      0.00
    8    3    2     -6.17      0.00
    9    3    2     -4.42      0.00
   10    3    2    -13.37      0.00
   11    3    2     -0.27      0.00
   12    3    2     -1.73      0.00
   13    3    2      2.19      0.00
   14    3    2     -8.76      0.00
   15    3    2      0.99      0.00
   16    3    2      1.44      0.00
   17    3    2      0.83      0.00
   18    3    2     -8.79      0.00
  -25    4    2      2.07      0.00
  -24    4    2      4.38      0.00
  -23    4    2      1.40      0.00
  -22    4    2     -0.65      0.00
  -21    4    2      0.23      0.00
  -20    4    2      2.44      0.00
  -19    4    2     -2.33      0.00
  -18    4    2      2.41      0.00
  -17    4    2     -4.09      0.00
  -16    4    2      4.12      0.00
  -15    4    2     -0.82      0.00
  -14    4    2      1.46      0.00
  -13    4    2      6.33      0.00
    9    4    2     -0.80      0.00
   10    4    2     -2.87      0.00
   11    4    2     -9.16      0.00
   12    4    2     -4.34      0.00
   13    4    2     -4.96      0.00
   14    4    2      3.64      0.00
   15    4    2     -5.28      0.00
   16    4    2      3.27      0.00
  -24    5    2     -1.03      0.00
  -23    5    2      2.81      0.00
  -22    5    2      1.56      0.00
  -21    5    2     -0.37      0.00
  -20    5    2      1.01      0.00
  -19    5    2      1.36      0.00
  -18    5    2      2.67      0.00
  -17    5    2     -1.80      0.00
  -16    5    2      0.42      0.00
  -15    5    2      7.65      0.00
  -14    5    2      1.37      0.00
  -13    5    2      2.40      0.00
  -12    5    2     -0.84      0.00
   10    5    2      4.95      0.00
   11    5    2      4.09      0.00
   12    5    2      4.38      0.00
   13    5    2     -2.91      0.00
   14    5    2      2.67      0.00
   15    5    2     -2.77      0.00
   16    5    2      3.73      0.00
   17    5    2      3.38      0.00
  -23    6    2     -0.72      0.00
  -22    6    2     -5.64      0.00
  -21    6    2     -1.04      0.00
  -20    6    2     -1.57      0.00
  -19    6    2     -5.02      0.00
  -18    6    2     -1.71      0.00
  -17    6    2     -1.23      0.00
  -16    6    2     -4.36      0.00
  -15    6    2     -1.04      0.00
  -14    6    2      2.19      0.00
  -13    6    2      3.23      0.00
  -12    6    2     -2.12      0.00
  -11    6    2     -3.58      0.00
   10    6    2     -2.13      0.00
   11    6    2      5.77      0.00
   12    6    2      4.70      0.00
   13    6    2     -2.76      0.00
   14    6    2     -3.05      0.00
   15    6    2     -2.46      0.00
   16    6    2     -8.01      0.00
   17    6    2      4.78      0.00
   18    6    2      1.75      0.00
  -21    7    2     -0.27      0.00
  -20    7    2      0.49      0.00
  -19    7    2     -1.45      0.00
  -18    7    2     -5.40      0.00
  -17    7    2     -5.17      0.00
  -16    7    2     -6.48      0.00
  -15    7    2     -3.05      0.00
  -14    7    2     -1.30      0.00
  -13    7    2     -2.56      0.00
  -12    7    2      0.47      0.00
  -11    7    2      0.79      0.00
  -10    7    2     -2.49      0.00
   11    7    2     -6.05      0.00
   12    7    2      4.56      0.00
   13    7    2      3.27      0.00
   14    7    2     -1.68      0.00
   15    7    2     -0.47      0.00
   16    7    2     -6.63      0.00
   17    7    2     -3.48      0.00
  -19    8    2      4.63      0.00
  -18    8    2      3.06      0.00
  -17    8    2     -1.83      0.00
  -16    8    2     -2.23      0.00
  -15    8    2     -0.92      0.00
  -14    8    2     -0.80      0.00
  -13    8    2      1.63      0.00
  -12    8    2     -0.72      0.00
   11    8    2      3.77      0.00
   12    8    2      1.95      0.00
   13    8    2      4.07      0.00
   14    8    2      2.58      0.00
   15    8    2      2.97      0.00
  -27    1    3      0.59      0.00
  -26    1    3     -0.72      0.00
  -25    1    3     -1.52      0.00
  -24    1    3      2.70      0.00
  -23    1    3      1.63      0.00
  -22    1    3     -1.69      0.00
  -21    1    3     -0.04      0.00
  -20    1    3     -1.98      0.00
  -19    1    3     -0.01      0.00
  -18    1    3      3.27      0.00
  -17    1    3      0.51      0.00
  -16    1    3     -0.99      0.00
  -15    1    3     -3.94      0.00
  -14    1    3      5.61      0.00
  -13    1    3     -0.53      0.00
  -12    1    3    -10.06      0.00
  -11    1    3      6.84      0.00
  -10    1    3      4.61      0.00
   -9    1    3     -5.79      0.00
   -8    1    3     10.61      0.00
   -7    1    3     11.14      0.00
   -6    1    3    -22.70      0.00
   -5    1    3     -0.67      0.00
   -4    1    3     28.55      0.00
   -3    1    3     10.98      0.00
   -2    1    3    -25.43      0.00
   -1    1    3     -4.45      0.00
    0    1    3    -26.67      0.00
    1    1    3     -2.76      0.00
    2    1    3     20.99      0.00
    3    1    3     -0.78      0.00
    4    1    3     -2.43      0.00
    5    1    3     -3.15      0.00
    6    1    3     -0.05      0.00
    7    1    3     -0.47      0.00
    8    1    3     -4.65      0.00
    9    1    3     -0.38      0.00
   10    1    3      0.67      0.00
   11    1    3      3.81      0.00
   12    1    3     -3.11      0.00
   13    1    3      0.51      0.00
  -27    2    3      0.13      0.00
  -26    2    3     -0.44      0.00
  -25    2    3      0.78      0.00
  -24    2    3      1.96      0.00
  -23    2    3      2.85      0.00
  -22    2    3     -5.20      0.00
  -21    2    3      2.08      0.00
  -20    2    3     -1.46      0.00
  -19    2    3     -1.13      0.00
  -18    2    3     -0.66      0.00
  -17    2    3      0.00      0.00
  -16    2    3     -4.48      0.00
  -15    2    3     -4.32      0.00
  -14    2    3     -2.04      0.00
  -13    2    3     14.82      0.00
  -12    2    3     -9.65      0.00
   -8    2    3     -9.14      0.00
   -7    2    3     -1.07      0.00
   -6    2    3     -4.96      0.00
    0    2    3     10.20      0.00
    1    2    3    -27.72      0.00
    2    2    3      3.43      0.00
    3    2    3    -18.19      0.00
    4    2    3      1.78      0.00
    5    2    3     -1.94      0.00
    6    2    3      9.30      0.00
    7    2    3     -5.19      0.00
    8    2    3    -10.16      0.00
    9    2    3     -7.27      0.00
   10    2    3      8.76      0.00
   11    2    3      0.06      0.00
   12    2    3      3.63      0.00
   13    2    3    -13.26      0.00
   14    2    3     -0.19      0.00
  -27    3    3      0.73      0.00
  -26    3    3     -1.12      0.00
  -25    3    3      0.52      0.00
  -24    3    3     -2.62      0.00
  -23    3    3      4.70      0.00
  -22    3    3     -3.33      0.00
  -21    3    3     -1.36      0.00
  -20    3    3     -0.75      0.00
  -19    3    3     -3.28      0.00
  -18    3    3      1.22      0.00
  -17    3    3      4.59      0.00
  -16    3    3     -2.11      0.00
  -15    3    3     -0.83      0.00
  -14    3    3     -4.09      0.00
    4    3    3     10.06      0.00
    5    3    3      3.70      0.00
    6    3    3      2.48      0.00
    7    3    3      8.35      0.00
    8    3    3     -2.25      0.00
    9    3    3    -14.19      0.00
   10    3    3      6.27      0.00
   11    3    3      2.20      0.00
   12    3    3     -2.37      0.00
   13    3    3     -0.58      0.00
   14    3    3     -2.10      0.00
  -26    4    3     -0.40      0.00
  -25    4    3      0.34      0.00
  -24    4    3      1.73      0.00
  -23    4    3      0.30      0.00
  -22    4    3      4.30      0.00
  -21    4    3     -0.05      0.00
  -20    4    3      4.68      0.00
  -19    4    3     -2.91      0.00
  -18    4    3      3.05      0.00
  -17    4    3      3.10      0.00
  -16    4    3      4.86      0.00
  -15    4    3      2.61      0.00
  -14    4    3     -0.22      0.00
  -13    4    3      2.96      0.00
    6    4    3      3.63      0.00
    7    4    3     14.56      0.00
    8    4    3      3.84      0.00
    9    4    3     -5.24      0.00
   10    4    3     -2.92      0.00
   11    4    3      8.53      0.00
   12    4    3     -0.19      0.00
   13    4    3     -7.73      0.00
   14    4    3     -3.22      0.00
  -26    5    3      2.97      0.00
  -25    5    3     -4.93      0.00
  -24    5    3     -1.32      0.00
  -23    5    3     -0.79      0.00
  -22    5    3     -1.90      0.00
  -21    5    3      2.18      0.00
  -20    5    3      2.64      0.00
  -19    5    3     -3.25      0.00
  -18    5    3      0.68      0.00
  -17    5    3      3.89      0.00
  -16    5    3     -2.29      0.00
  -15    5    3      1.83      0.00
  -14    5    3      6.24      0.00
  -13    5    3     -2.09      0.00
  -12    5    3      2.61      0.00
    8    5    3      9.46      0.00
    9    5    3      1.11      0.00
   10    5    3      3.68      0.00
   11    5    3      5.25      0.00
   12    5    3     -1.34      0.00
   13    5    3      2.00      0.00
   14    5    3     -5.04      0.00
   15    5    3     -2.25      0.00
  -24    6    3     -7.44      0.00
  -23    6    3      1.86      0.00
  -22    6    3      2.23      0.00
  -21    6    3     -1.99      0.00
  -20    6    3      3.24      0.00
  -19    6    3     -3.20      0.00
  -18    6    3     -3.54      0.00
  -17    6    3      1.53      0.00
  -16    6    3      2.86      0.00
  -15    6    3     -8.24      0.00
  -14    6    3     -0.69      0.00
  -13    6    3      0.86      0.00
  -12    6    3     -0.40      0.00
  -11    6    3     -2.43      0.00
    8    6    3     -1.05      0.00
    9    6    3     -4.06      0.00
   10    6    3     -5.10      0.00
   11    6    3     12.03      0.00
   12    6    3      4.37      0.00
   13    6    3      2.79      0.00
   14    6    3      1.58      0.00
   15    6    3      4.51      0.00
   16    6    3      0.54      0.00
  -23    7    3     -8.66      0.00
  -22    7    3     -0.15      0.00
  -21    7    3     -0.69      0.00
  -20    7    3      2.59      0.00
  -19    7    3      2.78      0.00
  -18    7    3     -5.57      0.00
  -17    7    3      1.52      0.00
  -16    7    3      4.79      0.00
  -15    7    3      5.12      0.00
  -14    7    3     -4.90      0.00
  -13    7    3     -2.36      0.00
  -12    7    3      0.31      0.00
  -11    7    3     -2.72      0.00
    9    7    3      2.84      0.00
   10    7    3     -4.91      0.00
   11    7    3     -2.10      0.00
   12    7    3      3.35      0.00
   13    7    3      3.03      0.00
   14    7    3      0.20      0.00
   15    7    3     -0.95      0.00
   16    7    3      3.14      0.00
  -21    8    3     -4.36      0.00
  -20    8    3     -8.55      0.00
  -19    8    3      4.92      0.00
  -18    8    3     -2.24      0.00
  -17    8    3     -4.84      0.00
  -16    8    3      1.51      0.00
  -15    8    3      2.17      0.00
  -14    8    3      5.11      0.00
  -13    8    3     -1.02      0.00
   14    8    3      2.68      0.00
  -17    9    3     -7.90      0.00
  -16    9    3      0.80      0.00
  -28    0    4     -2.61      0.00
  -27    0    4     -2.62      0.00
  -26    0    4     -2.96      0.00
  -25    0    4     -1.02      0.00
  -24    0    4      1.22      0.00
  -23    0    4      0.57      0.00
  -22    0    4     -3.35      0.00
  -21    0    4      5.00      0.00
  -20    0    4     -2.72      0.00
  -19    0    4      8.40      0.00
  -18    0    4      4.71      0.00
  -17    0    4     -2.20      0.00
  -16    0    4     -5.38      0.00
  -15    0    4     -0.67      0.00
  -14    0    4     -2.46      0.00
  -13    0    4      1.24      0.00
  -12    0    4      3.53      0.00
  -11    0    4    -15.35      0.00
  -10    0    4     -4.83      0.00
   -9    0    4     18.82      0.00
   -8    0    4      9.59      0.00
   -4    0    4     16.22      0.00
   -3    0    4    -24.38      0.00
   -2    0    4    -13.18      0.00
   -1    0    4    -25.10      0.00
    0    0    4     -3.69      0.00
    1    0    4    -16.55      0.00
    2    0    4      5.60      0.00
    3    0    4     -8.10      0.00
    4    0    4     -7.25      0.00
    5    0    4    -24.01      0.00
    6    0    4     -9.25      0.00
    7    0    4     -1.23      0.00
    8    0    4     -5.14      0.00
    9    0    4     -0.96      0.00
   10    0    4     -6.50      0.00
   11    0    4     -3.02      0.00
   12    0    4     -7.71      0.00
   13    0    4     -2.23      0.00
  -28    1    4      0.38      0.00
  -27    1    4      2.52      0.00
  -26    1    4      4.32      0.00
  -25    1    4      3.59      0.00
  -24    1    4     -0.90      0.00
  -23    1    4      2.83      0.00
  -22    1    4     -1.04      0.00
  -21    1    4      4.00      0.00
  -20    1    4     -0.40      0.00
  -19    1    4     -3.80      0.00
  -18    1    4      1.65      0.00
  -17    1    4     -1.82      0.00
  -16    1    4      2.01      0.00
  -15    1    4     -3.06      0.00
  -14    1    4      3.03      0.00
  -13    1    4     -5.62      0.00
  -12    1    4      4.92      0.00
  -11    1    4      0.12      0.00
  -10    1    4     -4.13      0.00
   -9    1    4     -2.46      0.00
   -8    1    4      3.29      0.00
   -7    1    4     -8.43      0.00
   -6    1    4     29.67      0.00
   -5    1    4      5.18      0.00
   -4    1    4     13.42      0.00
   -3    1    4      1.28      0.00
   -2    1    4     10.91      0.00
   -1    1    4      0.03      0.00
    0    1    4     15.24      0.00
    1    1    4      6.31      0.00
    2    1    4    -12.66      0.00
    3    1    4      3.69      0.00
    4    1    4      4.44      0.00
    5    1    4     19.30      0.00
    6    1    4    -17.44      0.00
    7    1    4      0.45      0.00
    8    1    4    -10.24      0.00
    9    1    4     11.01      0.00
   10    1    4      1.89      0.00
   11    1    4      2.68      0.00
   12    1    4     -3.64      0.00
   13    1    4     -0.64      0.00
   14    1    4      0.60      0.00
  -28    2    4     -0.95      0.00
  -27    2    4     -3.44      0.00
  -26    2    4      2.42      0.00
  -25    2    4     -1.84      0.00
  -24    2    4      1.06      0.00
  -23    2    4     -5.58      0.00
  -22    2    4     -5.37      0.00
  -21    2    4     -2.93      0.00
  -20    2    4     -0.73      0.00
  -19    2    4      2.75      0.00
  -18    2    4     -0.44      0.00
  -17    2    4     -2.81      0.00
  -16    2    4     -1.10      0.00
  -15    2    4      5.86      0.00
  -14    2    4      1.38      0.00
  -13    2    4     -0.28      0.00
   -8    2    4      2.61      0.00
   -7    2    4    -12.07      0.00
   -6    2    4    -12.15      0.00
   -5    2    4     20.38      0.00
   -4    2    4     10.90      0.00
   -3    2    4     11.88      0.00
   -2    2    4      0.54      0.00
   -1    2    4     12.00      0.00
    0    2    4      4.00      0.00
    1    2    4     27.10      0.00
    2    2    4     14.97      0.00
    3    2    4     12.18      0.00
    4    2    4     -7.14      0.00
    5    2    4      4.41      0.00
    6    2    4      5.47      0.00
    7    2    4     -0.27      0.00
    8    2    4      1.54      0.00
    9    2    4     -1.71      0.00
   10    2    4     11.16      0.00
   11    2    4      2.85      0.00
   12    2    4      3.21      0.00
   13    2    4      2.03      0.00
   14    2    4     -2.18      0.00
  -28    3    4     -4.03      0.00
  -27    3    4     -1.32      0.00
  -26    3    4      0.77      0.00
  -25    3    4      0.62      0.00
  -24    3    4     -3.61      0.00
  -23    3    4      1.23      0.00
  -22    3    4     -3.38      0.00
  -21    3    4     -1.34      0.00
  -20    3    4     -5.27      0.00
  -19    3    4      0.25      0.00
  -18    3    4      6.07      0.00
  -17    3    4     -0.01      0.00
  -16    3    4     -5.53      0.00
  -15    3    4      2.63      0.00
  -14    3    4      5.18      0.00
  -13    3    4     -7.88      0.00
   -8    3    4     -0.60      0.00
   -7    3    4     -1.72      0.00
    0    3    4     -2.67      0.00
    1    3    4     -2.46      0.00
    2    3    4    -11.00      0.00
    3    3    4     -0.42      0.00
    4    3    4     18.79      0.00
    5    3    4      3.12      0.00
    6    3    4      4.20      0.00
    7    3    4    -17.10      0.00
    8    3    4     -4.48      0.00
    9    3    4      1.17      0.00
   10    3    4      2.63      0.00
   11    3    4      3.52      0.00
   12    3    4     -7.11      0.00
   13    3    4     -2.13      0.00
   14    3    4      1.04      0.00
  -27    4    4     -0.18      0.00
  -26    4    4      6.31      0.00
  -25    4    4      1.68      0.00
  -24    4    4      1.41      0.00
  -23    4    4      2.06      0.00
  -22    4    4      6.98      0.00
  -21    4    4      4.87      0.00
  -20    4    4      0.73      0.00
  -19    4    4     -2.66      0.00
  -18    4    4      1.73      0.00
  -17    4    4      5.56      0.00
  -16    4    4     -1.06      0.00
  -15    4    4     -1.35      0.00
  -14    4    4      2.22      0.00
  -13    4    4     -0.88      0.00
  -12    4    4     -7.33      0.00
    2    4    4     -6.44      0.00
    3    4    4     -7.55      0.00
    4    4    4     -1.00      0.00
    5    4    4      3.42      0.00
    6    4    4      7.75      0.00
    7    4    4      6.99      0.00
    8    4    4     -4.69      0.00
    9    4    4      0.41      0.00
   10    4    4     -2.11      0.00
   11    4    4     -1.30      0.00
   12    4    4      1.25      0.00
   13    4    4     -4.16      0.00
   14    4    4     -5.05      0.00
  -27    5    4     -8.54      0.00
  -26    5    4      3.19      0.00
  -25    5    4      4.50      0.00
  -24    5    4     -0.89      0.00
  -23    5    4      3.33      0.00
  -22    5    4     -0.71      0.00
  -21    5    4      3.87      0.00
  -20    5    4     -0.64      0.00
  -19    5    4      1.63      0.00
  -18    5    4     -2.05      0.00
  -17    5    4     -2.71      0.00
  -16    5    4      1.09      0.00
  -15    5    4      1.13      0.00
  -14    5    4      2.29      0.00
  -13    5    4      1.78      0.00
  -12    5    4     -2.48      0.00
  -11    5    4      0.15      0.00
    5    5    4     -1.33      0.00
    6    5    4      0.59      0.00
    7    5    4     -3.53      0.00
    8    5    4     -1.90      0.00
    9    5    4      1.09      0.00
   10    5    4      2.34      0.00
   11    5    4     -3.29      0.00
   12    5    4      1.02      0.00
   13    5    4      2.11      0.00
   14    5    4      3.47      0.00
  -26    6    4     -9.68      0.00
  -25    6    4      3.49      0.00
  -24    6    4     -8.07      0.00
  -23    6    4     -0.46      0.00
  -22    6    4      0.43      0.00
  -21    6    4     -1.12      0.00
  -20    6    4     -1.91      0.00
  -19    6    4     -1.24      0.00
  -18    6    4      3.72      0.00
  -17    6    4     -1.96      0.00
  -16    6    4      2.41      0.00
  -15    6    4     -3.17      0.00
  -14    6    4      2.68      0.00
  -13    6    4     -1.02      0.00
  -12    6    4     -0.96      0.00
  -11    6    4     -2.59      0.00
  -10    6    4     -0.21      0.00
    6    6    4      1.73      0.00
    7    6    4      0.82      0.00
    8    6    4     -1.83      0.00
    9    6    4      2.72      0.00
   10    6    4      0.84      0.00
   11    6    4     -1.77      0.00
   12    6    4     -2.55      0.00
   13    6    4      0.07      0.00
   14    6    4     -1.22      0.00
  -24    7    4      0.08      0.00
  -23    7    4     -5.45      0.00
  -22    7    4     -0.31      0.00
  -21    7    4     -2.91      0.00
  -20    7    4     -1.01      0.00
  -19    7    4      0.85      0.00
  -18    7    4      3.78      0.00
  -17    7    4     -5.71      0.00
  -16    7    4      3.38      0.00
  -15    7    4      2.26      0.00
  -14    7    4     -2.15      0.00
  -13    7    4     -0.51      0.00
  -12    7    4     -1.60      0.00
  -11    7    4     -3.18      0.00
   12    7    4      0.73      0.00
   13    7    4      0.83      0.00
   14    7    4     -0.68      0.00
  -22    8    4      3.84      0.00
  -21    8    4     -1.13      0.00
  -20    8    4     -0.59      0.00
  -19    8    4     -3.46      0.00
  -18    8    4      3.69      0.00
  -17    8    4      1.50      0.00
  -16    8    4     -1.11      0.00
  -15    8    4      2.15      0.00
  -14    8    4     -1.22      0.00
  -13    8    4      1.78      0.00
   12    8    4      2.04      0.00
   13    8    4     -1.07      0.00
   14    8    4      6.06      0.00
  -19    9    4      4.58      0.00
  -18    9    4     -1.66      0.00
  -17    9    4     -2.40      0.00
  -29    1    5      2.21      0.00
  -28    1    5     -2.17      0.00
  -27    1    5      2.15      0.00
  -26    1    5      1.81      0.00
  -25    1    5      2.16      0.00
  -24    1    5     -1.07      0.00
  -23    1    5      1.69      0.00
  -22    1    5     -3.09      0.00
  -21    1    5     -8.27      0.00
  -20    1    5      2.39      0.00
  -19    1    5      2.91      0.00
  -18    1    5      1.20      0.00
  -17    1    5     -5.31      0.00
  -16    1    5     -1.43      0.00
  -15    1    5      4.53      0.00
  -14    1    5     -2.41      0.00
  -13    1    5     -1.66      0.00
  -12    1    5     -2.05      0.00
  -11    1    5     -3.73      0.00
  -10    1    5      2.50      0.00
   -9    1    5     -1.11      0.00
   -8    1    5     -5.28      0.00
   -7    1    5    -13.19      0.00
   -6    1    5     -1.74      0.00
   -5    1    5     13.43      0.00
   -4    1    5     -0.81      0.00
   -3    1    5    -14.51      0.00
   -2    1    5      5.37      0.00
   -1    1    5     18.33      0.00
    0    1    5      2.00      0.00
    1    1    5     14.92      0.00
    2    1    5     -8.00      0.00
    3    1    5      8.60      0.00
    4    1    5      1.27      0.00
    5    1    5      4.49      0.00
    6    1    5     -0.38      0.00
    7    1    5      4.02      0.00
    8    1    5      4.50      0.00
    9    1    5      2.82      0.00
   10    1    5      2.63      0.00
   11    1    5     -3.20      0.00
   12    1    5     -3.11      0.00
   13    1    5     -3.00      0.00
   14    1    5      4.16      0.00
  -29    2    5     -2.54      0.00
  -28    2    5      0.91      0.00
  -27    2    5      1.75      0.00
  -26    2    5      3.17      0.00
  -25    2    5      0.14      0.00
  -24    2    5      1.49      0.00
  -23    2    5      2.38      0.00
  -22    2    5     13.57      0.00
  -21    2    5     -3.07      0.00
  -20    2    5     -6.22      0.00
  -19    2    5     -0.91      0.00
  -18    2    5     -2.22      0.00
  -17    2    5      3.02      0.00
  -16    2    5     -0.83      0.00
  -15    2    5      2.72      0.00
  -14    2    5     -3.95      0.00
  -13    2    5     -3.02      0.00
   -8    2    5     -7.92      0.00
   -7    2    5      1.21      0.00
   -6    2    5     -6.66      0.00
   -5    2    5     -5.79      0.00
   -4    2    5     -6.89      0.00
   -3    2    5     -8.09      0.00
   -2    2    5    -16.91      0.00
   -1    2    5     11.95      0.00
    0    2    5      2.58      0.00
    1    2    5     -5.01      0.00
    2    2    5    -16.26      0.00
    3    2    5     -5.73      0.00
    4    2    5     18.99      0.00
    5    2    5     -4.79      0.00
    6    2    5    -16.13      0.00
    7    2    5    -12.50      0.00
    8    2    5      7.31      0.00
    9    2    5      6.69      0.00
   10    2    5      1.36      0.00
   11    2    5     -1.07      0.00
   12    2    5      1.90      0.00
   13    2    5     -1.28      0.00
   14    2    5      3.55      0.00
  -29    3    5     -7.94      0.00
  -28    3    5     -2.61      0.00
  -27    3    5     -1.62      0.00
  -26    3    5      0.81      0.00
  -25    3    5     -6.54      0.00
  -24    3    5      4.00      0.00
  -23    3    5     -3.97      0.00
  -22    3    5      5.90      0.00
  -21    3    5      8.96      0.00
  -20    3    5     -0.60      0.00
  -19    3    5      6.82      0.00
  -18    3    5     -4.71      0.00
  -17    3    5     -3.19      0.00
  -16    3    5     -2.21      0.00
  -15    3    5      5.40      0.00
  -14    3    5      0.15      0.00
   -8    3    5      4.77      0.00
   -7    3    5     -2.88      0.00
   -6    3    5      1.60      0.00
   -5    3    5      4.27      0.00
   -4    3    5     -2.39      0.00
   -3    3    5    -10.02      0.00
   -2    3    5     -8.69      0.00
   -1    3    5    -15.81      0.00
    0    3    5      4.63      0.00
    1    3    5     -8.09      0.00
    2    3    5      5.57      0.00
    3    3    5    -26.88      0.00
    4    3    5     -6.92      0.00
    5    3    5      2.51      0.00
    6    3    5     -2.54      0.00
    7    3    5    -10.08      0.00
    8    3    5     -6.37      0.00
    9    3    5      2.43      0.00
   10    3    5     -0.81      0.00
   11    3    5      0.06      0.00
   12    3    5      1.47      0.00
   13    3    5      7.53      0.00
   14    3    5     -1.13      0.00
  -28    4    5     -4.33      0.00
  -27    4    5      0.94      0.00
  -26    4    5      2.65      0.00
  -25    4    5     -3.41      0.00
  -24    4    5     -3.01      0.00
  -23    4    5      2.98      0.00
  -22    4    5     -3.92      0.00
  -21    4    5      3.06      0.00
  -20    4    5     -3.33      0.00
  -19    4    5      4.56      0.00
  -18    4    5      2.52      0.00
  -17    4    5     -1.17      0.00
  -16    4    5     -0.04      0.00
  -15    4    5     -2.00      0.00
  -14    4    5      1.58      0.00
  -13    4    5     -5.85      0.00
  -12    4    5      1.61      0.00
   -8    4    5      7.90      0.00
   -7    4    5      4.72      0.00
   -6    4    5      2.64      0.00
    3    4    5     14.65      0.00
    4    4    5      3.06      0.00
    5    4    5      1.01      0.00
    6    4    5     -5.13      0.00
    7    4    5     -5.82      0.00
    8    4    5      4.15      0.00
    9    4    5      3.40      0.00
   10    4    5      1.98      0.00
   11    4    5     -4.72      0.00
   12    4    5     -4.06      0.00
   13    4    5     -1.87      0.00
   14    4    5      0.97      0.00
  -27    5    5      1.51      0.00
  -26    5    5      0.99      0.00
  -25    5    5      0.68      0.00
  -24    5    5     -3.08      0.00
  -23    5    5      4.15      0.00
  -22    5    5      1.27      0.00
  -21    5    5      0.59      0.00
  -20    5    5      0.46      0.00
  -19    5    5      2.03      0.00
  -18    5    5      4.62      0.00
  -17    5    5     -1.91      0.00
  -16    5    5      3.20      0.00
  -15    5    5      0.75      0.00
  -14    5    5     -1.61      0.00
  -13    5    5     -3.56      0.00
  -12    5    5     -2.82      0.00
  -11    5    5     -0.70      0.00
   -8    5    5     -1.41      0.00
    6    5    5      3.60      0.00
    7    5    5     -3.85      0.00
    8    5    5     -1.10      0.00
    9    5    5     -4.72      0.00
   10    5    5     -0.33      0.00
   11    5    5      0.75      0.00
   12    5    5      2.51      0.00
   13    5    5      1.48      0.00
   14    5    5     -3.33      0.00
   15    5    5     -2.24      0.00
  -26    6    5     -1.98      0.00
  -25    6    5     -2.67      0.00
  -24    6    5     -1.99      0.00
  -23    6    5     -1.54      0.00
  -22    6    5     -0.86      0.00
  -21    6    5     -1.06      0.00
  -20    6    5     -0.72      0.00
  -19    6    5      0.95      0.00
  -18    6    5      1.17      0.00
  -17    6    5     -2.15      0.00
  -16    6    5      2.72      0.00
  -15    6    5      0.33      0.00
  -14    6    5      0.59      0.00
  -13    6    5     -0.86      0.00
  -12    6    5     -1.41      0.00
  -11    6    5      2.04      0.00
  -10    6    5     -0.18      0.00
    7    6    5     -2.34      0.00
    9    6    5     -1.50      0.00
   10    6    5     -4.21      0.00
   11    6    5     -2.29      0.00
   12    6    5     -4.23      0.00
   13    6    5      3.40      0.00
   14    6    5      5.70      0.00
  -25    7    5     -0.15      0.00
  -24    7    5     -2.24      0.00
  -23    7    5      1.67      0.00
  -22    7    5     -0.61      0.00
  -21    7    5     -2.31      0.00
  -20    7    5     -1.01      0.00
  -19    7    5     -1.50      0.00
  -18    7    5      1.35      0.00
  -17    7    5     -4.00      0.00
  -16    7    5     -1.66      0.00
  -15    7    5     -1.95      0.00
  -14    7    5     -4.09      0.00
  -13    7    5      0.63      0.00
  -12    7    5     -0.08      0.00
  -11    7    5     -1.31      0.00
   10    7    5     -5.35      0.00
   11    7    5      2.60      0.00
   12    7    5     -5.20      0.00
   13    7    5     -7.24      0.00
   14    7    5      1.13      0.00
  -23    8    5      0.03      0.00
  -22    8    5      0.06      0.00
  -21    8    5     -1.05      0.00
  -20    8    5      2.33      0.00
  -19    8    5      2.51      0.00
  -18    8    5     -4.41      0.00
  -17    8    5      2.27      0.00
  -16    8    5      1.89      0.00
  -15    8    5      3.23      0.00
  -14    8    5     -2.74      0.00
   10    8    5      1.26      0.00
   11    8    5      3.33      0.00
   12    8    5      1.07      0.00
   13    8    5     -2.76      0.00
  -20    9    5     -2.15      0.00
  -19    9    5      6.36      0.00
  -18    9    5      2.00      0.00
   10    9    5      3.49      0.00
  -29    0    6     -0.68      0.00
  -28    0    6      0.86      0.00
  -27    0    6      2.20      0.00
  -26    0    6     -0.13      0.00
  -25    0    6     -6.34      0.00
  -24    0    6      0.30      0.00
  -23    0    6     -6.71      0.00
  -22    0    6     -0.99      0.00
  -21    0    6     -1.37      0.00
  -20    0    6      3.39      0.00
  -19    0    6     -4.91      0.00
  -18    0    6     -2.30      0.00
  -17    0    6     -2.04      0.00
  -15    0    6      1.84      0.00
  -14    0    6     -4.20      0.00
  -13    0    6     -1.08      0.00
  -12    0    6     -4.96      0.00
  -11    0    6      4.65      0.00
  -10    0    6    -17.06      0.00
   -9    0    6     -7.14      0.00
   -5    0    6     -1.02      0.00
   -4    0    6      0.80      0.00
   -3    0    6    -17.44      0.00
   -2    0    6     17.08      0.00
   -1    0    6      3.62      0.00
    0    0    6     -1.38      0.00
    1    0    6      0.90      0.00
    2    0    6    -35.55      0.00
    3    0    6      5.28      0.00
    4    0    6     -3.84      0.00
    5    0    6      9.60      0.00
    6    0    6      4.25      0.00
    7    0    6     -5.73      0.00
    8    0    6      8.30      0.00
    9    0    6      9.45      0.00
   10    0    6     10.11      0.00
   11    0    6      3.41      0.00
   12    0    6     -1.74      0.00
   13    0    6     -2.25      0.00
  -29    1    6      1.89      0.00
  -28    1    6      0.50      0.00
  -27    1    6      3.15      0.00
  -26    1    6      1.19      0.00
  -25    1    6      2.27      0.00
  -24    1    6      2.00      0.00
  -23    1    6      3.30      0.00
  -22    1    6      0.18      0.00
  -21    1    6      0.65      0.00
  -20    1    6      1.37      0.00
  -19    1    6     -1.08      0.00
  -18    1    6      0.23      0.00
  -17    1    6     -2.47      0.00
  -16    1    6      1.26      0.00
  -15    1    6     -4.44      0.00
  -14    1    6      2.41      0.00
  -13    1    6      1.37      0.00
  -12    1    6      5.14      0.00
  -11    1    6      3.75      0.00
  -10    1    6      5.27      0.00
   -9    1    6    -11.50      0.00
   -8    1    6     -0.80      0.00
   -7    1    6     -2.82      0.00
   -6    1    6      9.36      0.00
   -5    1    6     -5.41      0.00
   -4    1    6      7.86      0.00
   -3    1    6      1.08      0.00
   -2    1    6     -3.56      0.00
   -1    1    6     20.70      0.00
    0    1    6     -8.32      0.00
    1    1    6     14.45      0.00
    2    1    6     -0.08      0.00
    3    1    6      5.06      0.00
    4    1    6     -2.35      0.00
    5    1    6    -14.42      0.00
    6    1    6      5.88      0.00
    7    1    6     -0.70      0.00
    8    1    6     -4.44      0.00
    9    1    6     -1.54      0.00
   10    1    6     -5.53      0.00
   11    1    6      4.15      0.00
   12    1    6      1.06      0.00
   13    1    6      2.76      0.00
   14    1    6     -2.56      0.00
  -29    2    6     -0.94      0.00
  -28    2    6      2.37      0.00
  -27    2    6      4.97      0.00
  -26    2    6     -0.97      0.00
  -25    2    6      1.44      0.00
  -24    2    6      6.47      0.00
  -23    2    6      1.82      0.00
  -22    2    6     -0.15      0.00
  -21    2    6      1.28      0.00
  -20    2    6      4.61      0.00
  -19    2    6      1.69      0.00
  -18    2    6     -2.02      0.00
  -17    2    6     -0.93      0.00
  -16    2    6      0.11      0.00
  -15    2    6     -0.89      0.00
  -14    2    6     -2.32      0.00
   -8    2    6     -0.26      0.00
   -7    2    6     -1.66      0.00
   -6    2    6     -0.58      0.00
   -5    2    6     -1.34      0.00
   -4    2    6     -4.38      0.00
   -3    2    6      0.80      0.00
   -2    2    6     -2.06      0.00
   -1    2    6      8.23      0.00
    0    2    6      8.31      0.00
    1    2    6     -3.22      0.00
    2    2    6      3.28      0.00
    3    2    6      2.57      0.00
    4    2    6     12.78      0.00
    5    2    6     -7.89      0.00
    6    2    6     -0.90      0.00
    7    2    6      4.30      0.00
    8    2    6     -7.94      0.00
    9    2    6      0.79      0.00
   10    2    6     -0.67      0.00
   11    2    6     -3.68      0.00
   12    2    6     -0.65      0.00
   13    2    6     -1.66      0.00
   14    2    6     -2.18      0.00
  -29    3    6     -7.53      0.00
  -28    3    6      0.83      0.00
  -27    3    6     -0.09      0.00
  -26    3    6     -0.37      0.00
  -25    3    6     -7.07      0.00
  -24    3    6      1.42      0.00
  -23    3    6      1.71      0.00
  -22    3    6     -2.84      0.00
  -21    3    6     -5.31      0.00
  -20    3    6     -4.83      0.00
  -19    3    6      3.25      0.00
  -18    3    6      0.24      0.00
  -17    3    6      8.24      0.00
  -16    3    6      0.48      0.00
  -15    3    6      1.95      0.00
   -8    3    6     -2.23      0.00
   -7    3    6      1.25      0.00
   -6    3    6     -1.56      0.00
   -5    3    6     -7.11      0.00
   -4    3    6     -6.26      0.00
   -3    3    6      6.81      0.00
   -2    3    6     -2.85      0.00
   -1    3    6      5.04      0.00
    0    3    6     -2.03      0.00
    1    3    6    -10.65      0.00
    2    3    6      3.16      0.00
    3    3    6     16.83      0.00
    4    3    6      8.18      0.00
    5    3    6     -9.09      0.00
    6    3    6     -6.35      0.00
    7    3    6     21.79      0.00
    8    3    6      8.20      0.00
    9    3    6     -4.05      0.00
   10    3    6      0.49      0.00
   11    3    6      7.97      0.00
   12    3    6      3.75      0.00
   13    3    6      6.75      0.00
   14    3    6     -0.17      0.00
  -29    4    6     -3.24      0.00
  -28    4    6      0.71      0.00
  -27    4    6      0.04      0.00
  -26    4    6     -2.74      0.00
  -25    4    6     -3.70      0.00
  -24    4    6      0.41      0.00
  -23    4    6      2.52      0.00
  -22    4    6     -1.27      0.00
  -21    4    6      1.92      0.00
  -20    4    6     -1.13      0.00
  -19    4    6      0.05      0.00
  -18    4    6     -4.25      0.00
  -17    4    6      1.82      0.00
  -16    4    6      0.59      0.00
  -15    4    6      2.67      0.00
  -14    4    6      0.01      0.00
   -8    4    6     -0.69      0.00
   -7    4    6      2.87      0.00
   -6    4    6     -2.02      0.00
   -5    4    6      4.32      0.00
   -4    4    6     -4.61      0.00
   -3    4    6     -0.87      0.00
   -2    4    6     -2.47      0.00
   -1    4    6     -4.18      0.00
    0    4    6      7.05      0.00
    1    4    6    -10.54      0.00
    2    4    6    -16.84      0.00
    3    4    6     -8.22      0.00
    4    4    6      6.10      0.00
    5    4    6     -1.21      0.00
    6    4    6    -11.99      0.00
    7    4    6     -0.92      0.00
    8    4    6      8.03      0.00
    9    4    6     -2.94      0.00
   10    4    6     -1.37      0.00
   11    4    6     -0.65      0.00
   12    4    6      3.68      0.00
   13    4    6     -1.92      0.00
   14    4    6      6.31      0.00
  -28    5    6     -4.07      0.00
  -27    5    6      1.00      0.00
  -26    5    6      0.27      0.00
  -25    5    6     -0.93      0.00
  -24    5    6      2.97      0.00
  -23    5    6      2.84      0.00
  -22    5    6     -0.71      0.00
  -21    5    6     -0.73      0.00
  -20    5    6     -0.22      0.00
  -19    5    6      2.35      0.00
  -18    5    6     -3.29      0.00
  -17    5    6      1.22      0.00
  -16    5    6      1.71      0.00
  -15    5    6     -6.91      0.00
  -14    5    6     -3.47      0.00
  -13    5    6      1.88      0.00
  -12    5    6      6.85      0.00
  -11    5    6     -1.18      0.00
   -7    5    6      3.73      0.00
   -6    5    6      1.72      0.00
   -5    5    6     -3.97      0.00
   -4    5    6      6.23      0.00
    4    5    6     -6.05      0.00
    5    5    6     -8.20      0.00
    6    5    6     -6.74      0.00
    7    5    6     -3.36      0.00
    8    5    6      3.16      0.00
    9    5    6     -7.09      0.00
   10    5    6     -2.98      0.00
   11    5    6     -0.07      0.00
   12    5    6      1.99      0.00
   13    5    6     -4.34      0.00
   14    5    6     -2.77      0.00
   15    5    6      1.24      0.00
  -27    6    6      2.43      0.00
  -26    6    6     -2.36      0.00
  -25    6    6     -4.58      0.00
  -24    6    6     -1.06      0.00
  -23    6    6      5.58      0.00
  -22    6    6      0.79      0.00
  -21    6    6      1.59      0.00
  -20    6    6      0.11      0.00
  -19    6    6     -3.09      0.00
  -18    6    6     -0.76      0.00
  -17    6    6     -4.77      0.00
  -16    6    6      1.99      0.00
  -15    6    6      2.44      0.00
  -14    6    6      0.61      0.00
  -13    6    6     -1.06      0.00
  -12    6    6     -0.20      0.00
  -11    6    6      4.23      0.00
  -10    6    6      5.19      0.00
   -9    6    6     -1.06      0.00
   -7    6    6      1.84      0.00
    5    6    6      0.68      0.00
    6    6    6     -2.89      0.00
    7    6    6      1.52      0.00
    8    6    6     -2.19      0.00
    9    6    6      0.98      0.00
   10    6    6     -6.63      0.00
   11    6    6      1.66      0.00
   12    6    6     -3.67      0.00
   13    6    6      5.11      0.00
   14    6    6     -2.21      0.00
  -26    7    6      6.50      0.00
  -25    7    6      2.91      0.00
  -24    7    6     -4.00      0.00
  -23    7    6     -2.20      0.00
  -22    7    6     -3.52      0.00
  -21    7    6     -1.04      0.00
  -20    7    6      7.08      0.00
  -19    7    6     -2.73      0.00
  -18    7    6     -2.81      0.00
  -17    7    6      4.20      0.00
  -16    7    6     -0.29      0.00
  -15    7    6     -8.52      0.00
  -14    7    6      2.52      0.00
  -13    7    6      5.15      0.00
  -12    7    6      4.34      0.00
  -11    7    6     -6.07      0.00
    7    7    6      1.10      0.00
    8    7    6     -0.02      0.00
    9    7    6     -0.97      0.00
   10    7    6     -0.60      0.00
   11    7    6      0.00      0.00
   12    7    6     -3.12      0.00
   13    7    6     -5.24      0.00
  -24    8    6      4.05      0.00
  -23    8    6      4.53      0.00
  -22    8    6      0.44      0.00
  -21    8    6     -5.44      0.00
  -20    8    6      0.42      0.00
  -19    8    6      3.55      0.00
  -18    8    6     -7.18      0.00
  -17    8    6     -2.63      0.00
  -16    8    6      4.51      0.00
  -15    8    6     -7.13      0.00
  -14    8    6     -8.61      0.00
    7    8    6     -2.05      0.00
    8    8    6      1.05      0.00
    9    8    6     -3.55      0.00
   10    8    6      6.81      0.00
   11    8    6     -4.65      0.00
  -21    9    6      4.30      0.00
  -20    9    6      4.23      0.00
  -19    9    6      3.63      0.00
    7    9    6      7.92      0.00
    8    9    6      3.83      0.00
  -29    1    7      1.67      0.00
  -28    1    7      0.95      0.00
  -27    1    7      0.12      0.00
  -26    1    7     -1.14      0.00
  -25    1    7      4.02      0.00
  -24    1    7      0.52      0.00
  -23    1    7     -0.93      0.00
  -22    1    7      1.03      0.00
  -21    1    7     -0.40      0.00
  -20    1    7      2.56      0.00
  -19    1    7     -5.82      0.00
  -18    1    7     -4.57      0.00
  -17    1    7      3.76      0.00
  -16    1    7      3.54      0.00
  -15    1    7     -7.26      0.00
  -14    1    7     -6.05      0.00
  -13    1    7      4.26      0.00
  -12    1    7      4.68      0.00
   -7    1    7      2.28      0.00
   -6    1    7     -0.66      0.00
   -5    1    7      2.07      0.00
   -4    1    7     -7.64      0.00
   -3    1    7      2.94      0.00
   -2    1    7      5.25      0.00
   -1    1    7      5.50      0.00
    0    1    7     -4.58      0.00
    1    1    7    -11.72      0.00
    2    1    7      3.23      0.00
    3    1    7     12.71      0.00
    4    1    7     -0.86      0.00
    5    1    7     -3.84      0.00
    6    1    7      0.76      0.00
    7    1    7      6.45      0.00
    8    1    7      2.37      0.00
    9    1    7     -3.60      0.00
   10    1    7      0.03      0.00
   11    1    7      3.08      0.00
   12    1    7      5.68      0.00
   13    1    7      0.22      0.00
   14    1    7      1.93      0.00
  -29    2    7      0.48      0.00
  -28    2    7      2.82      0.00
  -27    2    7     -0.47      0.00
  -26    2    7     -1.63      0.00
  -25    2    7     -0.42      0.00
  -24    2    7      3.11      0.00
  -23    2    7     -0.67      0.00
  -22    2    7      0.46      0.00
  -21    2    7     -1.39      0.00
  -20    2    7      1.51      0.00
  -19    2    7      5.74      0.00
  -18    2    7      0.99      0.00
  -17    2    7     -2.03      0.00
  -16    2    7      2.34      0.00
  -15    2    7      0.63      0.00
  -14    2    7     -2.79      0.00
   -8    2    7      2.48      0.00
   -7    2    7      0.02      0.00
   -6    2    7     -3.01      0.00
   -5    2    7      0.65      0.00
   -4    2    7      8.25      0.00
   -3    2    7     -1.85      0.00
   -2    2    7      3.29      0.00
   -1    2    7     -4.86      0.00
    0    2    7      2.17      0.00
    1    2    7     -2.33      0.00
    2    2    7      5.07      0.00
    3    2    7      8.23      0.00
    4    2    7     -4.23      0.00
    5    2    7     -5.86      0.00
    6    2    7     10.33      0.00
    7    2    7      6.08      0.00
    8    2    7      5.40      0.00
    9    2    7     -5.90      0.00
   10    2    7      1.25      0.00
   11    2    7     -0.23      0.00
   12    2    7      3.73      0.00
   13    2    7      0.56      0.00
   14    2    7      8.00      0.00
  -29    3    7      0.13      0.00
  -28    3    7      1.77      0.00
  -27    3    7     -2.85      0.00
  -26    3    7      0.14      0.00
  -25    3    7      3.37      0.00
  -24    3    7      0.99      0.00
  -23    3    7      1.30      0.00
  -22    3    7     -1.93      0.00
  -21    3    7     -0.92      0.00
  -20    3    7      0.74      0.00
  -19    3    7     -2.10      0.00
  -18    3    7      1.58      0.00
  -17    3    7      2.27      0.00
  -16    3    7      4.47      0.00
  -15    3    7      0.93      0.00
   -8    3    7      4.12      0.00
   -7    3    7      2.73      0.00
   -6    3    7     -1.04      0.00
   -5    3    7     -6.32      0.00
   -4    3    7      0.72      0.00
   -3    3    7     -2.44      0.00
   -2    3    7      7.97      0.00
   -1    3    7     -3.41      0.00
    0    3    7     -6.63      0.00
    1    3    7     -7.96      0.00
    2    3    7     -4.62      0.00
    3    3    7      2.34      0.00
    4    3    7      1.99      0.00
    5    3    7     -9.47      0.00
    6    3    7     -3.26      0.00
    7    3    7      4.65      0.00
    8    3    7     -2.18      0.00
    9    3    7     -1.37      0.00
   10    3    7     -7.67      0.00
   11    3    7      3.54      0.00
   12    3    7     -1.43      0.00
   13    3    7     -3.70      0.00
   14    3    7     -0.94      0.00
  -29    4    7     -0.37      0.00
  -28    4    7      2.47      0.00
  -27    4    7      0.74      0.00
  -26    4    7     -1.64      0.00
  -25    4    7      1.99      0.00
  -24    4    7     -0.10      0.00
  -23    4    7     -2.79      0.00
  -22    4    7      6.42      0.00
  -21    4    7     -5.36      0.00
  -20    4    7     -0.48      0.00
  -19    4    7     -0.96      0.00
  -18    4    7     -1.03      0.00
  -17    4    7     -2.89      0.00
  -16    4    7     -2.21      0.00
  -15    4    7     -0.13      0.00
   -7    4    7      3.92      0.00
   -6    4    7     -4.56      0.00
   -5    4    7     -0.99      0.00
   -4    4    7     -0.70      0.00
   -3    4    7     -1.90      0.00
   -2    4    7     -7.05      0.00
   -1    4    7      2.73      0.00
    0    4    7     -5.59      0.00
    1    4    7     -3.96      0.00
    2    4    7     -0.71      0.00
    3    4    7     -4.27      0.00
    4    4    7     -9.58      0.00
    5    4    7     -7.05      0.00
    6    4    7     -3.30      0.00
    7    4    7      6.26      0.00
    8    4    7     -1.76      0.00
    9    4    7     -1.87      0.00
   10    4    7      1.32      0.00
   11    4    7     -1.84      0.00
   12    4    7      0.31      0.00
   13    4    7      0.19      0.00
   14    4    7     -0.42      0.00
  -28    5    7     -2.02      0.00
  -27    5    7     -0.59      0.00
  -26    5    7     -2.55      0.00
  -25    5    7      1.91      0.00
  -24    5    7      3.30      0.00
  -23    5    7     -6.02      0.00
  -22    5    7     -2.61      0.00
  -21    5    7     -0.19      0.00
  -20    5    7     -2.46      0.00
  -19    5    7     -2.73      0.00
  -18    5    7     -5.77      0.00
  -17    5    7      0.48      0.00
  -16    5    7     -4.56      0.00
  -15    5    7     -0.36      0.00
  -14    5    7     -2.98      0.00
  -13    5    7      0.05      0.00
   -7    5    7     -5.00      0.00
   -6    5    7      1.17      0.00
   -5    5    7     -4.17      0.00
   -4    5    7      0.72      0.00
   -3    5    7      4.71      0.00
   -2    5    7     -0.69      0.00
   -1    5    7      0.56      0.00
    0    5    7      2.22      0.00
    1    5    7      6.55      0.00
    2    5    7      6.23      0.00
    3    5    7      3.94      0.00
    4    5    7      3.38      0.00
    5    5    7      3.15      0.00
    6    5    7      1.17      0.00
    7    5    7     -3.48      0.00
    8    5    7      2.87      0.00
    9    5    7     -7.86      0.00
   10    5    7      3.07      0.00
   11    5    7      0.37      0.00
   12    5    7     -1.93      0.00
   13    5    7     -5.84      0.00
   14    5    7     -3.04      0.00
  -27    6    7     -0.58      0.00
  -26    6    7      0.41      0.00
  -25    6    7     -0.32      0.00
  -24    6    7     -1.09      0.00
  -23    6    7     -1.23      0.00
  -22    6    7      2.42      0.00
  -21    6    7      2.78      0.00
  -20    6    7     -1.26      0.00
  -19    6    7      6.37      0.00
  -18    6    7     -2.52      0.00
  -17    6    7      4.69      0.00
  -16    6    7     -2.27      0.00
  -15    6    7     -0.67      0.00
  -14    6    7      1.78      0.00
  -13    6    7      2.52      0.00
  -12    6    7     -3.24      0.00
  -11    6    7     -3.63      0.00
  -10    6    7     -1.39      0.00
   -6    6    7      2.74      0.00
   -5    6    7      0.68      0.00
   -4    6    7     -3.10      0.00
   -3    6    7      1.09      0.00
   -2    6    7      4.07      0.00
   -1    6    7      4.27      0.00
    0    6    7     -6.84      0.00
    1    6    7     -1.94      0.00
    2    6    7      5.46      0.00
    3    6    7      7.68      0.00
    4    6    7     -5.03      0.00
    5    6    7     -0.12      0.00
    6    6    7      7.36      0.00
    7    6    7      6.63      0.00
    8    6    7     -2.58      0.00
    9    6    7      0.67      0.00
   10    6    7     -4.57      0.00
   11    6    7      2.89      0.00
   12    6    7     -5.19      0.00
   13    6    7      0.26      0.00
   14    6    7     -3.97      0.00
  -26    7    7      0.27      0.00
  -25    7    7      1.95      0.00
  -24    7    7      7.11      0.00
  -23    7    7     -3.39      0.00
  -22    7    7     -3.16      0.00
  -21    7    7      4.36      0.00
  -20    7    7      2.14      0.00
  -19    7    7      1.03      0.00
  -18    7    7      2.99      0.00
  -17    7    7      0.46      0.00
  -16    7    7      5.18      0.00
  -15    7    7     -0.25      0.00
  -14    7    7      3.43      0.00
  -13    7    7      4.58      0.00
  -12    7    7      1.11      0.00
   -6    7    7     -1.42      0.00
   -5    7    7      6.08      0.00
   -4    7    7      2.70      0.00
   -3    7    7     -7.06      0.00
   -2    7    7     -4.95      0.00
   -1    7    7      3.27      0.00
    0    7    7      6.08      0.00
    1    7    7     -7.20      0.00
    2    7    7     -5.48      0.00
    3    7    7     -1.61      0.00
    4    7    7      2.62      0.00
    5    7    7     -4.48      0.00
    6    7    7     -5.22      0.00
    7    7    7      3.63      0.00
    8    7    7      0.67      0.00
    9    7    7      2.55      0.00
   10    7    7      1.93      0.00
   11    7    7      4.41      0.00
   12    7    7      5.78      0.00
  -24    8    7      3.68      0.00
  -23    8    7      5.70      0.00
  -22    8    7     -1.89      0.00
  -21    8    7     -1.42      0.00
  -20    8    7      0.07      0.00
  -19    8    7     -2.28      0.00
  -18    8    7     -2.81      0.00
  -17    8    7      0.23      0.00
  -16    8    7     -2.52      0.00
  -15    8    7     -3.85      0.00
   -5    8    7     -0.37      0.00
   -4    8    7      8.33      0.00
   -3    8    7      2.75      0.00
   -2    8    7      6.19      0.00
   -1    8    7     -5.61      0.00
    0    8    7      2.26      0.00
    1    8    7      3.12      0.00
    2    8    7      6.73      0.00
    3    8    7     -3.54      0.00
    4    8    7     -0.27      0.00
    5    8    7     -1.28      0.00
    6    8    7      0.23      0.00
    7    8    7      0.99      0.00
    8    8    7      0.29      0.00
    9    8    7     -0.84      0.00
  -22    9    7     -2.24      0.00
  -21    9    7      3.50      0.00
   -4    9    7     -0.15      0.00
   -3    9    7     -2.35      0.00
   -2    9    7     -3.48      0.00
   -1    9    7      8.38      0.00
    0    9    7     -6.33      0.00
    1    9    7     -2.42      0.00
    2    9    7      0.96      0.00
    3    9    7      4.27      0.00
    4    9    7     -1.12      0.00
    5    9    7      3.79      0.00
    6    9    7     -7.28      0.00
   -3   10    7      1.34      0.00
   -2   10    7     -6.90      0.00
   -1   10    7      0.62      0.00
  -29    0    8      0.71      0.00
  -28    0    8      4.00      0.00
  -27    0    8      2.46      0.00
  -26    0    8     -2.62      0.00
  -25    0    8     -0.89      0.00
  -24    0    8     -5.49      0.00
  -23    0    8      0.65      0.00
  -22    0    8     -5.36      0.00
  -21    0    8     -2.19      0.00
  -20    0    8    -10.55      0.00
  -19    0    8      0.75      0.00
   -4    0    8      7.35      0.00
   -3    0    8      1.70      0.00
   -2    0    8     -1.68      0.00
   -1    0    8    -12.74      0.00
    0    0    8      2.26      0.00
    1    0    8     -6.50      0.00
    2    0    8     11.99      0.00
    3    0    8     -3.52      0.00
    4    0    8     -3.16      0.00
    5    0    8     -3.76      0.00
    6    0    8     -1.07      0.00
    7    0    8     -2.06      0.00
    8    0    8     -4.05      0.00
    9    0    8     -3.21      0.00
   10    0    8     -0.41      0.00
   11    0    8     -2.82      0.00
   12    0    8      2.53      0.00
  -29    1    8     -3.83      0.00
  -28    1    8     -2.34      0.00
  -27    1    8     -1.42      0.00
  -26    1    8     -2.40      0.00
  -25    1    8     -1.13      0.00
  -24    1    8     -2.10      0.00
  -23    1    8      0.72      0.00
  -22    1    8     -0.13      0.00
  -21    1    8     -0.61      0.00
  -20    1    8      2.58      0.00
  -19    1    8     -0.56      0.00
  -11    1    8     -3.53      0.00
   -7    1    8     -0.49      0.00
   -6    1    8      1.73      0.00
   -5    1    8     -2.63      0.00
   -4    1    8      4.22      0.00
   -3    1    8      0.46      0.00
   -2    1    8      0.81      0.00
   -1    1    8     -7.60      0.00
    0    1    8     -5.04      0.00
    1    1    8      3.41      0.00
    2    1    8     -4.54      0.00
    3    1    8     -1.53      0.00
    4    1    8    -10.64      0.00
    5    1    8      6.10      0.00
    6    1    8      1.32      0.00
    7    1    8     -2.40      0.00
    8    1    8     -3.27      0.00
    9    1    8     -2.38      0.00
   10    1    8     -0.41      0.00
   11    1    8     -4.15      0.00
   12    1    8     -2.81      0.00
   13    1    8      2.00      0.00
   14    1    8     -4.16      0.00
  -29    2    8      0.84      0.00
  -28    2    8     -1.72      0.00
  -27    2    8      1.30      0.00
  -26    2    8      4.31      0.00
  -25    2    8      0.05      0.00
  -24    2    8      1.57      0.00
  -23    2    8     -1.18      0.00
  -22    2    8      5.57      0.00
  -21    2    8     -1.35      0.00
  -20    2    8      0.04      0.00
  -19    2    8      0.36      0.00
  -18    2    8     10.04      0.00
  -15    2    8     -2.28      0.00
  -14    2    8      4.56      0.00
  -13    2    8      9.46      0.00
   -8    2    8     -0.03      0.00
   -7    2    8      3.42      0.00
   -6    2    8     -6.76      0.00
   -5    2    8      0.43      0.00
   -4    2    8      1.14      0.00
   -3    2    8      4.10      0.00
   -2    2    8     -1.43      0.00
   -1    2    8     -6.91      0.00
    0    2    8     -6.89      0.00
    1    2    8      2.71      0.00
    2    2    8      7.10      0.00
    3    2    8      2.98      0.00
    4    2    8     -3.65      0.00
    5    2    8     -1.41      0.00
    6    2    8      4.23      0.00
    7    2    8      2.34      0.00
    8    2    8     -4.28      0.00
    9    2    8     -1.58      0.00
   10    2    8      3.09      0.00
   11    2    8     -3.43      0.00
   12    2    8     -7.81      0.00
   13    2    8     -2.88      0.00
   14    2    8      5.09      0.00
  -29    3    8      4.89      0.00
  -28    3    8     -0.08      0.00
  -27    3    8      0.84      0.00
  -26    3    8      2.82      0.00
  -25    3    8      3.91      0.00
  -24    3    8      3.98      0.00
  -23    3    8      3.08      0.00
  -22    3    8      1.28      0.00
  -21    3    8     -0.99      0.00
  -20    3    8     -1.46      0.00
  -19    3    8     -4.28      0.00
  -18    3    8     -1.19      0.00
  -17    3    8     -1.63      0.00
  -16    3    8     -5.51      0.00
  -15    3    8      1.91      0.00
   -7    3    8      2.41      0.00
   -6    3    8      2.55      0.00
   -5    3    8     -1.68      0.00
   -4    3    8      5.17      0.00
   -3    3    8      2.71      0.00
   -2    3    8      3.44      0.00
   -1    3    8     -4.04      0.00
    0    3    8     -4.29      0.00
    1    3    8      0.73      0.00
    2    3    8      4.53      0.00
    3    3    8     -5.03      0.00
    4    3    8     -7.70      0.00
    5    3    8      7.14      0.00
    6    3    8      7.26      0.00
    7    3    8      0.90      0.00
    8    3    8     -0.82      0.00
    9    3    8     -1.54      0.00
   10    3    8      0.93      0.00
   11    3    8      7.56      0.00
   12    3    8     -3.09      0.00
   13    3    8     -3.71      0.00
   14    3    8      1.65      0.00
  -29    4    8     -1.43      0.00
  -28    4    8     -1.46      0.00
  -27    4    8     -3.19      0.00
  -26    4    8     -2.27      0.00
  -25    4    8     -2.02      0.00
  -24    4    8     -4.77      0.00
  -23    4    8     -0.95      0.00
  -22    4    8     -0.88      0.00
  -21    4    8      5.04      0.00
  -20    4    8     -1.14      0.00
  -19    4    8      2.21      0.00
  -18    4    8     -3.12      0.00
  -17    4    8      2.78      0.00
  -16    4    8     -4.71      0.00
   -7    4    8     -1.42      0.00
   -6    4    8      3.31      0.00
   -5    4    8     -0.48      0.00
   -4    4    8      0.31      0.00
   -3    4    8      7.51      0.00
   -2    4    8      1.84      0.00
   -1    4    8      6.46      0.00
    0    4    8     -1.37      0.00
    1    4    8      3.83      0.00
    2    4    8      0.74      0.00
    3    4    8      6.27      0.00
    4    4    8     -1.09      0.00
    5    4    8     -1.48      0.00
    6    4    8      6.73      0.00
    7    4    8      4.42      0.00
    8    4    8     -0.47      0.00
    9    4    8      8.09      0.00
   10    4    8      3.64      0.00
   11    4    8      4.56      0.00
   12    4    8      0.88      0.00
   13    4    8     -2.57      0.00
   14    4    8      2.88      0.00
  -28    5    8      3.23      0.00
  -27    5    8     -0.19      0.00
  -26    5    8     -1.90      0.00
  -25    5    8     -5.42      0.00
  -24    5    8     -4.80      0.00
  -23    5    8      0.56      0.00
  -22    5    8     -7.09      0.00
  -21    5    8     -1.13      0.00
  -20    5    8      1.91      0.00
  -19    5    8      3.16      0.00
  -18    5    8      3.83      0.00
  -17    5    8      3.36      0.00
  -16    5    8     -1.95      0.00
  -15    5    8      0.62      0.00
  -14    5    8      0.80      0.00
   -7    5    8      0.61      0.00
   -6    5    8      1.35      0.00
   -5    5    8      1.88      0.00
   -4    5    8     -0.51      0.00
   -3    5    8     -1.44      0.00
   -2    5    8     -2.54      0.00
   -1    5    8     -2.27      0.00
    0    5    8      2.20      0.00
    1    5    8     -0.63      0.00
    2    5    8      0.49      0.00
    3    5    8     -3.92      0.00
    4    5    8     -2.57      0.00
    5    5    8      2.47      0.00
    6    5    8      2.75      0.00
    7    5    8      5.68      0.00
    8    5    8     -2.23      0.00
    9    5    8     -1.58      0.00
   10    5    8      3.56      0.00
   11    5    8      1.08      0.00
   12    5    8      1.30      0.00
   13    5    8      0.51      0.00
  -27    6    8      5.31      0.00
  -26    6    8      2.17      0.00
  -25    6    8      0.52      0.00
  -24    6    8     -3.24      0.00
  -23    6    8      1.20      0.00
  -22    6    8     -0.43      0.00
  -21    6    8     -7.02      0.00
  -20    6    8      0.20      0.00
  -19    6    8     -4.06      0.00
  -18    6    8     -0.10      0.00
  -17    6    8      0.05      0.00
  -16    6    8      4.28      0.00
  -15    6    8     -2.51      0.00
  -14    6    8     -0.52      0.00
  -13    6    8     -3.78      0.00
  -12    6    8      4.45      0.00
  -11    6    8      2.30      0.00
   -6    6    8     -1.11      0.00
   -5    6    8     -1.80      0.00
   -4    6    8     -1.94      0.00
   -3    6    8     -3.45      0.00
   -2    6    8      0.76      0.00
   -1    6    8     -2.45      0.00
    0    6    8     -0.66      0.00
    1    6    8     -0.84      0.00
    2    6    8     -3.83      0.00
    3    6    8      0.79      0.00
    4    6    8     -4.82      0.00
    5    6    8     -5.06      0.00
    6    6    8     -6.74      0.00
    7    6    8     -1.39      0.00
    8    6    8      1.88      0.00
    9    6    8     -0.06      0.00
   10    6    8      2.15      0.00
   11    6    8     -3.50      0.00
   12    6    8     -0.10      0.00
  -26    7    8      5.55      0.00
  -25    7    8      0.96      0.00
  -24    7    8     -0.19      0.00
  -23    7    8     -1.48      0.00
  -22    7    8      4.94      0.00
  -21    7    8     -1.94      0.00
  -20    7    8      2.12      0.00
  -19    7    8     -5.77      0.00
  -18    7    8      3.77      0.00
  -17    7    8      0.97      0.00
  -16    7    8     -2.40      0.00
  -15    7    8     -1.33      0.00
  -14    7    8      1.99      0.00
  -13    7    8     -2.50      0.00
  -12    7    8     -1.65      0.00
   -5    7    8     -1.12      0.00
   -4    7    8      0.51      0.00
   -3    7    8     -0.05      0.00
   -2    7    8     -3.02      0.00
   -1    7    8      0.34      0.00
    0    7    8      1.73      0.00
    1    7    8      2.31      0.00
    2    7    8      1.47      0.00
    3    7    8      2.49      0.00
    4    7    8      4.37      0.00
    5    7    8     -0.86      0.00
    6    7    8      0.57      0.00
    7    7    8     -6.90      0.00
    8    7    8     -3.56      0.00
    9    7    8     -2.38      0.00
   10    7    8      2.55      0.00
  -24    8    8      4.23      0.00
  -23    8    8     -1.20      0.00
  -22    8    8     -0.82      0.00
  -21    8    8     -2.95      0.00
  -20    8    8      5.64      0.00
  -19    8    8     -0.91      0.00
  -18    8    8     -7.15      0.00
  -17    8    8      6.46      0.00
  -16    8    8      4.95      0.00
   -5    8    8      0.30      0.00
   -4    8    8     -3.59      0.00
   -3    8    8     -2.29      0.00
   -2    8    8     -0.41      0.00
   -1    8    8      3.40      0.00
    0    8    8     -0.21      0.00
    1    8    8     -1.78      0.00
    2    8    8     -3.94      0.00
    3    8    8     -2.75      0.00
    4    8    8      4.58      0.00
    5    8    8     -0.99      0.00
    6    8    8      1.07      0.00
    7    8    8      0.97      0.00
   -4    9    8      0.79      0.00
   -3    9    8      3.38      0.00
   -2    9    8     -6.24      0.00
   -1    9    8     -2.36      0.00
    0    9    8      3.07      0.00
    1    9    8      4.78      0.00
    2    9    8     -0.91      0.00
    3    9    8     -5.70      0.00
  -29    1    9      0.98      0.00
  -28    1    9     -1.52      0.00
  -27    1    9      0.96      0.00
  -26    1    9     -5.72      0.00
  -25    1    9      0.20      0.00
  -24    1    9      1.18      0.00
  -23    1    9      2.18      0.00
  -22    1    9     -2.52      0.00
  -21    1    9     -2.40      0.00
  -20    1    9      1.97      0.00
  -19    1    9      4.07      0.00
   -6    1    9      1.21      0.00
   -5    1    9      7.65      0.00
   -4    1    9      2.17      0.00
   -3    1    9      0.63      0.00
   -2    1    9     -5.49      0.00
   -1    1    9      1.26      0.00
    0    1    9      2.38      0.00
    1    1    9      7.05      0.00
    2    1    9     14.80      0.00
    3    1    9      2.20      0.00
    4    1    9     -8.29      0.00
    5    1    9      0.09      0.00
    6    1    9      3.17      0.00
    7    1    9      3.54      0.00
    8    1    9     -0.28      0.00
    9    1    9     -2.09      0.00
   10    1    9     -5.12      0.00
   11    1    9      3.18      0.00
   12    1    9      1.22      0.00
   13    1    9     -2.49      0.00
   14    1    9      0.50      0.00
  -29    2    9      3.58      0.00
  -28    2    9     -1.34      0.00
  -27    2    9      1.12      0.00
  -26    2    9      0.61      0.00
  -25    2    9     -1.40      0.00
  -24    2    9     -0.51      0.00
  -23    2    9     -2.30      0.00
  -22    2    9      0.70      0.00
  -21    2    9     -5.65      0.00
  -20    2    9      3.34      0.00
  -19    2    9     -2.78      0.00
   -7    2    9      0.44      0.00
   -6    2    9     -8.92      0.00
   -5    2    9      4.02      0.00
   -4    2    9      2.16      0.00
   -3    2    9      0.93      0.00
   -2    2    9     -4.32      0.00
   -1    2    9     -0.86      0.00
    0    2    9      3.05      0.00
    1    2    9     -7.11      0.00
    2    2    9     -3.88      0.00
    3    2    9      7.21      0.00
    4    2    9      8.67      0.00
    5    2    9      2.22      0.00
    6    2    9     -7.67      0.00
    7    2    9     -4.37      0.00
    8    2    9      5.34      0.00
    9    2    9     -0.43      0.00
   10    2    9      0.15      0.00
   11    2    9     -3.88      0.00
   12    2    9     -1.52      0.00
   13    2    9     -1.97      0.00
   14    2    9      0.27      0.00
  -28    3    9      2.91      0.00
  -27    3    9      0.72      0.00
  -26    3    9      0.22      0.00
  -25    3    9     -0.36      0.00
  -24    3    9      1.71      0.00
  -23    3    9     -1.46      0.00
  -22    3    9     -0.36      0.00
  -21    3    9     -2.49      0.00
  -20    3    9     -4.31      0.00
  -19    3    9     -0.24      0.00
  -18    3    9     -3.70      0.00
   -7    3    9     -1.80      0.00
   -6    3    9     -2.39      0.00
   -5    3    9     -5.03      0.00
   -4    3    9      6.06      0.00
   -3    3    9     -2.01      0.00
   -2    3    9     -6.39      0.00
   -1    3    9     -5.29      0.00
    0    3    9      7.94      0.00
    1    3    9     -1.22      0.00
    2    3    9    -11.61      0.00
    3    3    9     -6.16      0.00
    4    3    9     -1.39      0.00
    5    3    9      2.79      0.00
    6    3    9      2.56      0.00
    7    3    9    -12.40      0.00
    8    3    9      1.78      0.00
    9    3    9      2.44      0.00
   10    3    9      3.32      0.00
   11    3    9      1.84      0.00
   12    3    9     -0.65      0.00
   13    3    9     -2.60      0.00
   14    3    9      6.09      0.00
  -28    4    9      0.36      0.00
  -27    4    9     -2.56      0.00
  -26    4    9      1.90      0.00
  -25    4    9     -2.91      0.00
  -24    4    9      5.93      0.00
  -23    4    9      2.62      0.00
  -22    4    9      1.00      0.00
  -21    4    9      2.26      0.00
  -20    4    9      2.78      0.00
  -19    4    9      4.29      0.00
  -18    4    9     -5.18      0.00
  -17    4    9     -6.44      0.00
  -16    4    9      4.82      0.00
  -15    4    9      2.70      0.00
   -7    4    9      3.25      0.00
   -6    4    9      1.38      0.00
   -5    4    9     -2.63      0.00
   -4    4    9      0.46      0.00
   -3    4    9     -1.23      0.00
   -2    4    9     -2.82      0.00
   -1    4    9     -3.54      0.00
    0    4    9      2.32      0.00
    1    4    9      5.79      0.00
    2    4    9     -5.44      0.00
    3    4    9      0.65      0.00
    4    4    9      1.90      0.00
    5    4    9     -0.28      0.00
    6    4    9      2.44      0.00
    7    4    9     -3.39      0.00
    8    4    9     -7.52      0.00
    9    4    9     -2.25      0.00
   10    4    9     -0.98      0.00
   11    4    9      5.38      0.00
   12    4    9      2.43      0.00
   13    4    9     -1.40      0.00
  -27    5    9     -0.05      0.00
  -26    5    9     -0.20      0.00
  -25    5    9     -0.93      0.00
  -24    5    9      1.74      0.00
  -23    5    9     -1.16      0.00
  -22    5    9      1.97      0.00
  -21    5    9      2.60      0.00
  -20    5    9     -1.69      0.00
  -19    5    9      0.12      0.00
  -18    5    9      8.47      0.00
  -17    5    9      0.03      0.00
  -16    5    9     -4.30      0.00
  -15    5    9     -2.22      0.00
  -14    5    9      1.62      0.00
   -6    5    9      1.19      0.00
   -5    5    9      2.77      0.00
   -4    5    9      0.57      0.00
   -3    5    9      5.25      0.00
   -2    5    9     -4.84      0.00
   -1    5    9     -0.14      0.00
    0    5    9     -1.29      0.00
    1    5    9      2.09      0.00
    2    5    9     -9.70      0.00
    3    5    9     -0.42      0.00
    4    5    9      8.42      0.00
    5    5    9      0.90      0.00
    6    5    9      0.68      0.00
    7    5    9      2.92      0.00
    8    5    9     -2.02      0.00
    9    5    9      4.21      0.00
   10    5    9     -3.61      0.00
   11    5    9     -2.11      0.00
   12    5    9     -0.40      0.00
  -26    6    9     -5.32      0.00
  -25    6    9     -2.65      0.00
  -24    6    9      0.46      0.00
  -23    6    9      2.99      0.00
  -22    6    9     -6.02      0.00
  -21    6    9      4.55      0.00
  -20    6    9      2.11      0.00
  -19    6    9     -5.80      0.00
  -18    6    9     -0.72      0.00
  -17    6    9      2.03      0.00
  -16    6    9      1.67      0.00
  -15    6    9     -0.68      0.00
  -14    6    9     -1.11      0.00
  -13    6    9      0.44      0.00
  -12    6    9     -3.61      0.00
   -5    6    9      3.73      0.00
   -4    6    9      0.10      0.00
   -3    6    9      0.66      0.00
   -2    6    9      0.35      0.00
   -1    6    9      3.54      0.00
    0    6    9      2.30      0.00
    1    6    9      0.52      0.00
    2    6    9      1.69      0.00
    3    6    9    -10.25      0.00
    4    6    9      3.84      0.00
    5    6    9      2.02      0.00
    6    6    9      5.07      0.00
    7    6    9      7.46      0.00
    8    6    9     -0.48      0.00
    9    6    9     -1.81      0.00
   10    6    9      6.08      0.00
  -25    7    9     -0.17      0.00
  -24    7    9     -1.71      0.00
  -23    7    9     -0.82      0.00
  -22    7    9     -5.50      0.00
  -21    7    9      2.21      0.00
  -20    7    9      6.13      0.00
  -19    7    9      0.94      0.00
  -18    7    9      0.38      0.00
  -17    7    9      7.84      0.00
  -16    7    9     -0.28      0.00
  -15    7    9      1.47      0.00
  -14    7    9     -1.07      0.00
  -13    7    9      5.36      0.00
  -12    7    9     -1.33      0.00
   -5    7    9     -5.38      0.00
   -4    7    9     -0.72      0.00
   -3    7    9     -1.37      0.00
   -2    7    9      3.29      0.00
   -1    7    9     -1.31      0.00
    0    7    9      3.88      0.00
    1    7    9     -3.49      0.00
    2    7    9      4.73      0.00
    3    7    9     -1.13      0.00
    4    7    9     -1.76      0.00
    5    7    9     -1.65      0.00
    6    7    9     -4.70      0.00
    7    7    9      1.86      0.00
    8    7    9      2.53      0.00
  -23    8    9      2.16      0.00
  -22    8    9     -1.83      0.00
  -21    8    9     -2.86      0.00
  -20    8    9     -0.17      0.00
  -19    8    9     -2.71      0.00
  -18    8    9     -0.75      0.00
  -17    8    9      4.39      0.00
   -4    8    9      1.04      0.00
   -3    8    9     -7.77      0.00
   -2    8    9     -4.19      0.00
   -1    8    9      0.81      0.00
    0    8    9      4.79      0.00
    1    8    9     -1.28      0.00
    2    8    9     -2.93      0.00
    3    8    9      3.18      0.00
    4    8    9     -3.42      0.00
  -28    0   10      1.38      0.00
  -27    0   10     -1.79      0.00
  -26    0   10      3.70      0.00
  -25    0   10      3.15      0.00
  -24    0   10      5.01      0.00
  -23    0   10      0.97      0.00
  -22    0   10     -6.60      0.00
  -21    0   10      4.59      0.00
  -20    0   10      5.68      0.00
   -1    0   10      9.87      0.00
    0    0   10      5.81      0.00
    1    0   10     -0.69      0.00
    2    0   10      6.79      0.00
    3    0   10     -3.45      0.00
    4    0   10      3.69      0.00
    5    0   10      2.35      0.00
    6    0   10      1.04      0.00
    7    0   10      4.14      0.00
    8    0   10     -5.98      0.00
    9    0   10      0.89      0.00
   10    0   10     -9.57      0.00
   11    0   10      0.25      0.00
   12    0   10     -1.87      0.00
  -28    1   10     -0.44      0.00
  -27    1   10      0.02      0.00
  -26    1   10     -3.09      0.00
  -25    1   10      1.42      0.00
  -24    1   10     -3.50      0.00
  -23    1   10      3.31      0.00
  -22    1   10     -1.13      0.00
  -21    1   10     -0.83      0.00
  -20    1   10     -0.11      0.00
   -5    1   10     -0.48      0.00
   -4    1   10     -2.94      0.00
   -3    1   10     -3.88      0.00
   -2    1   10     -7.94      0.00
   -1    1   10      0.34      0.00
    0    1   10      3.74      0.00
    1    1   10     -4.63      0.00
    2    1   10     -4.03      0.00
    3    1   10      4.12      0.00
    4    1   10      1.43      0.00
    5    1   10      2.82      0.00
    6    1   10     -4.19      0.00
    7    1   10      2.14      0.00
    8    1   10      4.70      0.00
    9    1   10     -1.76      0.00
   10    1   10      7.05      0.00
   11    1   10     -8.38      0.00
   12    1   10      4.08      0.00
  -28    2   10      1.30      0.00
  -27    2   10     -1.21      0.00
  -26    2   10     -1.18      0.00
  -25    2   10     -1.88      0.00
  -24    2   10     -1.00      0.00
  -23    2   10     -1.30      0.00
  -22    2   10     -3.78      0.00
  -21    2   10      0.83      0.00
  -20    2   10      4.57      0.00
  -19    2   10     -5.07      0.00
   -7    2   10     -2.15      0.00
   -6    2   10      3.38      0.00
   -5    2   10      5.62      0.00
   -4    2   10     -0.22      0.00
   -3    2   10     -3.49      0.00
   -2    2   10     -3.07      0.00
   -1    2   10      0.88      0.00
    0    2   10      1.78      0.00
    1    2   10      0.26      0.00
    2    2   10     -7.64      0.00
    3    2   10     -3.15      0.00
    4    2   10     -3.52      0.00
    5    2   10      0.10      0.00
    6    2   10      4.04      0.00
    7    2   10     -1.32      0.00
    8    2   10      0.98      0.00
    9    2   10      0.30      0.00
   10    2   10     -0.72      0.00
   11    2   10      2.76      0.00
   12    2   10     -0.96      0.00
  -28    3   10     -1.98      0.00
  -27    3   10     -0.49      0.00
  -26    3   10      4.98      0.00
  -25    3   10      3.55      0.00
  -24    3   10     -0.58      0.00
  -23    3   10      1.59      0.00
  -22    3   10      1.63      0.00
  -21    3   10      0.12      0.00
  -20    3   10      1.93      0.00
  -19    3   10      1.53      0.00
  -18    3   10     -8.74      0.00
   -6    3   10     -5.08      0.00
   -5    3   10      0.49      0.00
   -4    3   10      0.88      0.00
   -3    3   10     -3.23      0.00
   -2    3   10      2.72      0.00
   -1    3   10      4.56      0.00
    0    3   10      3.55      0.00
    1    3   10      0.31      0.00
    2    3   10      3.50      0.00
    3    3   10      4.18      0.00
    4    3   10      2.08      0.00
    5    3   10     -4.24      0.00
    6    3   10     -4.14      0.00
    7    3   10      7.65      0.00
    8    3   10     -6.27      0.00
    9    3   10      1.00      0.00
   10    3   10     -0.03      0.00
   11    3   10     -4.49      0.00
   12    3   10    -10.97      0.00
  -27    4   10     -3.87      0.00
  -26    4   10     -5.14      0.00
  -25    4   10      1.55      0.00
  -24    4   10      0.31      0.00
  -23    4   10     -3.17      0.00
  -22    4   10      0.29      0.00
  -21    4   10      3.89      0.00
  -20    4   10     -0.18      0.00
  -19    4   10      3.01      0.00
  -18    4   10      2.04      0.00
  -17    4   10     -1.31      0.00
   -6    4   10      0.67      0.00
   -5    4   10      2.73      0.00
   -4    4   10      2.36      0.00
   -3    4   10     -4.76      0.00
   -2    4   10     -3.16      0.00
   -1    4   10      5.80      0.00
    0    4   10      3.81      0.00
    1    4   10     -7.81      0.00
    2    4   10      0.89      0.00
    3    4   10      7.92      0.00
    4    4   10      0.25      0.00
    5    4   10    -11.47      0.00
    6    4   10     -3.91      0.00
    7    4   10      3.22      0.00
    8    4   10      7.08      0.00
    9    4   10     -8.20      0.00
   10    4   10      1.21      0.00
   11    4   10      1.41      0.00
  -27    5   10      1.88      0.00
  -26    5   10     -2.06      0.00
  -25    5   10      2.34      0.00
  -24    5   10     -1.31      0.00
  -23    5   10     -1.57      0.00
  -22    5   10     -6.83      0.00
  -21    5   10     -0.18      0.00
  -20    5   10      0.95      0.00
  -19    5   10     -3.84      0.00
  -18    5   10     -1.80      0.00
  -17    5   10      1.54      0.00
  -16    5   10      2.57      0.00
  -15    5   10     -5.06      0.00
   -5    5   10      1.31      0.00
   -4    5   10      0.06      0.00
   -3    5   10     -0.77      0.00
   -2    5   10      2.01      0.00
   -1    5   10      3.56      0.00
    0    5   10      1.92      0.00
    1    5   10     -5.21      0.00
    2    5   10     -1.52      0.00
    3    5   10      4.24      0.00
    4    5   10      8.30      0.00
    5    5   10     -3.01      0.00
    6    5   10     -5.95      0.00
    7    5   10     -2.45      0.00
    8    5   10      5.00      0.00
    9    5   10      3.07      0.00
   10    5   10      6.29      0.00
  -26    6   10     -3.18      0.00
  -25    6   10      4.21      0.00
  -24    6   10      3.32      0.00
  -23    6   10      0.03      0.00
  -22    6   10      4.64      0.00
  -21    6   10      3.34      0.00
  -20    6   10      4.03      0.00
  -19    6   10     -2.58      0.00
  -18    6   10      3.76      0.00
  -17    6   10     -3.07      0.00
  -16    6   10     -0.63      0.00
  -15    6   10     -6.28      0.00
  -14    6   10      3.65      0.00
  -13    6   10     -4.60      0.00
  -12    6   10      0.23      0.00
   -5    6   10     -1.31      0.00
   -4    6   10      2.57      0.00
   -3    6   10     -3.20      0.00
   -2    6   10     -3.79      0.00
   -1    6   10      1.80      0.00
    0    6   10      2.31      0.00
    1    6   10     -1.55      0.00
    2    6   10     -3.31      0.00
    3    6   10     11.29      0.00
    4    6   10      1.03      0.00
    5    6   10      3.39      0.00
    6    6   10     -1.93      0.00
    7    6   10      3.59      0.00
    8    6   10      2.27      0.00
    9    6   10      2.91      0.00
  -24    7   10      3.08      0.00
  -23    7   10     -4.34      0.00
  -22    7   10      0.02      0.00
  -21    7   10     -1.05      0.00
  -20    7   10      4.89      0.00
  -19    7   10      3.32      0.00
  -18    7   10      3.72      0.00
  -17    7   10      2.62      0.00
  -16    7   10      4.04      0.00
  -15    7   10      1.49      0.00
  -14    7   10     -1.19      0.00
  -13    7   10      1.40      0.00
   -4    7   10     -1.06      0.00
   -3    7   10     -1.52      0.00
   -2    7   10      0.05      0.00
   -1    7   10     -1.00      0.00
    0    7   10     -5.83      0.00
    1    7   10     -5.10      0.00
    2    7   10     -5.77      0.00
    3    7   10     -0.16      0.00
    4    7   10      1.00      0.00
    5    7   10      0.50      0.00
    6    7   10      0.63      0.00
    7    7   10     -2.37      0.00
    8    7   10     -3.12      0.00
  -22    8   10     -2.11      0.00
  -21    8   10      2.06      0.00
  -20    8   10     -6.13      0.00
  -19    8   10     -4.17      0.00
   -3    8   10      2.94      0.00
   -2    8   10      2.39      0.00
   -1    8   10      2.17      0.00
    5    8   10     -4.04      0.00
  -27    1   11      0.15      0.00
  -26    1   11      1.19      0.00
  -25    1   11      2.29      0.00
  -24    1   11     -4.84      0.00
  -23    1   11     -3.45      0.00
  -22    1   11      3.90      0.00
  -21    1   11      2.29      0.00
  -20    1   11     -3.75      0.00
   -4    1   11     -0.63      0.00
   -3    1   11      2.94      0.00
   -2    1   11      3.68      0.00
   -1    1   11      4.99      0.00
    0    1   11     -3.30      0.00
    1    1   11     -1.19      0.00
    2    1   11     -1.68      0.00
    3    1   11      0.49      0.00
    4    1   11      0.35      0.00
    5    1   11      1.43      0.00
    6    1   11     -1.24      0.00
    7    1   11     -0.58      0.00
    8    1   11     -1.78      0.00
    9    1   11      1.93      0.00
   10    1   11      4.37      0.00
   11    1   11      5.22      0.00
   12    1   11     -8.94      0.00
  -27    2   11      2.53      0.00
  -26    2   11      1.46      0.00
  -25    2   11      1.38      0.00
  -24    2   11      4.81      0.00
  -23    2   11     -2.36      0.00
  -22    2   11      2.02      0.00
  -21    2   11      0.66      0.00
  -20    2   11      0.79      0.00
  -19    2   11     -1.93      0.00
   -6    2   11      0.55      0.00
   -5    2   11     -1.49      0.00
   -4    2   11     -7.58      0.00
   -3    2   11     -0.98      0.00
   -2    2   11     -0.24      0.00
   -1    2   11      2.53      0.00
    0    2   11      2.08      0.00
    1    2   11     -3.09      0.00
    2    2   11      4.31      0.00
    3    2   11      3.39      0.00
    4    2   11      1.09      0.00
    5    2   11     -2.65      0.00
    6    2   11      0.24      0.00
    7    2   11      4.81      0.00
    8    2   11      0.20      0.00
    9    2   11     -2.96      0.00
   10    2   11      1.17      0.00
   11    2   11     -1.30      0.00
   12    2   11      1.24      0.00
  -27    3   11     -1.07      0.00
  -26    3   11     -0.16      0.00
  -25    3   11      0.14      0.00
  -24    3   11      0.12      0.00
  -23    3   11      0.67      0.00
  -22    3   11      4.31      0.00
  -21    3   11      0.71      0.00
  -20    3   11     -4.34      0.00
  -19    3   11     -0.45      0.00
  -18    3   11      1.37      0.00
   -6    3   11     -1.55      0.00
   -5    3   11     -0.62      0.00
   -4    3   11     -2.20      0.00
   -3    3   11     -3.05      0.00
   -2    3   11      4.79      0.00
   -1    3   11     -2.96      0.00
    0    3   11     -3.32      0.00
    1    3   11     -3.24      0.00
    2    3   11      3.74      0.00
    3    3   11      1.46      0.00
    4    3   11     -6.74      0.00
    5    3   11     -0.51      0.00
    6    3   11      4.32      0.00
    7    3   11     -2.03      0.00
    8    3   11     -0.61      0.00
    9    3   11     -2.45      0.00
   10    3   11      6.37      0.00
   11    3   11      1.88      0.00
  -26    4   11     -1.19      0.00
  -25    4   11     -1.19      0.00
  -24    4   11     -1.82      0.00
  -23    4   11     -4.50      0.00
  -22    4   11     -2.20      0.00
  -21    4   11      6.50      0.00
  -20    4   11      0.17      0.00
  -19    4   11     -6.18      0.00
  -18    4   11      1.68      0.00
  -17    4   11      0.95      0.00
   -5    4   11     -3.50      0.00
   -4    4   11     -4.34      0.00
   -3    4   11      0.64      0.00
   -2    4   11      3.88      0.00
   -1    4   11      0.61      0.00
    0    4   11     -7.51      0.00
    1    4   11     -0.38      0.00
    2    4   11      1.92      0.00
    3    4   11      8.27      0.00
    4    4   11      0.23      0.00
    5    4   11     -9.20      0.00
    6    4   11      1.29      0.00
    7    4   11      3.85      0.00
    8    4   11      0.09      0.00
    9    4   11     -1.00      0.00
   10    4   11      3.23      0.00
   11    4   11      7.04      0.00
  -26    5   11      3.30      0.00
  -25    5   11      0.16      0.00
  -24    5   11      1.56      0.00
  -23    5   11      2.31      0.00
  -22    5   11      0.29      0.00
  -21    5   11     -2.42      0.00
  -20    5   11      0.38      0.00
  -19    5   11      5.33      0.00
  -18    5   11      2.34      0.00
  -17    5   11     -1.30      0.00
  -16    5   11     -4.91      0.00
  -15    5   11     13.11      0.00
   -5    5   11      3.23      0.00
   -4    5   11     -2.38      0.00
   -3    5   11     -0.96      0.00
   -2    5   11      5.14      0.00
   -1    5   11      3.61      0.00
    0    5   11     -7.99      0.00
    1    5   11      1.70      0.00
    2    5   11      4.75      0.00
    3    5   11     -0.70      0.00
    4    5   11      1.37      0.00
    5    5   11     -2.27      0.00
    6    5   11      3.83      0.00
    7    5   11     -4.94      0.00
    8    5   11     -3.60      0.00
    9    5   11     -6.62      0.00
  -25    6   11      1.40      0.00
  -24    6   11     -1.46      0.00
  -23    6   11     -1.38      0.00
  -22    6   11      0.82      0.00
  -21    6   11      4.40      0.00
  -20    6   11     -4.91      0.00
  -19    6   11     -2.83      0.00
  -18    6   11     -3.30      0.00
  -17    6   11      4.68      0.00
  -16    6   11     -3.87      0.00
  -15    6   11     -4.74      0.00
  -14    6   11      1.42      0.00
  -13    6   11     -0.48      0.00
   -4    6   11     -0.10      0.00
   -3    6   11      2.35      0.00
   -2    6   11      6.22      0.00
   -1    6   11      8.90      0.00
    0    6   11     -9.53      0.00
    1    6   11     -5.10      0.00
    2    6   11     10.45      0.00
    3    6   11     -5.47      0.00
    4    6   11     -3.02      0.00
    5    6   11     -0.02      0.00
    6    6   11     -0.37      0.00
    7    6   11     -0.66      0.00
    8    6   11    -10.20      0.00
  -23    7   11      0.11      0.00
  -22    7   11      0.74      0.00
  -21    7   11     -1.17      0.00
  -20    7   11     -2.40      0.00
  -19    7   11     -0.16      0.00
  -18    7   11      1.57      0.00
  -17    7   11     -8.56      0.00
  -16    7   11     -4.16      0.00
  -15    7   11     -1.73      0.00
  -14    7   11     -1.15      0.00
   -3    7   11     -2.41      0.00
   -2    7   11     -4.51      0.00
   -1    7   11     -1.64      0.00
    0    7   11      6.54      0.00
    1    7   11    -11.93      0.00
    2    7   11      2.12      0.00
    3    7   11      5.33      0.00
    4    7   11     -7.79      0.00
    5    7   11      2.85      0.00
    6    7   11      4.13      0.00
    7    7   11     13.01      0.00
    4    8   11      0.51      0.00
    5    8   11      2.81      0.00
  -26    0   12      0.08      0.00
  -25    0   12     -2.24      0.00
  -24    0   12     -1.41      0.00
  -23    0   12     -0.81      0.00
  -22    0   12      2.04      0.00
  -21    0   12     -1.48      0.00
  -20    0   12     -6.80      0.00
    6    0   12     11.10      0.00
    7    0   12    -23.45      0.00
    8    0   12      2.10      0.00
    9    0   12     11.46      0.00
   10    0   12      0.04      0.00
   11    0   12      1.06      0.00
  -26    1   12     -0.23      0.00
  -25    1   12      1.03      0.00
  -24    1   12     -0.35      0.00
  -23    1   12     -0.45      0.00
  -22    1   12     -0.81      0.00
  -21    1   12      0.14      0.00
  -20    1   12     -4.47      0.00
   -1    1   12      4.19      0.00
    0    1   12     -1.57      0.00
    1    1   12     -7.37      0.00
    2    1   12      2.28      0.00
    3    1   12     -2.29      0.00
    4    1   12     -6.34      0.00
    5    1   12    -11.23      0.00
    6    1   12     18.97      0.00
    7    1   12      7.13      0.00
    8    1   12    -21.32      0.00
    9    1   12      3.94      0.00
   10    1   12      3.19      0.00
   11    1   12      8.41      0.00
  -26    2   12     -3.22      0.00
  -25    2   12      1.88      0.00
  -24    2   12      1.10      0.00
  -23    2   12      0.66      0.00
  -22    2   12      5.02      0.00
  -21    2   12      1.74      0.00
  -20    2   12      2.71      0.00
  -19    2   12     -2.09      0.00
   -4    2   12      2.56      0.00
   -3    2   12      2.86      0.00
   -2    2   12      0.38      0.00
   -1    2   12     -2.91      0.00
    0    2   12      3.63      0.00
    1    2   12     -5.24      0.00
    2    2   12      0.22      0.00
    3    2   12     -5.64      0.00
    4    2   12     -1.72      0.00
    5    2   12     -1.75      0.00
    6    2   12     -3.24      0.00
    7    2   12      7.26      0.00
    8    2   12      3.62      0.00
    9    2   12     -8.28      0.00
   10    2   12      6.06      0.00
   11    2   12      7.23      0.00
  -26    3   12     -4.41      0.00
  -25    3   12     -4.03      0.00
  -24    3   12     -0.82      0.00
  -23    3   12     -0.89      0.00
  -22    3   12     -1.17      0.00
  -21    3   12      1.09      0.00
  -20    3   12     -0.23      0.00
  -19    3   12      2.79      0.00
  -18    3   12      2.29      0.00
   -5    3   12     -4.11      0.00
   -4    3   12     -1.35      0.00
   -3    3   12     -0.51      0.00
   -2    3   12      3.43      0.00
   -1    3   12     -4.54      0.00
    0    3   12      4.06      0.00
    1    3   12      5.39      0.00
    2    3   12      0.28      0.00
    3    3   12     -5.56      0.00
    4    3   12     -6.48      0.00
    5    3   12     -4.83      0.00
    6    3   12      5.43      0.00
    7    3   12      1.04      0.00
    8    3   12     -4.18      0.00
   10    3   12     -7.02      0.00
   11    3   12      0.03      0.00
  -25    4   12     -0.61      0.00
  -24    4   12     -0.69      0.00
  -23    4   12     -1.93      0.00
  -22    4   12     -1.63      0.00
  -21    4   12      0.01      0.00
  -20    4   12     -3.45      0.00
  -19    4   12      0.67      0.00
  -18    4   12     -3.99      0.00
  -17    4   12      0.92      0.00
   -4    4   12      1.65      0.00
   -3    4   12     -6.81      0.00
   -2    4   12     -0.94      0.00
   -1    4   12     -2.16      0.00
    0    4   12     -1.10      0.00
    1    4   12      3.25      0.00
    2    4   12      9.61      0.00
    3    4   12     -4.60      0.00
    4    4   12     -5.77      0.00
    5    4   12      9.79      0.00
    6    4   12     -0.44      0.00
    7    4   12      0.01      0.00
    8    4   12     -1.42      0.00
    9    4   12     -1.61      0.00
   10    4   12     -4.56      0.00
   11    4   12    -15.52      0.00
  -25    5   12      1.29      0.00
  -24    5   12      1.39      0.00
  -23    5   12      0.34      0.00
  -22    5   12     -0.70      0.00
  -21    5   12      3.42      0.00
  -20    5   12     -1.87      0.00
  -19    5   12     -0.37      0.00
  -18    5   12      1.25      0.00
  -17    5   12      3.90      0.00
  -16    5   12     -2.40      0.00
  -15    5   12     -3.05      0.00
   -4    5   12      8.01      0.00
   -3    5   12      7.08      0.00
   -2    5   12     -6.26      0.00
   -1    5   12     -2.30      0.00
    0    5   12      5.49      0.00
    1    5   12      8.06      0.00
    2    5   12     -4.23      0.00
    3    5   12      1.77      0.00
    4    5   12     -7.26      0.00
    5    5   12     -3.77      0.00
    6    5   12      9.98      0.00
    7    5   12      0.20      0.00
    8    5   12      1.09      0.00
    9    5   12      3.99      0.00
  -23    6   12      0.09      0.00
  -22    6   12     -1.83      0.00
  -21    6   12     -1.02      0.00
  -20    6   12      2.14      0.00
  -19    6   12     -0.42      0.00
  -18    6   12     -0.99      0.00
  -17    6   12     -2.70      0.00
  -16    6   12      6.61      0.00
  -15    6   12     -0.81      0.00
  -14    6   12      1.90      0.00
  -13    6   12      0.96      0.00
   -2    6   12     -5.85      0.00
    1    6   12     17.09      0.00
    2    6   12      7.23      0.00
    3    6   12     -7.22      0.00
    4    6   12     -2.66      0.00
    5    6   12      3.84      0.00
    6    6   12      1.28      0.00
    7    6   12      4.67      0.00
  -22    7   12     -1.82      0.00
  -21    7   12     -1.78      0.00
  -20    7   12      2.83      0.00
  -19    7   12     -3.67      0.00
  -18    7   12      1.52      0.00
  -17    7   12     -1.86      0.00
  -16    7   12      1.74      0.00
  -15    7   12     -3.78      0.00
   -1    7   12    -13.91      0.00
    0    7   12     -9.70      0.00
    1    7   12      4.94      0.00
    2    7   12      8.31      0.00
    3    7   12      5.90      0.00
    4    7   12     -7.63      0.00
    5    7   12     -0.51      0.00
    6    7   12     -2.42      0.00
    3    8   12      1.49      0.00
    5    8   12     -7.97      0.00
  -25    1   13      2.38      0.00
  -24    1   13      0.84      0.00
  -23    1   13     -0.05      0.00
  -22    1   13      1.11      0.00
  -21    1   13     -3.31      0.00
  -20    1   13     -1.60      0.00
    5    1   13     11.15      0.00
    6    1   13     -0.01      0.00
    7    1   13     -4.01      0.00
    8    1   13     -3.38      0.00
    9    1   13     -4.76      0.00
   10    1   13      1.57      0.00
   11    1   13      6.19      0.00
  -25    2   13      1.79      0.00
  -24    2   13      0.11      0.00
  -23    2   13      1.19      0.00
  -22    2   13     -0.90      0.00
  -21    2   13      1.30      0.00
  -20    2   13      0.38      0.00
  -19    2   13      0.72      0.00
   -2    2   13     -0.45      0.00
   -1    2   13      2.99      0.00
    0    2   13      4.25      0.00
    1    2   13     -0.51      0.00
    2    2   13     -3.05      0.00
    3    2   13      1.90      0.00
    5    2   13     -0.32      0.00
    6    2   13     11.06      0.00
    7    2   13      2.21      0.00
    8    2   13     -3.89      0.00
    9    2   13      3.44      0.00
   10    2   13     -2.69      0.00
   11    2   13      4.26      0.00
  -25    3   13      0.47      0.00
  -24    3   13     -0.13      0.00
  -23    3   13     -1.31      0.00
  -22    3   13      1.45      0.00
  -21    3   13     -1.36      0.00
  -20    3   13      2.66      0.00
  -19    3   13      2.43      0.00
  -18    3   13      1.45      0.00
   -4    3   13      2.49      0.00
   -3    3   13      2.10      0.00
   -2    3   13     -5.66      0.00
   -1    3   13      1.72      0.00
    0    3   13      4.24      0.00
    1    3   13      5.29      0.00
    2    3   13     -4.00      0.00
    4    3   13     17.92      0.00
    5    3   13      2.65      0.00
    6    3   13     -8.91      0.00
    7    3   13     -1.80      0.00
    8    3   13      2.82      0.00
    9    3   13     -1.21      0.00
   10    3   13      4.54      0.00
   11    3   13     -4.90      0.00
  -24    4   13      2.08      0.00
  -23    4   13     -1.18      0.00
  -22    4   13      0.66      0.00
  -21    4   13     -4.11      0.00
  -20    4   13     -0.84      0.00
  -19    4   13      2.91      0.00
  -18    4   13      0.09      0.00
  -17    4   13      1.88      0.00
   -3    4   13      3.04      0.00
   -2    4   13     -8.01      0.00
   -1    4   13     -4.37      0.00
    3    4   13    -13.71      0.00
    4    4   13     -3.70      0.00
    5    4   13     19.61      0.00
    6    4   13      7.99      0.00
    7    4   13     -3.54      0.00
    8    4   13     -7.07      0.00
    9    4   13      1.35      0.00
   10    4   13     -2.10      0.00
  -23    5   13     -0.72      0.00
  -22    5   13      0.74      0.00
  -21    5   13     -1.81      0.00
  -20    5   13     -4.87      0.00
  -19    5   13     -0.93      0.00
  -18    5   13     -1.38      0.00
  -17    5   13     -2.01      0.00
  -16    5   13      7.76      0.00
  -15    5   13      2.85      0.00
    2    5   13     -6.21      0.00
    3    5   13     -1.29      0.00
    4    5   13    -10.46      0.00
    5    5   13      2.83      0.00
    6    5   13      0.61      0.00
    7    5   13      4.44      0.00
    8    5   13      0.55      0.00
  -22    6   13      2.39      0.00
  -21    6   13      3.56      0.00
  -20    6   13     -2.09      0.00
  -19    6   13     -0.68      0.00
  -18    6   13      2.31      0.00
  -17    6   13     -3.25      0.00
  -16    6   13     -6.08      0.00
  -15    6   13      3.30      0.00
  -14    6   13      4.11      0.00
  -13    6   13      0.90      0.00
  -12    6   13     -0.30      0.00
    0    6   13     14.26      0.00
    1    6   13      3.76      0.00
    2    6   13     -7.59      0.00
    3    6   13     -3.17      0.00
    4    6   13      3.69      0.00
    5    6   13     -6.23      0.00
    6    6   13      4.62      0.00
    7    6   13     -4.45      0.00
  -19    7   13      4.91      0.00
   -2    7   13      6.91      0.00
   -1    7   13      7.28      0.00
    0    7   13      1.22      0.00
    1    7   13      0.93      0.00
    2    7   13      2.06      0.00
    3    7   13     -6.64      0.00
    4    7   13      1.83      0.00
    5    7   13     -0.96      0.00
    6    7   13     -2.05      0.00
    2    8   13     -2.51      0.00
    3    8   13      4.17      0.00
    4    8   13     -4.28      0.00
  -24    0   14     -0.23      0.00
  -23    0   14      2.38      0.00
  -22    0   14     -0.65      0.00
  -21    0   14     -4.98      0.00
  -20    0   14      2.87      0.00
    4    0   14     -9.68      0.00
    5    0   14      0.04      0.00
    6    0   14     -5.10      0.00
    7    0   14      0.59      0.00
    8    0   14     -6.82      0.00
    9    0   14      2.71      0.00
   10    0   14      0.91      0.00
  -24    1   14      1.57      0.00
  -23    1   14      0.08      0.00
  -22    1   14      0.26      0.00
  -21    1   14      1.62      0.00
  -20    1   14     -2.13      0.00
  -19    1   14      2.50      0.00
    4    1   14     -7.02      0.00
    5    1   14     -1.95      0.00
    6    1   14     -4.33      0.00
    7    1   14     -1.95      0.00
    8    1   14     -5.85      0.00
    9    1   14     -0.58      0.00
   10    1   14     -2.74      0.00
  -24    2   14     -1.69      0.00
  -23    2   14      2.60      0.00
  -22    2   14     -1.31      0.00
  -21    2   14     -3.47      0.00
  -20    2   14      0.56      0.00
  -19    2   14      0.68      0.00
    4    2   14      2.97      0.00
    5    2   14     -4.26      0.00
    6    2   14     -1.47      0.00
    7    2   14      0.45      0.00
    8    2   14      1.81      0.00
    9    2   14     -5.17      0.00
   10    2   14      7.52      0.00
  -23    3   14      1.05      0.00
  -22    3   14      3.01      0.00
  -21    3   14     -1.42      0.00
  -20    3   14      2.21      0.00
  -19    3   14     -4.95      0.00
  -18    3   14     -7.52      0.00
    3    3   14     15.38      0.00
    4    3   14     10.99      0.00
    5    3   14     -2.58      0.00
    6    3   14     -1.35      0.00
    7    3   14     -4.64      0.00
    8    3   14     -1.64      0.00
    9    3   14      1.86      0.00
  -23    4   14     -0.48      0.00
  -22    4   14      1.85      0.00
  -21    4   14     -1.88      0.00
  -20    4   14      1.63      0.00
  -19    4   14      6.63      0.00
  -18    4   14     -2.37      0.00
  -17    4   14     -5.42      0.00
  -16    4   14      1.78      0.00
    2    4   14     -5.85      0.00
    3    4   14     -8.13      0.00
    4    4   14     13.41      0.00
    5    4   14      1.46      0.00
    6    4   14     -4.10      0.00
    7    4   14      5.37      0.00
    8    4   14     -0.65      0.00
    9    4   14     -4.47      0.00
  -21    5   14      0.15      0.00
  -20    5   14     -2.28      0.00
  -19    5   14      3.19      0.00
  -18    5   14      3.37      0.00
  -17    5   14     -0.80      0.00
  -16    5   14      0.84      0.00
  -15    5   14      0.48      0.00
  -14    5   14     -0.64      0.00
    1    5   14     -7.81      0.00
    2    5   14      1.87      0.00
    3    5   14     -0.05      0.00
    4    5   14      1.99      0.00
    5    5   14      0.55      0.00
    6    5   14      1.91      0.00
    7    5   14     -3.07      0.00
    8    5   14      3.44      0.00
  -20    6   14      1.41      0.00
  -19    6   14     -0.57      0.00
  -18    6   14     -1.57      0.00
  -17    6   14     -0.26      0.00
  -16    6   14      1.07      0.00
  -15    6   14     -0.70      0.00
  -14    6   14     -5.02      0.00
  -13    6   14     -0.11      0.00
   -1    6   14      7.21      0.00
    0    6   14     -7.58      0.00
    1    6   14     -0.10      0.00
    2    6   14     -3.11      0.00
    3    6   14      0.83      0.00
    4    6   14      4.35      0.00
    5    6   14      0.71      0.00
    6    6   14     -2.26      0.00
    7    6   14      1.35      0.00
   -4    7   14     -6.35      0.00
   -3    7   14      5.25      0.00
   -2    7   14     -1.34      0.00
   -1    7   14      2.24      0.00
    0    7   14      2.66      0.00
    1    7   14     -2.94      0.00
    2    7   14     -1.79      0.00
    3    7   14      0.48      0.00
    4    7   14     -1.89      0.00
    5    7   14      0.92      0.00
    2    8   14      4.00      0.00
  -22    1   15      0.29      0.00
  -21    1   15      3.95      0.00
  -20    1   15      5.49      0.00
  -19    1   15      1.64      0.00
    3    1   15      6.46      0.00
    4    1   15      4.01      0.00
    5    1   15     -0.72      0.00
    6    1   15     -0.92      0.00
    7    1   15     -0.12      0.00
    8    1   15     -5.51      0.00
    9    1   15      2.36      0.00
  -22    2   15     -0.79      0.00
  -21    2   15     -2.09      0.00
  -20    2   15      1.88      0.00
  -19    2   15     -2.29      0.00
  -18    2   15      3.53      0.00
    3    2   15      3.61      0.00
    4    2   15      0.80      0.00
    5    2   15      1.38      0.00
    6    2   15      0.70      0.00
    7    2   15      1.09      0.00
    8    2   15     -0.35      0.00
    9    2   15      0.60      0.00
  -22    3   15     -6.52      0.00
  -21    3   15      1.90      0.00
  -20    3   15     -0.82      0.00
  -19    3   15      0.92      0.00
  -18    3   15     -2.51      0.00
  -17    3   15    -10.31      0.00
    2    3   15     -5.30      0.00
    3    3   15    -14.27      0.00
    4    3   15      4.08      0.00
    5    3   15     -2.56      0.00
    6    3   15     -0.07      0.00
    7    3   15      1.31      0.00
    8    3   15     -4.79      0.00
    9    3   15     -0.88      0.00
  -21    4   15     -1.35      0.00
  -20    4   15      0.76      0.00
  -19    4   15     -1.70      0.00
  -18    4   15      2.84      0.00
  -17    4   15     -2.23      0.00
  -16    4   15    -12.17      0.00
    1    4   15     -0.77      0.00
    2    4   15     17.93      0.00
    3    4   15     -1.77      0.00
    4    4   15     -8.76      0.00
    5    4   15     -1.98      0.00
    6    4   15      3.27      0.00
    7    4   15     -2.09      0.00
    8    4   15      2.00      0.00
  -19    5   15     -1.35      0.00
  -18    5   15     -0.66      0.00
  -17    5   15      4.72      0.00
  -16    5   15     -9.74      0.00
  -15    5   15     -2.57      0.00
  -14    5   15     -2.92      0.00
  -13    5   15     -2.29      0.00
   -1    5   15     -7.35      0.00
    0    5   15     -1.20      0.00
    1    5   15      3.79      0.00
    2    5   15     -3.05      0.00
    3    5   15      7.01      0.00
    4    5   15      3.18      0.00
    5    5   15     -4.05      0.00
    6    5   15      0.92      0.00
    7    5   15      2.39      0.00
   -3    6   15    -10.54      0.00
   -2    6   15      1.02      0.00
   -1    6   15      2.98      0.00
    0    6   15     -3.91      0.00
    1    6   15     -0.22      0.00
    2    6   15      3.61      0.00
    3    6   15     -0.50      0.00
    4    6   15     -4.33      0.00
    5    6   15      4.69      0.00
    6    6   15      1.40      0.00
   -6    7   15     -8.29      0.00
   -5    7   15      0.03      0.00
   -4    7   15     10.90      0.00
   -3    7   15      2.07      0.00
   -2    7   15     -1.80      0.00
   -1    7   15     -5.86      0.00
    0    7   15      2.20      0.00
    1    7   15      3.69      0.00
    2    7   15      3.87      0.00
    3    7   15      1.83      0.00
    4    7   15     -0.41      0.00
  -20    0   16      7.22      0.00
  -19    0   16      1.03      0.00
    2    0   16     -0.78      0.00
    3    0   16     -1.84      0.00
    4    0   16     -1.15      0.00
    5    0   16     -4.37      0.00
    6    0   16      3.59      0.00
    7    0   16      3.78      0.00
    8    0   16      5.87      0.00
  -20    1   16      6.16      0.00
  -19    1   16      4.85      0.00
  -18    1   16      6.36      0.00
    2    1   16      6.39      0.00
    3    1   16      6.84      0.00
    4    1   16     -3.20      0.00
    5    1   16      4.39      0.00
    6    1   16     -4.19      0.00
    7    1   16      3.19      0.00
    8    1   16     -2.26      0.00
  -20    2   16     -3.78      0.00
  -19    2   16      0.89      0.00
  -18    2   16     -3.13      0.00
  -17    2   16     -5.11      0.00
    1    2   16      3.37      0.00
    2    2   16     -4.99      0.00
    3    2   16     -3.37      0.00
    4    2   16      1.96      0.00
    5    2   16     -5.52      0.00
    6    2   16      2.44      0.00
    7    2   16     -1.16      0.00
    8    2   16     -3.96      0.00
  -19    3   16      1.77      0.00
  -18    3   16      1.41      0.00
  -17    3   16      3.18      0.00
  -16    3   16      1.58      0.00
    0    3   16    -18.14      0.00
    1    3   16      1.20      0.00
    2    3   16     16.76      0.00
    3    3   16    -10.74      0.00
    4    3   16     -3.67      0.00
    5    3   16     -4.71      0.00
    6    3   16      1.74      0.00
    7    3   16     -0.37      0.00
  -18    4   16     -3.78      0.00
  -17    4   16     -2.39      0.00
  -16    4   16      1.42      0.00
  -15    4   16     11.21      0.00
   -1    4   16     18.61      0.00
    0    4   16      0.22      0.00
    1    4   16    -15.05      0.00
    2    4   16     -1.35      0.00
    3    4   16     11.23      0.00
    4    4   16     -4.87      0.00
    5    4   16     -2.24      0.00
    6    4   16     -4.71      0.00
  -16    5   16     -4.13      0.00
  -15    5   16     -8.00      0.00
  -14    5   16      3.99      0.00
  -13    5   16      0.92      0.00
  -12    5   16      7.23      0.00
   -2    5   16     -6.11      0.00
   -1    5   16      1.56      0.00
    0    5   16      9.54      0.00
    1    5   16      0.74      0.00
    2    5   16     -2.95      0.00
    3    5   16      0.53      0.00
    4    5   16     -1.16      0.00
    5    5   16     -1.13      0.00
   -5    6   16      4.73      0.00
   -4    6   16      5.76      0.00
   -3    6   16     -4.87      0.00
   -2    6   16     -5.31      0.00
   -1    6   16     -5.44      0.00
    0    6   16      3.42      0.00
    1    6   16      0.53      0.00
    2    6   16      1.08      0.00
    3    6   16      1.15      0.00
    4    6   16      5.67      0.00
    5    6   16      0.62      0.00
   -5    7   16     -3.19      0.00
   -4    7   16      4.77      0.00
   -3    7   16      5.09      0.00
   -2    7   16     -1.60      0.00
   -1    7   16      2.62      0.00
    0    7   16     -0.16      0.00
    1    7   16      0.58      0.00
    2    7   16     -0.44      0.00
    3    7   16      3.97      0.00
  -18    1   17     -4.54      0.00
  -17    1   17     -1.70      0.00
    0    1   17     -0.90      0.00
    1    1   17     -1.19      0.00
    2    1   17     -1.95      0.00
    3    1   17     -0.34      0.00
    4    1   17      0.21      0.00
    5    1   17     -1.52      0.00
    6    1   17      4.05      0.00
    7    1   17      8.47      0.00
  -18    2   17      0.98      0.00
  -17    2   17     -0.48      0.00
  -16    2   17      0.55      0.00
   -1    2   17      4.32      0.00
    0    2   17     -3.35      0.00
    1    2   17      4.93      0.00
    2    2   17      1.06      0.00
    3    2   17     -3.96      0.00
    4    2   17     -5.53      0.00
    5    2   17      3.65      0.00
    6    2   17     -1.40      0.00
    7    2   17     -2.87      0.00
  -17    3   17      1.63      0.00
  -16    3   17      4.27      0.00
  -15    3   17      0.79      0.00
   -2    3   17     -2.32      0.00
   -1    3   17      1.78      0.00
    0    3   17     -4.74      0.00
    1    3   17     -1.18      0.00
    2    3   17     -0.67      0.00
    3    3   17      7.97      0.00
    4    3   17     -7.02      0.00
    5    3   17     -7.41      0.00
    6    3   17      3.17      0.00
    7    3   17     -2.38      0.00
  -15    4   17     -3.85      0.00
  -14    4   17      0.41      0.00
  -13    4   17     -1.53      0.00
   -3    4   17      3.38      0.00
   -2    4   17      4.31      0.00
   -1    4   17      2.33      0.00
    0    4   17     -1.23      0.00
    1    4   17     -1.20      0.00
    2    4   17      3.42      0.00
    3    4   17     -5.83      0.00
    4    4   17      3.50      0.00
    5    4   17     -1.38      0.00
    6    4   17     -4.75      0.00
   -5    5   17    -11.63      0.00
   -4    5   17      0.60      0.00
   -3    5   17      7.51      0.00
   -2    5   17      0.00      0.00
   -1    5   17      3.87      0.00
    0    5   17      4.64      0.00
    1    5   17     -8.14      0.00
    2    5   17      3.95      0.00
    3    5   17      4.15      0.00
    4    5   17     -1.88      0.00
    5    5   17      0.82      0.00
   -9    6   17      4.94      0.00
   -8    6   17      0.02      0.00
   -7    6   17     -4.47      0.00
   -6    6   17      9.13      0.00
   -5    6   17     -1.62      0.00
   -4    6   17    -15.32      0.00
   -3    6   17      0.64      0.00
   -2    6   17      2.36      0.00
   -1    6   17     -1.62      0.00
    0    6   17      0.88      0.00
    1    6   17      2.39      0.00
    2    6   17     -4.21      0.00
   -2    0   18      5.19      0.00
   -1    0   18      1.75      0.00
    0    0   18     -0.42      0.00
    1    0   18    -10.08      0.00
    2    0   18      9.66      0.00
    3    0   18     -6.66      0.00
    4    0   18      3.10      0.00
    5    0   18      3.81      0.00
   -2    1   18     -4.66      0.00
   -1    1   18      2.47      0.00
    0    1   18     -2.09      0.00
    1    1   18     -3.34      0.00
    2    1   18      1.20      0.00
    3    1   18      0.27      0.00
    4    1   18     -0.79      0.00
    5    1   18      2.09      0.00
   -3    2   18     -3.66      0.00
   -2    2   18     -1.10      0.00
   -1    2   18      2.14      0.00
    0    2   18     -1.23      0.00
    1    2   18      1.38      0.00
    2    2   18     -1.57      0.00
    3    2   18      3.06      0.00
    4    2   18     -4.07      0.00
    5    2   18      5.76      0.00
   -4    3   18      1.19      0.00
   -3    3   18     -5.04      0.00
   -2    3   18      0.12      0.00
   -1    3   18     -2.47      0.00
    0    3   18     -0.91      0.00
    1    3   18      0.88      0.00
    2    3   18     -3.91      0.00
    3    3   18     -3.52      0.00
    4    3   18     -2.19      0.00
    5    3   18      8.56      0.00
   -6    4   18     -4.19      0.00
   -5    4   18      6.12      0.00
   -4    4   18      4.36      0.00
   -3    4   18     -1.03      0.00
   -2    4   18     -0.09      0.00
   -1    4   18      1.47      0.00
    0    4   18     -0.79      0.00
    1    4   18      1.26      0.00
    2    4   18      4.45      0.00
    3    4   18     -1.46      0.00
    4    4   18     -7.78      0.00
   -7    5   18     -2.03      0.00
   -6    5   18      0.34      0.00
   -5    5   18      0.40      0.00
   -4    5   18      2.33      0.00
   -3    5   18      1.33      0.00
   -2    5   18      0.77      0.00
   -1    5   18      0.79      0.00
    0    5   18      0.67      0.00
    1    5   18      4.80      0.00
   -6    1   19     -4.42      0.00
   -5    1   19      2.38      0.00
   -4    1   19      4.56      0.00
   -3    1   19      3.51      0.00
   -2    1   19      2.60      0.00
   -1    1   19     -4.12      0.00
    0    1   19     -4.12      0.00
   -7    2   19      6.32      0.00
   -6    2   19      3.24      0.00
   -5    2   19     -9.07      0.00
   -4    2   19     -3.59      0.00
   -3    2   19      8.34      0.00
   -2    2   19      5.52      0.00
   -1    2   19      5.48      0.00
    0    2   19     -5.38      0.00
   -6    3   19      6.33      0.00
   -5    3   19     -0.07      0.00
   -4    3   19    -11.00      0.00
   -3    3   19     -5.67      0.00
    1    0    0      0.88      0.00
    2    0    0    -33.61      0.00
   12    0    0      0.36      0.00
   13    0    0     -1.36      0.00
   14    0    0     19.89      0.00
   15    0    0      6.50      0.00
   24    0    0     -3.96      0.00
   25    0    0      3.87      0.00
   26    0    0     -4.47      0.00
   27    0    0      1.38      0.00
   28    0    0      0.92      0.00
   29    0    0     -2.15      0.00
    1    1    0    135.07      0.00
    2    1    0     -4.69      0.00
    3    1    0     19.16      0.00
    4    1    0      3.84      0.00
    5    1    0     21.81      0.00
    6    1    0      2.83      0.00
    7    1    0      2.34      0.00
    8    1    0     -1.68      0.00
   24    1    0      1.48      0.00
   25    1    0     -0.02      0.00
   26    1    0      0.53      0.00
   27    1    0     -0.11      0.00
   28    1    0      0.35      0.00
   29    1    0      0.46      0.00
    0    2    0    -62.32      0.00
    1    2    0     -0.35      0.00
    2    2    0    -64.43      0.00
    3    2    0     -3.02      0.00
    4    2    0    -20.60      0.00
    5    2    0     -3.46      0.00
    6    2    0      0.14      0.00
    7    2    0      0.69      0.00
    8    2    0     -3.07      0.00
   24    2    0      7.70      0.00
   25    2    0     -2.20      0.00
   26    2    0     -1.66      0.00
   27    2    0     -0.17      0.00
   28    2    0     -0.27      0.00
   29    2    0     -0.42      0.00
    1    3    0     15.44      0.00
    2    3    0     -6.22      0.00
    3    3    0     15.48      0.00
    4    3    0     -2.49      0.00
    5    3    0     -2.43      0.00
    6    3    0     -4.65      0.00
    7    3    0      7.86      0.00
    8    3    0      1.16      0.00
    9    3    0      4.13      0.00
   10    3    0     -1.83      0.00
   24    3    0     -1.53      0.00
   25    3    0     -2.41      0.00
   26    3    0     -1.22      0.00
   27    3    0     -2.71      0.00
   28    3    0      1.17      0.00
   29    3    0     -1.04      0.00
    0    4    0    -12.85      0.00
    1    4    0     -0.07      0.00
    2    4    0     -3.36      0.00
    3    4    0      4.91      0.00
    4    4    0      1.23      0.00
    5    4    0     -4.64      0.00
    6    4    0      1.18      0.00
    7    4    0      5.88      0.00
    8    4    0      1.43      0.00
    9    4    0      2.32      0.00
   10    4    0      2.73      0.00
   11    4    0      7.65      0.00
   23    4    0      1.69      0.00
   24    4    0     -0.48      0.00
   25    4    0      0.75      0.00
   26    4    0     -1.46      0.00
   27    4    0      0.60      0.00
   28    4    0      0.92      0.00
   29    4    0     -0.76      0.00
    1    5    0     -4.36      0.00
    2    5    0     -1.12      0.00
    3    5    0     -4.39      0.00
    4    5    0      1.93      0.00
    5    5    0    -14.08      0.00
    6    5    0      1.06      0.00
    7    5    0     -1.39      0.00
    8    5    0      0.03      0.00
    9    5    0     -3.35      0.00
   10    5    0     -2.05      0.00
   11    5    0     -0.20      0.00
   22    5    0      0.52      0.00
   23    5    0      5.13      0.00
   24    5    0      0.53      0.00
   25    5    0      3.83      0.00
   26    5    0     -0.41      0.00
   27    5    0      3.25      0.00
   28    5    0     -1.04      0.00
   29    5    0      2.50      0.00
    0    6    0     -3.95      0.00
    1    6    0      2.44      0.00
    2    6    0      8.41      0.00
    3    6    0      1.70      0.00
    4    6    0      7.25      0.00
    5    6    0     -3.24      0.00
    6    6    0      3.93      0.00
    7    6    0      0.03      0.00
    8    6    0      7.35      0.00
    9    6    0     -2.45      0.00
   10    6    0      0.86      0.00
   20    6    0     -2.35      0.00
   21    6    0      1.48      0.00
   22    6    0      1.85      0.00
   23    6    0      1.26      0.00
   24    6    0      0.91      0.00
   25    6    0     -0.63      0.00
   26    6    0     -0.22      0.00
   27    6    0      1.09      0.00
   28    6    0      0.01      0.00
   29    6    0      0.54      0.00
    1    7    0     -2.66      0.00
    2    7    0      1.98      0.00
    3    7    0     -3.23      0.00
    4    7    0      1.82      0.00
    5    7    0     -2.00      0.00
    6    7    0      4.26      0.00
    7    7    0     -0.23      0.00
    8    7    0      2.95      0.00
    9    7    0     -0.73      0.00
   18    7    0     -0.87      0.00
   19    7    0      0.10      0.00
   20    7    0     -0.25      0.00
   21    7    0     -2.84      0.00
   22    7    0     -0.78      0.00
   23    7    0     -0.68      0.00
   24    7    0     -0.25      0.00
   25    7    0     -0.99      0.00
   26    7    0      0.05      0.00
   27    7    0      0.22      0.00
   28    7    0      0.36      0.00
   29    7    0     -0.52      0.00
    0    8    0      4.69      0.00
    1    8    0      0.83      0.00
    2    8    0     -0.80      0.00
    3    8    0     -1.45      0.00
    4    8    0      2.71      0.00
    5    8    0     -2.32      0.00
    6    8    0     -3.88      0.00
    7    8    0     -1.33      0.00
    8    8    0     -1.00      0.00
    9    8    0      1.01      0.00
   10    8    0     -0.95      0.00
   11    8    0     -1.90      0.00
   12    8    0      3.88      0.00
   13    8    0      1.74      0.00
   17    8    0     -0.82      0.00
   18    8    0     -1.43      0.00
   19    8    0     -1.18      0.00
   20    8    0     -1.50      0.00
   21    8    0     -0.18      0.00
   22    8    0     -0.85      0.00
   23    8    0      0.89      0.00
   24    8    0     -0.53      0.00
   25    8    0     -0.49      0.00
   26    8    0     -0.65      0.00
   27    8    0     -0.29      0.00
   28    8    0      0.57      0.00
   29    8    0     -0.41      0.00
    1    9    0      2.01      0.00
    2    9    0      1.76      0.00
    3    9    0     -1.53      0.00
    4    9    0      1.76      0.00
    5    9    0      4.29      0.00
    6    9    0     -0.01      0.00
    7    9    0      3.10      0.00
    8    9    0      1.06      0.00
    9    9    0      1.94      0.00
   10    9    0      0.74      0.00
   11    9    0      0.97      0.00
   12    9    0     -1.44      0.00
   15    9    0      1.06      0.00
   16    9    0      0.60      0.00
   17    9    0     -0.19      0.00
   18    9    0      1.32      0.00
   19    9    0      0.42      0.00
   20    9    0     -0.72      0.00
   21    9    0     -0.63      0.00
   22    9    0     -0.35      0.00
   23    9    0      0.49      0.00
   24    9    0      0.03      0.00
   25    9    0      0.23      0.00
   26    9    0     -0.34      0.00
   27    9    0     -0.58      0.00
   28    9    0      0.18      0.00
   29    9    0     -0.38      0.00
    0   10    0      1.61      0.00
    1   10    0     -2.34      0.00
    2   10    0      1.75      0.00
    3   10    0      0.63      0.00
    4   10    0     -0.41      0.00
    5   10    0     -2.12      0.00
    6   10    0     -2.48      0.00
    7   10    0     -0.11      0.00
    8   10    0     -0.84      0.00
    9   10    0      1.50      0.00
   10   10    0     -2.92      0.00
   11   10    0     -1.93      0.00
   12   10    0     -1.62      0.00
   13   10    0     -3.82      0.00
   14   10    0      2.90      0.00
   15   10    0      3.71      0.00
   16   10    0      0.66      0.00
   17   10    0      0.87      0.00
   18   10    0      2.26      0.00
   19   10    0     -0.36      0.00
   20   10    0      0.39      0.00
   21   10    0      0.46      0.00
   22   10    0     -0.42      0.00
   23   10    0      0.39      0.00
   24   10    0     -0.67      0.00
   25   10    0     -0.50      0.00
   26   10    0     -0.83      0.00
   27   10    0     -0.63      0.00
   28   10    0     -0.44      0.00
  -29    1    1      1.38      0.00
  -28    1    1      0.25      0.00
  -27    1    1     -0.24      0.00
  -26    1    1      0.78      0.00
   -7    1    1     -5.87      0.00
   -6    1    1      0.21      0.00
   -5    1    1      6.22      0.00
   -4    1    1     -1.58      0.00
   -3    1    1    -13.05      0.00
   -2    1    1     -2.88      0.00
   -1    1    1     41.84      0.00
    0    1    1     10.03      0.00
    1    1    1    -42.86      0.00
    2    1    1    -19.03      0.00
    3    1    1     14.72      0.00
    4    1    1      7.44      0.00
    5    1    1     -5.12      0.00
    6    1    1     -7.76      0.00
    7    1    1     10.71      0.00
   13    1    1      2.29      0.00
   14    1    1      5.07      0.00
   22    1    1      0.71      0.00
   23    1    1     -3.79      0.00
   24    1    1      1.15      0.00
   25    1    1     -1.35      0.00
   26    1    1      0.46      0.00
   27    1    1      0.78      0.00
   28    1    1     -0.94      0.00
   29    1    1     -0.59      0.00
  -29    2    1     -0.37      0.00
  -28    2    1      0.63      0.00
  -27    2    1     -0.21      0.00
  -26    2    1      0.98      0.00
   -9    2    1     -2.69      0.00
   -8    2    1      2.21      0.00
   -7    2    1      3.62      0.00
   -6    2    1    -10.15      0.00
   -5    2    1      1.20      0.00
   -4    2    1     -4.39      0.00
   -3    2    1      4.87      0.00
   -2    2    1     13.22      0.00
   -1    2    1     13.91      0.00
    0    2    1      1.13      0.00
    1    2    1     -2.95      0.00
    2    2    1     15.51      0.00
    3    2    1      5.77      0.00
    4    2    1     -5.67      0.00
    5    2    1     -7.49      0.00
    6    2    1     -3.59      0.00
   22    2    1      5.17      0.00
   23    2    1      0.44      0.00
   24    2    1     -0.02      0.00
   25    2    1     -0.40      0.00
   26    2    1     -2.03      0.00
   27    2    1      0.59      0.00
   28    2    1     -0.77      0.00
   29    2    1      0.09      0.00
  -29    3    1      0.26      0.00
  -28    3    1      1.09      0.00
  -27    3    1     -1.85      0.00
  -26    3    1     -1.15      0.00
  -25    3    1     -0.22      0.00
  -11    3    1      4.33      0.00
  -10    3    1     -1.77      0.00
   -9    3    1      1.28      0.00
   -8    3    1      3.63      0.00
   -7    3    1      4.17      0.00
   -6    3    1     -0.42      0.00
   -5    3    1      2.67      0.00
   -4    3    1      6.25      0.00
   -3    3    1     -2.03      0.00
   -2    3    1      0.14      0.00
   -1    3    1     19.35      0.00
    0    3    1      8.00      0.00
    1    3    1    -21.36      0.00
    2    3    1     -3.30      0.00
    3    3    1      2.91      0.00
    4    3    1      3.44      0.00
    5    3    1     -5.06      0.00
    6    3    1      2.51      0.00
    7    3    1     -5.77      0.00
    8    3    1      5.36      0.00
   22    3    1      0.99      0.00
   23    3    1     -0.71      0.00
   24    3    1     -0.88      0.00
   25    3    1      1.12      0.00
   26    3    1     -0.42      0.00
   27    3    1      1.58      0.00
   28    3    1     -0.18      0.00
   29    3    1     -0.21      0.00
  -29    4    1     -0.14      0.00
  -28    4    1      0.10      0.00
  -27    4    1     -0.14      0.00
  -26    4    1     -0.52      0.00
  -25    4    1     -1.25      0.00
  -12    4    1      0.17      0.00
  -11    4    1     -1.47      0.00
  -10    4    1     -4.08      0.00
   -9    4    1     -4.26      0.00
   -8    4    1      4.37      0.00
   -7    4    1      1.64      0.00
   -6    4    1     -4.60      0.00
   -5    4    1     -3.72      0.00
   -4    4    1      1.02      0.00
   -3    4    1     -1.03      0.00
   -2    4    1      8.15      0.00
   -1    4    1      8.48      0.00
    0    4    1     -2.53      0.00
    1    4    1     -6.45      0.00
    2    4    1     12.07      0.00
    3    4    1      5.40      0.00
    4    4    1     -7.23      0.00
    5    4    1     -1.62      0.00
    6    4    1     -2.41      0.00
    7    4    1      4.36      0.00
    8    4    1     -0.84      0.00
    9    4    1      6.57      0.00
   10    4    1     -8.64      0.00
   21    4    1     -1.56      0.00
   22    4    1     -1.15      0.00
   23    4    1      2.47      0.00
   24    4    1     -2.39      0.00
   25    4    1     -0.17      0.00
   26    4    1     -0.47      0.00
   27    4    1      1.50      0.00
   28    4    1      1.46      0.00
   29    4    1      0.59      0.00
  -29    5    1     -1.03      0.00
  -28    5    1     -1.08      0.00
  -27    5    1     -0.53      0.00
  -26    5    1     -2.05      0.00
  -25    5    1      3.77      0.00
  -24    5    1      0.00      0.00
  -11    5    1     -2.21      0.00
  -10    5    1     -1.04      0.00
   -9    5    1     -0.94      0.00
   -8    5    1      1.65      0.00
   -7    5    1      1.65      0.00
   -6    5    1     -4.87      0.00
   -5    5    1     -5.21      0.00
   -4    5    1      1.27      0.00
   -3    5    1      3.55      0.00
   -2    5    1     -1.94      0.00
   -1    5    1     -0.07      0.00
    0    5    1      5.31      0.00
    1    5    1     -4.91      0.00
    2    5    1      3.68      0.00
    3    5    1     -1.93      0.00
    4    5    1     -0.21      0.00
    5    5    1      5.48      0.00
    6    5    1     -2.35      0.00
    7    5    1     -3.42      0.00
    8    5    1      1.32      0.00
    9    5    1      0.75      0.00
   10    5    1      3.17      0.00
   19    5    1      2.00      0.00
   20    5    1     -0.28      0.00
   21    5    1      0.47      0.00
   22    5    1     -2.67      0.00
   23    5    1      0.95      0.00
   24    5    1     -0.03      0.00
   25    5    1     -0.50      0.00
   26    5    1     -1.44      0.00
   27    5    1     -0.78      0.00
   28    5    1      0.22      0.00
   29    5    1     -0.55      0.00
  -29    6    1      1.03      0.00
  -28    6    1     -0.31      0.00
  -27    6    1     -0.25      0.00
  -26    6    1      1.91      0.00
  -25    6    1      0.32      0.00
  -24    6    1      5.15      0.00
  -23    6    1     -0.63      0.00
  -22    6    1      0.28      0.00
  -10    6    1      4.10      0.00
   -9    6    1     -1.07      0.00
   -8    6    1      3.84      0.00
   -7    6    1     -0.93      0.00
   -6    6    1     -0.46      0.00
   -5    6    1     -4.92      0.00
   -4    6    1      0.50      0.00
   -3    6    1     -1.98      0.00
   -2    6    1      3.63      0.00
   -1    6    1     -1.27      0.00
    0    6    1     -1.04      0.00
    1    6    1     -4.51      0.00
    2    6    1      2.21      0.00
    3    6    1     -2.32      0.00
    4    6    1     -9.77      0.00
    5    6    1      6.20      0.00
    6    6    1      0.28      0.00
    7    6    1     -0.25      0.00
    8    6    1     -0.87      0.00
    9    6    1      4.34      0.00
   19    6    1     -1.51      0.00
   20    6    1      1.62      0.00
   21    6    1     -0.50      0.00
   22    6    1      0.29      0.00
   23    6    1     -1.01      0.00
   24    6    1      0.47      0.00
   25    6    1     -0.10      0.00
   26    6    1      1.41      0.00
   27    6    1     -0.90      0.00
   28    6    1      0.19      0.00
   29    6    1     -0.99      0.00
  -29    7    1      0.73      0.00
  -28    7    1      0.75      0.00
  -27    7    1      0.83      0.00
  -26    7    1      0.95      0.00
  -25    7    1      0.73      0.00
  -24    7    1      0.83      0.00
  -23    7    1      2.31      0.00
  -22    7    1      1.24      0.00
  -21    7    1      1.73      0.00
  -20    7    1     -1.80      0.00
   -9    7    1     -2.12      0.00
   -8    7    1      0.04      0.00
   -7    7    1      0.27      0.00
   -6    7    1     -0.46      0.00
   -5    7    1     -3.25      0.00
   -4    7    1     -2.27      0.00
   -3    7    1     -3.08      0.00
   -2    7    1      1.42      0.00
   -1    7    1      3.16      0.00
    0    7    1      2.76      0.00
    1    7    1      0.69      0.00
    2    7    1      2.24      0.00
    3    7    1      5.74      0.00
    4    7    1     -3.06      0.00
    5    7    1      5.01      0.00
    6    7    1     -3.11      0.00
    7    7    1     -1.34      0.00
    8    7    1      0.23      0.00
    9    7    1      1.25      0.00
   10    7    1      0.63      0.00
   11    7    1     -2.91      0.00
   18    7    1      0.05      0.00
   19    7    1     -0.43      0.00
   20    7    1     -0.46      0.00
   21    7    1     -1.45      0.00
   22    7    1     -0.57      0.00
   23    7    1     -0.58      0.00
   24    7    1     -0.11      0.00
   25    7    1     -1.83      0.00
   26    7    1      0.13      0.00
   27    7    1     -0.77      0.00
   28    7    1      0.83      0.00
   29    7    1      0.34      0.00
  -29    8    1      1.06      0.00
  -28    8    1      0.21      0.00
  -27    8    1     -0.94      0.00
  -26    8    1      0.70      0.00
  -25    8    1      0.76      0.00
  -24    8    1     -0.30      0.00
  -23    8    1     -1.00      0.00
  -22    8    1     -0.23      0.00
  -21    8    1      3.05      0.00
  -20    8    1     -1.61      0.00
  -19    8    1      1.41      0.00
  -18    8    1      4.65      0.00
  -17    8    1      1.25      0.00
  -11    8    1     -0.93      0.00
  -10    8    1     -1.48      0.00
   -9    8    1     -0.89      0.00
   -8    8    1     -3.48      0.00
   -7    8    1      0.52      0.00
   -6    8    1     -1.05      0.00
   -5    8    1     -2.19      0.00
   -4    8    1     -1.44      0.00
   -3    8    1     -2.80      0.00
   -2    8    1     -1.33      0.00
   -1    8    1     -2.82      0.00
    0    8    1      0.76      0.00
    1    8    1     -2.42      0.00
    2    8    1     -0.14      0.00
    3    8    1      1.16      0.00
    4    8    1     -1.65      0.00
    5    8    1      4.33      0.00
    6    8    1      2.14      0.00
    7    8    1     -2.60      0.00
    8    8    1     -0.77      0.00
    9    8    1      0.23      0.00
   10    8    1      0.05      0.00
   11    8    1     -1.73      0.00
   16    8    1     -1.52      0.00
   17    8    1      1.89      0.00
   18    8    1      2.03      0.00
   19    8    1      2.46      0.00
   20    8    1      2.01      0.00
   21    8    1      1.16      0.00
   22    8    1     -0.36      0.00
   23    8    1     -1.40      0.00
   24    8    1      1.03      0.00
   25    8    1     -0.94      0.00
   26    8    1      0.79      0.00
   27    8    1     -0.03      0.00
   28    8    1     -0.45      0.00
   29    8    1      1.08      0.00
  -29    9    1     -0.20      0.00
  -28    9    1     -0.26      0.00
  -27    9    1     -0.31      0.00
  -26    9    1     -0.06      0.00
  -25    9    1     -0.45      0.00
  -24    9    1      0.68      0.00
  -23    9    1     -0.11      0.00
  -22    9    1      1.03      0.00
  -21    9    1     -1.16      0.00
  -20    9    1      0.50      0.00
  -19    9    1     -1.55      0.00
  -18    9    1      3.65      0.00
  -17    9    1      1.39      0.00
  -16    9    1     -2.33      0.00
  -15    9    1     -0.93      0.00
  -13    9    1     -3.07      0.00
  -12    9    1      1.00      0.00
  -11    9    1      0.10      0.00
  -10    9    1      2.23      0.00
   -9    9    1     -2.51      0.00
   -8    9    1     -0.67      0.00
   -7    9    1     -0.35      0.00
   -6    9    1      0.53      0.00
   -5    9    1      1.26      0.00
   -4    9    1     -1.53      0.00
   -3    9    1     -3.32      0.00
   -2    9    1     -1.94      0.00
   -1    9    1      3.24      0.00
    0    9    1     -2.55      0.00
    1    9    1     -1.49      0.00
    2    9    1     -4.01      0.00
    3    9    1      4.02      0.00
    4    9    1     -3.43      0.00
    5    9    1     -2.00      0.00
    6    9    1     -2.02      0.00
    7    9    1     -0.85      0.00
    8    9    1     -1.54      0.00
    9    9    1      0.64      0.00
   10    9    1     -2.19      0.00
   11    9    1      0.14      0.00
   14    9    1     -1.38      0.00
   15    9    1      0.40      0.00
   16    9    1      0.15      0.00
   17    9    1     -1.40      0.00
   18    9    1     -0.02      0.00
   19    9    1     -1.73      0.00
   20    9    1      0.85      0.00
   21    9    1     -0.06      0.00
   22    9    1      2.02      0.00
   23    9    1     -0.14      0.00
   24    9    1      0.75      0.00
   25    9    1      0.64      0.00
   26    9    1     -0.54      0.00
   27    9    1      1.15      0.00
   28    9    1      0.16      0.00
   29    9    1     -0.03      0.00
  -28   10    1     -0.96      0.00
  -27   10    1     -0.35      0.00
  -26   10    1     -0.34      0.00
  -25   10    1      1.04      0.00
  -24   10    1     -0.39      0.00
  -23   10    1     -0.35      0.00
  -22   10    1     -0.44      0.00
  -21   10    1      1.84      0.00
  -20   10    1     -0.77      0.00
  -19   10    1     -0.75      0.00
  -18   10    1     -0.52      0.00
  -17   10    1      0.70      0.00
  -16   10    1     -1.61      0.00
  -15   10    1     -1.40      0.00
  -14   10    1      0.77      0.00
  -13   10    1      0.06      0.00
  -12   10    1     -1.51      0.00
  -11   10    1      0.64      0.00
  -10   10    1     -1.77      0.00
   -9   10    1      2.51      0.00
   -8   10    1     -3.05      0.00
   -7   10    1      0.30      0.00
   -6   10    1      0.12      0.00
   -5   10    1      1.05      0.00
   -4   10    1     -1.18      0.00
   -3   10    1     -0.13      0.00
   -2   10    1      0.33      0.00
   -1   10    1      1.90      0.00
    0   10    1     -2.62      0.00
    1   10    1     -0.40      0.00
    2   10    1     -0.13      0.00
    3   10    1      3.69      0.00
    4   10    1      1.20      0.00
    5   10    1      0.40      0.00
    6   10    1      2.18      0.00
    7   10    1     -0.61      0.00
    8   10    1      0.31      0.00
    9   10    1     -2.36      0.00
   10   10    1     -0.57      0.00
   11   10    1     -2.52      0.00
   12   10    1     -1.09      0.00
   13   10    1     -1.24      0.00
   14   10    1      1.63      0.00
   15   10    1     -1.62      0.00
   16   10    1      1.34      0.00
   17   10    1      0.44      0.00
   18   10    1      1.02      0.00
   19   10    1     -0.32      0.00
   20   10    1      1.26      0.00
   21   10    1      1.02      0.00
   22   10    1     -0.43      0.00
   23   10    1      0.89      0.00
   24   10    1     -0.56      0.00
   25   10    1      0.59      0.00
   26   10    1     -0.37      0.00
   27   10    1     -0.92      0.00
   28   10    1     -0.64      0.00
  -29    0    2      0.35      0.00
  -28    0    2      0.74      0.00
  -27    0    2     -1.17      0.00
  -15    0    2      3.53      0.00
   -5    0    2    -11.30      0.00
   -4    0    2     -5.78      0.00
   13    0    2     11.25      0.00
   14    0    2     -5.86      0.00
   19    0    2     -3.20      0.00
   20    0    2     -5.68      0.00
   21    0    2     -2.31      0.00
   22    0    2     -2.13      0.00
   23    0    2     -2.13      0.00
   24    0    2     -0.03      0.00
   25    0    2     -0.25      0.00
   26    0    2      0.76      0.00
   27    0    2      1.00      0.00
   28    0    2     -0.38      0.00
   29    0    2      0.51      0.00
  -29    1    2     -0.37      0.00
  -28    1    2      0.68      0.00
  -27    1    2      1.04      0.00
   -2    1    2     -2.02      0.00
   -1    1    2      0.42      0.00
    0    1    2     21.15      0.00
   14    1    2      2.93      0.00
   19    1    2      2.34      0.00
   20    1    2      2.46      0.00
   21    1    2      1.33      0.00
   22    1    2      0.57      0.00
   23    1    2      1.39      0.00
   24    1    2      0.69      0.00
   25    1    2      1.06      0.00
   26    1    2      0.05      0.00
   27    1    2     -0.05      0.00
   28    1    2      1.28      0.00
   29    1    2     -0.55      0.00
  -29    2    2      1.23      0.00
  -28    2    2      0.35      0.00
  -27    2    2     -3.34      0.00
  -11    2    2      1.65      0.00
  -10    2    2     -3.19      0.00
   -9    2    2    -12.26      0.00
   -8    2    2     -6.48      0.00
   -7    2    2      7.29      0.00
   -6    2    2      1.82      0.00
   -5    2    2      0.42      0.00
   -4    2    2      2.04      0.00
   -3    2    2     11.63      0.00
   -2    2    2      6.59      0.00
   -1    2    2      4.88      0.00
    0    2    2     -8.88      0.00
    1    2    2    -30.96      0.00
    2    2    2     -0.54      0.00
    3    2    2      0.35      0.00
   19    2    2      3.25      0.00
   20    2    2      0.06      0.00
   21    2    2      1.20      0.00
   22    2    2      1.17      0.00
   23    2    2      1.11      0.00
   24    2    2     -1.23      0.00
   25    2    2      1.29      0.00
   26    2    2      0.23      0.00
   27    2    2     -0.55      0.00
   28    2    2     -1.78      0.00
   29    2    2     -0.56      0.00
  -29    3    2      0.07      0.00
  -28    3    2      1.79      0.00
  -27    3    2     -1.25      0.00
  -12    3    2     -1.91      0.00
  -11    3    2     -1.92      0.00
  -10    3    2     -3.81      0.00
   -9    3    2      2.11      0.00
   -8    3    2      4.44      0.00
   -7    3    2     -0.63      0.00
   -6    3    2    -10.26      0.00
   -5    3    2     -3.04      0.00
   -4    3    2      1.45      0.00
   -3    3    2      6.34      0.00
   -2    3    2     -4.82      0.00
   -1    3    2     -6.51      0.00
    0    3    2     -4.99      0.00
    1    3    2      7.64      0.00
    2    3    2      7.16      0.00
    3    3    2     -7.63      0.00
    4    3    2     -1.66      0.00
    5    3    2     -3.31      0.00
    6    3    2      5.43      0.00
   19    3    2      1.13      0.00
   20    3    2      1.65      0.00
   21    3    2     -1.50      0.00
   22    3    2     -3.36      0.00
   23    3    2      1.24      0.00
   24    3    2     -0.85      0.00
   25    3    2     -1.55      0.00
   26    3    2     -0.71      0.00
   27    3    2     -0.01      0.00
   28    3    2     -0.28      0.00
   29    3    2     -0.88      0.00
  -29    4    2      1.85      0.00
  -28    4    2     -0.02      0.00
  -27    4    2      0.15      0.00
  -26    4    2      1.33      0.00
  -12    4    2     -0.29      0.00
  -11    4    2      0.18      0.00
  -10    4    2     -0.37      0.00
   -9    4    2      3.79      0.00
   -8    4    2     -5.39      0.00
   -7    4    2      4.09      0.00
   -6    4    2      3.25      0.00
   -5    4    2     -2.05      0.00
   -4    4    2      1.75      0.00
   -3    4    2      6.88      0.00
   -2    4    2      0.53      0.00
   -1    4    2      4.24      0.00
    0    4    2      1.59      0.00
    1    4    2     -0.04      0.00
    2    4    2      0.93      0.00
    3    4    2      4.48      0.00
    4    4    2     -5.23      0.00
    5    4    2      7.51      0.00
    6    4    2     -1.39      0.00
    7    4    2      5.71      0.00
    8    4    2     -3.15      0.00
   17    4    2      2.94      0.00
   18    4    2      1.24      0.00
   19    4    2     -3.66      0.00
   20    4    2      1.86      0.00
   21    4    2      0.24      0.00
   22    4    2      0.05      0.00
   23    4    2     -2.78      0.00
   24    4    2      0.67      0.00
   25    4    2     -1.51      0.00
   26    4    2      1.75      0.00
   27    4    2      0.48      0.00
   28    4    2     -0.33      0.00
   29    4    2      0.25      0.00
  -29    5    2      1.11      0.00
  -28    5    2      1.40      0.00
  -27    5    2      1.98      0.00
  -26    5    2     -1.34      0.00
  -25    5    2     -0.51      0.00
  -11    5    2      4.16      0.00
  -10    5    2     -6.22      0.00
   -9    5    2      1.01      0.00
   -8    5    2     -3.59      0.00
   -7    5    2     -4.36      0.00
   -6    5    2     -3.79      0.00
   -5    5    2      2.58      0.00
   -4    5    2      6.30      0.00
   -3    5    2      0.12      0.00
   -2    5    2     -0.82      0.00
   -1    5    2     -0.57      0.00
    0    5    2      5.98      0.00
    1    5    2      3.76      0.00
    2    5    2      0.96      0.00
    3    5    2     -1.12      0.00
    4    5    2     -3.92      0.00
    5    5    2     -3.84      0.00
    6    5    2     -6.48      0.00
    7    5    2      2.85      0.00
    8    5    2      3.06      0.00
    9    5    2      0.96      0.00
   18    5    2      1.37      0.00
   19    5    2     -2.71      0.00
   20    5    2      2.66      0.00
   21    5    2     -1.25      0.00
   22    5    2      0.36      0.00
   23    5    2      1.76      0.00
   24    5    2      0.81      0.00
   25    5    2     -0.18      0.00
   26    5    2      0.43      0.00
   27    5    2      1.08      0.00
   28    5    2      1.82      0.00
   29    5    2     -1.19      0.00
  -29    6    2     -0.64      0.00
  -28    6    2     -0.89      0.00
  -27    6    2      0.44      0.00
  -26    6    2      0.06      0.00
  -25    6    2      1.27      0.00
  -24    6    2     -1.17      0.00
  -10    6    2      0.82      0.00
   -9    6    2      1.34      0.00
   -8    6    2     -3.45      0.00
   -7    6    2     -2.86      0.00
   -6    6    2      0.63      0.00
   -5    6    2     -3.97      0.00
   -4    6    2      0.35      0.00
   -3    6    2      4.89      0.00
   -2    6    2     -2.97      0.00
   -1    6    2     -8.60      0.00
    0    6    2      2.36      0.00
    1    6    2      2.07      0.00
    2    6    2     -2.33      0.00
    3    6    2     -2.25      0.00
    4    6    2      1.45      0.00
    5    6    2      7.95      0.00
    6    6    2     -1.82      0.00
    7    6    2      3.04      0.00
    8    6    2     -0.63      0.00
    9    6    2      5.35      0.00
   19    6    2     -1.86      0.00
   20    6    2     -0.90      0.00
   21    6    2      2.06      0.00
   22    6    2     -1.45      0.00
   23    6    2      1.09      0.00
   24    6    2      1.01      0.00
   25    6    2     -1.55      0.00
   26    6    2      0.83      0.00
   27    6    2     -1.00      0.00
   28    6    2      0.87      0.00
   29    6    2      0.28      0.00
  -29    7    2      0.38      0.00
  -28    7    2      0.91      0.00
  -27    7    2     -0.40      0.00
  -26    7    2      0.83      0.00
  -25    7    2      0.29      0.00
  -24    7    2      1.33      0.00
  -23    7    2      3.41      0.00
  -22    7    2      4.03      0.00
   -9    7    2      2.58      0.00
   -8    7    2     -0.47      0.00
   -7    7    2     -1.39      0.00
   -6    7    2      0.78      0.00
   -5    7    2      2.83      0.00
   -4    7    2      3.03      0.00
   -3    7    2      0.55      0.00
   -2    7    2      1.80      0.00
   -1    7    2      0.39      0.00
    0    7    2      0.58      0.00
    1    7    2     -0.07      0.00
    2    7    2     -2.97      0.00
    3    7    2      0.60      0.00
    4    7    2     -1.23      0.00
    5    7    2     -4.27      0.00
    6    7    2     -5.26      0.00
    7    7    2      0.35      0.00
    8    7    2     -0.99      0.00
    9    7    2     -1.91      0.00
   10    7    2      0.97      0.00
   18    7    2      4.00      0.00
   19    7    2     -1.80      0.00
   20    7    2     -0.37      0.00
   21    7    2     -0.21      0.00
   22    7    2     -0.54      0.00
   23    7    2     -0.48      0.00
   24    7    2      1.74      0.00
   25    7    2     -0.90      0.00
   26    7    2      0.09      0.00
   27    7    2      0.27      0.00
   28    7    2      0.62      0.00
   29    7    2      1.29      0.00
  -29    8    2     -0.07      0.00
  -28    8    2      0.02      0.00
  -27    8    2      0.30      0.00
  -26    8    2     -0.16      0.00
  -25    8    2     -1.65      0.00
  -24    8    2      0.65      0.00
  -23    8    2     -0.96      0.00
  -22    8    2      1.11      0.00
  -21    8    2      2.04      0.00
  -20    8    2      4.08      0.00
  -11    8    2      2.66      0.00
  -10    8    2      1.38      0.00
   -9    8    2      0.31      0.00
   -8    8    2      5.90      0.00
   -7    8    2     -3.10      0.00
   -6    8    2      1.52      0.00
   -5    8    2     -3.16      0.00
   -4    8    2     -2.83      0.00
   -3    8    2     -1.14      0.00
   -2    8    2      2.08      0.00
   -1    8    2      0.11      0.00
    0    8    2      0.35      0.00
    1    8    2      0.29      0.00
    2    8    2      1.26      0.00
    3    8    2      0.24      0.00
    4    8    2      3.69      0.00
    5    8    2     -1.01      0.00
    6    8    2      0.01      0.00
    7    8    2     -1.66      0.00
    8    8    2      0.86      0.00
    9    8    2     -2.80      0.00
   10    8    2      2.00      0.00
   16    8    2      0.87      0.00
   17    8    2     -1.89      0.00
   18    8    2      1.04      0.00
   19    8    2     -1.20      0.00
   20    8    2     -2.31      0.00
   21    8    2     -0.22      0.00
   22    8    2     -1.77      0.00
   23    8    2      0.87      0.00
   24    8    2     -0.72      0.00
   25    8    2      0.63      0.00
   26    8    2     -0.96      0.00
   27    8    2      0.96      0.00
   28    8    2     -1.20      0.00
   29    8    2      1.19      0.00
  -29    9    2     -0.23      0.00
  -28    9    2      0.57      0.00
  -27    9    2      0.27      0.00
  -26    9    2      0.39      0.00
  -25    9    2      0.00      0.00
  -24    9    2     -0.09      0.00
  -23    9    2     -0.30      0.00
  -22    9    2      1.86      0.00
  -21    9    2     -1.88      0.00
  -20    9    2      0.67      0.00
  -19    9    2     -2.45      0.00
  -18    9    2      5.40      0.00
  -17    9    2      3.70      0.00
  -16    9    2      0.16      0.00
  -15    9    2      1.62      0.00
  -14    9    2     -0.75      0.00
  -13    9    2      1.97      0.00
  -12    9    2      1.23      0.00
  -11    9    2     -0.97      0.00
  -10    9    2      2.08      0.00
   -9    9    2      0.35      0.00
   -8    9    2      1.45      0.00
   -7    9    2      3.13      0.00
   -6    9    2     -0.11      0.00
   -5    9    2     -0.04      0.00
   -4    9    2      0.78      0.00
   -3    9    2     -0.71      0.00
   -2    9    2     -3.82      0.00
   -1    9    2     -1.27      0.00
    0    9    2     -1.38      0.00
    1    9    2     -0.25      0.00
    2    9    2     -0.29      0.00
    3    9    2      1.39      0.00
    4    9    2     -0.11      0.00
    5    9    2     -2.97      0.00
    6    9    2     -0.02      0.00
    7    9    2      1.39      0.00
    8    9    2     -0.30      0.00
    9    9    2     -3.68      0.00
   10    9    2     -2.59      0.00
   11    9    2     -3.19      0.00
   12    9    2      2.36      0.00
   13    9    2      2.53      0.00
   14    9    2     -0.51      0.00
   15    9    2      3.87      0.00
   16    9    2      0.28      0.00
   17    9    2      1.97      0.00
   18    9    2      1.31      0.00
   19    9    2      2.18      0.00
   20    9    2      0.48      0.00
   21    9    2      0.98      0.00
   22    9    2     -2.14      0.00
   23    9    2     -0.50      0.00
   24    9    2      0.19      0.00
   25    9    2     -0.60      0.00
   26    9    2     -0.78      0.00
   27    9    2     -0.60      0.00
   28    9    2     -0.63      0.00
   29    9    2      0.43      0.00
  -28   10    2      0.33      0.00
  -27   10    2      0.85      0.00
  -26   10    2      0.21      0.00
  -25   10    2     -0.88      0.00
  -24   10    2     -0.29      0.00
  -23   10    2      0.10      0.00
  -22   10    2     -0.54      0.00
  -21   10    2     -0.34      0.00
  -20   10    2      0.95      0.00
  -19   10    2      1.54      0.00
  -18   10    2     -2.48      0.00
  -17   10    2     -0.07      0.00
  -16   10    2     -0.51      0.00
  -15   10    2      1.90      0.00
  -14   10    2     -0.78      0.00
  -13   10    2     -0.35      0.00
  -12   10    2      0.81      0.00
  -11   10    2     -0.45      0.00
  -10   10    2     -1.73      0.00
   -9   10    2      0.93      0.00
   -8   10    2      3.39      0.00
   -7   10    2     -2.25      0.00
   -6   10    2      1.31      0.00
   -5   10    2     -0.76      0.00
   -4   10    2     -0.03      0.00
   -3   10    2      0.47      0.00
   -2   10    2     -0.28      0.00
   -1   10    2      0.00      0.00
    0   10    2      0.30      0.00
    1   10    2     -0.52      0.00
    2   10    2     -1.64      0.00
    3   10    2      1.47      0.00
    4   10    2      2.46      0.00
    5   10    2     -1.40      0.00
    6   10    2     -0.51      0.00
    7   10    2     -0.54      0.00
    8   10    2      0.94      0.00
    9   10    2     -3.75      0.00
   10   10    2      1.08      0.00
   11   10    2     -2.64      0.00
   12   10    2     -2.42      0.00
   13   10    2     -2.94      0.00
   14   10    2     -1.57      0.00
   15   10    2     -1.71      0.00
   16   10    2      0.57      0.00
   17   10    2     -1.49      0.00
   18   10    2     -0.83      0.00
   19   10    2     -0.65      0.00
   20   10    2     -0.28      0.00
   21   10    2      1.29      0.00
   22   10    2      0.09      0.00
   23   10    2      0.00      0.00
   24   10    2      0.54      0.00
   25   10    2     -0.85      0.00
   26   10    2      1.52      0.00
   27   10    2     -0.29      0.00
   28   10    2     -0.73      0.00
  -29    1    3     -0.07      0.00
  -28    1    3      3.70      0.00
   14    1    3      4.54      0.00
   15    1    3     -3.79      0.00
   16    1    3      4.95      0.00
   17    1    3      1.09      0.00
   18    1    3      0.92      0.00
   19    1    3     -0.87      0.00
   20    1    3      0.73      0.00
   21    1    3     -1.44      0.00
   22    1    3     -3.01      0.00
   23    1    3     -2.21      0.00
   24    1    3      1.80      0.00
   25    1    3      0.74      0.00
   26    1    3     -1.49      0.00
   27    1    3     -1.16      0.00
   28    1    3      0.96      0.00
   29    1    3      1.33      0.00
  -29    2    3      0.73      0.00
  -28    2    3     -1.43      0.00
  -11    2    3    -18.32      0.00
  -10    2    3      4.29      0.00
   -9    2    3      6.30      0.00
   -5    2    3    -15.53      0.00
   -4    2    3     -0.69      0.00
   -3    2    3      5.18      0.00
   -2    2    3      0.35      0.00
   -1    2    3    -24.02      0.00
   15    2    3      2.57      0.00
   16    2    3      1.49      0.00
   17    2    3     -0.50      0.00
   18    2    3     -1.69      0.00
   19    2    3      3.39      0.00
   20    2    3      3.26      0.00
   21    2    3      1.94      0.00
   22    2    3      0.17      0.00
   23    2    3      2.86      0.00
   24    2    3     -0.43      0.00
   25    2    3      1.83      0.00
   26    2    3      0.81      0.00
   27    2    3      0.85      0.00
   28    2    3     -0.80      0.00
   29    2    3     -0.28      0.00
  -29    3    3      1.10      0.00
  -28    3    3     -1.02      0.00
  -13    3    3      2.04      0.00
  -12    3    3      6.60      0.00
  -11    3    3     -3.75      0.00
  -10    3    3     -1.89      0.00
   -9    3    3     -1.86      0.00
   -8    3    3      0.58      0.00
   -7    3    3     -2.41      0.00
   -6    3    3     -5.55      0.00
   -5    3    3     -4.99      0.00
   -4    3    3     10.02      0.00
   -3    3    3     -4.29      0.00
   -2    3    3     -7.99      0.00
   -1    3    3     -1.48      0.00
    0    3    3      6.31      0.00
    1    3    3      2.53      0.00
    2    3    3     -5.38      0.00
    3    3    3      3.74      0.00
   15    3    3     -2.19      0.00
   16    3    3     -1.57      0.00
   17    3    3      1.84      0.00
   18    3    3     -2.17      0.00
   19    3    3     -0.40      0.00
   20    3    3     -0.14      0.00
   21    3    3      3.60      0.00
   22    3    3     -2.31      0.00
   23    3    3      0.06      0.00
   24    3    3      2.04      0.00
   25    3    3      0.28      0.00
   26    3    3      0.00      0.00
   27    3    3     -0.79      0.00
   28    3    3     -0.25      0.00
   29    3    3     -0.09      0.00
  -29    4    3      2.00      0.00
  -28    4    3      1.63      0.00
  -27    4    3      1.87      0.00
  -12    4    3      0.74      0.00
  -11    4    3     -5.58      0.00
  -10    4    3      0.41      0.00
   -9    4    3      6.66      0.00
   -8    4    3      2.86      0.00
   -7    4    3      4.31      0.00
   -6    4    3     -0.17      0.00
   -5    4    3      2.89      0.00
   -4    4    3      2.50      0.00
   -3    4    3     16.88      0.00
   -2    4    3     -3.20      0.00
   -1    4    3     -1.29      0.00
    0    4    3     -1.54      0.00
    1    4    3     14.24      0.00
    2    4    3     -3.65      0.00
    3    4    3     -7.32      0.00
    4    4    3     -5.42      0.00
    5    4    3     13.50      0.00
   15    4    3      4.26      0.00
   16    4    3      0.24      0.00
   17    4    3     -1.13      0.00
   18    4    3     -0.37      0.00
   19    4    3      1.56      0.00
   20    4    3     -0.50      0.00
   21    4    3     -1.61      0.00
   22    4    3      1.35      0.00
   23    4    3     -1.51      0.00
   24    4    3     -0.10      0.00
   25    4    3     -1.83      0.00
   26    4    3      0.59      0.00
   27    4    3     -1.17      0.00
   28    4    3     -0.03      0.00
   29    4    3     -1.19      0.00
  -29    5    3     -1.38      0.00
  -28    5    3     -1.59      0.00
  -27    5    3     -1.81      0.00
  -11    5    3      0.72      0.00
  -10    5    3      1.76      0.00
   -9    5    3     -0.36      0.00
   -8    5    3     -1.60      0.00
   -7    5    3      1.31      0.00
   -6    5    3      8.07      0.00
   -5    5    3     -3.99      0.00
   -4    5    3      7.10      0.00
   -3    5    3     -5.86      0.00
   -2    5    3      4.92      0.00
   -1    5    3     -0.49      0.00
    0    5    3      8.84      0.00
    1    5    3     -1.68      0.00
    2    5    3     -3.55      0.00
    3    5    3      0.35      0.00
    4    5    3      1.08      0.00
    5    5    3     -0.35      0.00
    6    5    3     -6.66      0.00
    7    5    3      0.86      0.00
   16    5    3     -3.09      0.00
   17    5    3     -1.19      0.00
   18    5    3     -2.00      0.00
   19    5    3      0.66      0.00
   20    5    3      1.06      0.00
   21    5    3     -0.33      0.00
   22    5    3     -0.87      0.00
   23    5    3      1.40      0.00
   24    5    3      0.94      0.00
   25    5    3      0.74      0.00
   26    5    3      0.37      0.00
   27    5    3      1.24      0.00
   28    5    3      0.10      0.00
   29    5    3      0.64      0.00
  -29    6    3     -0.14      0.00
  -28    6    3     -1.54      0.00
  -27    6    3     -1.99      0.00
  -26    6    3     -1.09      0.00
  -25    6    3      1.00      0.00
  -10    6    3      0.33      0.00
   -9    6    3      4.67      0.00
   -8    6    3      3.58      0.00
   -7    6    3      1.18      0.00
   -6    6    3      1.33      0.00
   -5    6    3      4.07      0.00
   -4    6    3     -0.86      0.00
   -3    6    3      4.87      0.00
   -2    6    3     -2.43      0.00
   -1    6    3      1.53      0.00
    0    6    3     -2.15      0.00
    1    6    3      4.28      0.00
    2    6    3     -0.17      0.00
    3    6    3     -4.32      0.00
    4    6    3     -2.48      0.00
    5    6    3     -5.23      0.00
    6    6    3     -0.49      0.00
    7    6    3     -5.12      0.00
   17    6    3     -0.42      0.00
   18    6    3     -1.96      0.00
   19    6    3     -1.43      0.00
   20    6    3      0.06      0.00
   21    6    3     -0.87      0.00
   22    6    3     -1.19      0.00
   23    6    3      0.11      0.00
   24    6    3     -0.15      0.00
   25    6    3      1.26      0.00
   26    6    3     -0.60      0.00
   27    6    3      0.40      0.00
   28    6    3     -0.28      0.00
   29    6    3      0.26      0.00
  -29    7    3      0.55      0.00
  -28    7    3     -0.28      0.00
  -27    7    3      0.81      0.00
  -26    7    3     -1.35      0.00
  -25    7    3      1.85      0.00
  -24    7    3     -0.83      0.00
  -10    7    3     -4.64      0.00
   -9    7    3      0.31      0.00
   -8    7    3     -1.04      0.00
   -7    7    3      1.28      0.00
   -6    7    3     -1.46      0.00
   -5    7    3      0.45      0.00
   -4    7    3     -3.61      0.00
   -3    7    3      1.85      0.00
   -2    7    3     -0.59      0.00
   -1    7    3     -0.64      0.00
    0    7    3     -1.92      0.00
    1    7    3      0.61      0.00
    2    7    3      1.65      0.00
    3    7    3      0.65      0.00
    4    7    3      0.22      0.00
    5    7    3     -1.12      0.00
    6    7    3     -2.25      0.00
    7    7    3      0.19      0.00
    8    7    3     -0.08      0.00
   17    7    3      0.82      0.00
   18    7    3     -0.14      0.00
   19    7    3     -1.36      0.00
   20    7    3      0.30      0.00
   21    7    3      0.41      0.00
   22    7    3     -0.44      0.00
   23    7    3      0.64      0.00
   24    7    3     -0.49      0.00
   25    7    3      0.33      0.00
   26    7    3      0.62      0.00
   27    7    3      0.15      0.00
   28    7    3     -0.27      0.00
   29    7    3     -0.14      0.00
  -29    8    3      0.56      0.00
  -28    8    3      1.66      0.00
  -27    8    3      0.66      0.00
  -26    8    3      1.92      0.00
  -25    8    3     -0.99      0.00
  -24    8    3      0.57      0.00
  -23    8    3      0.98      0.00
  -22    8    3     -4.12      0.00
  -12    8    3     -0.81      0.00
  -11    8    3     -1.53      0.00
  -10    8    3     -3.25      0.00
   -9    8    3     -1.60      0.00
   -8    8    3      3.22      0.00
   -7    8    3     -0.88      0.00
   -6    8    3     -0.53      0.00
   -5    8    3     -1.96      0.00
   -4    8    3      2.20      0.00
   -3    8    3     -1.45      0.00
   -2    8    3      0.50      0.00
   -1    8    3     -1.31      0.00
    0    8    3     -1.08      0.00
    1    8    3     -0.83      0.00
    2    8    3      1.46      0.00
    3    8    3      4.16      0.00
    4    8    3      0.34      0.00
    5    8    3     -0.08      0.00
    6    8    3      0.91      0.00
    7    8    3      1.03      0.00
    8    8    3     -2.14      0.00
    9    8    3     -2.43      0.00
   10    8    3     -0.49      0.00
   11    8    3     -1.86      0.00
   12    8    3     -2.76      0.00
   13    8    3     -2.71      0.00
   15    8    3     -2.15      0.00
   16    8    3     -0.69      0.00
   17    8    3      1.80      0.00
   18    8    3      0.89      0.00
   19    8    3      0.35      0.00
   20    8    3     -1.07      0.00
   21    8    3      0.47      0.00
   22    8    3     -1.00      0.00
   23    8    3     -0.28      0.00
   24    8    3      0.19      0.00
   25    8    3     -0.30      0.00
   26    8    3      0.04      0.00
   27    8    3     -0.96      0.00
   28    8    3      0.15      0.00
   29    8    3     -0.07      0.00
  -29    9    3      0.55      0.00
  -28    9    3      0.59      0.00
  -27    9    3      1.35      0.00
  -26    9    3      1.29      0.00
  -25    9    3      2.83      0.00
  -24    9    3      0.62      0.00
  -23    9    3      0.20      0.00
  -22    9    3      3.10      0.00
  -21    9    3      2.21      0.00
  -20    9    3     -1.31      0.00
  -19    9    3     -3.01      0.00
  -18    9    3      1.32      0.00
  -15    9    3      1.71      0.00
  -14    9    3     -3.11      0.00
  -13    9    3      1.16      0.00
  -12    9    3      0.74      0.00
  -11    9    3      1.10      0.00
  -10    9    3     -2.93      0.00
   -9    9    3      0.11      0.00
   -8    9    3     -0.64      0.00
   -7    9    3      2.43      0.00
   -6    9    3     -1.55      0.00
   -5    9    3      2.28      0.00
   -4    9    3     -2.85      0.00
   -3    9    3      2.27      0.00
   -2    9    3      1.10      0.00
   -1    9    3      0.43      0.00
    0    9    3     -3.40      0.00
    1    9    3      0.20      0.00
    2    9    3     -0.67      0.00
    3    9    3     -0.19      0.00
    4    9    3     -1.56      0.00
    5    9    3     -1.40      0.00
    6    9    3     -1.20      0.00
    7    9    3      0.38      0.00
    8    9    3     -2.34      0.00
    9    9    3     -0.88      0.00
   10    9    3     -2.54      0.00
   11    9    3      0.22      0.00
   12    9    3     -0.87      0.00
   13    9    3     -4.21      0.00
   14    9    3      0.15      0.00
   15    9    3     -0.58      0.00
   16    9    3      0.71      0.00
   17    9    3     -0.85      0.00
   18    9    3      0.16      0.00
   19    9    3      0.34      0.00
   20    9    3      0.92      0.00
   21    9    3     -1.28      0.00
   22    9    3      0.00      0.00
   23    9    3     -1.73      0.00
   24    9    3     -0.22      0.00
   25    9    3     -0.05      0.00
   26    9    3      2.17      0.00
   27    9    3      0.43      0.00
   28    9    3      0.34      0.00
  -28   10    3      0.22      0.00
  -27   10    3     -0.78      0.00
  -26   10    3      0.97      0.00
  -25   10    3      0.37      0.00
  -24   10    3      1.44      0.00
  -23   10    3     -0.18      0.00
  -22   10    3      1.23      0.00
  -21   10    3     -0.58      0.00
  -20   10    3      0.47      0.00
  -19   10    3      0.35      0.00
  -18   10    3      3.51      0.00
  -17   10    3     -0.70      0.00
  -16   10    3     -4.53      0.00
  -15   10    3      0.22      0.00
  -14   10    3      0.20      0.00
  -13   10    3     -0.43      0.00
  -12   10    3     -1.11      0.00
  -11   10    3     -1.37      0.00
  -10   10    3     -1.07      0.00
   -9   10    3      0.52      0.00
   -8   10    3      1.19      0.00
   -7   10    3     -0.08      0.00
   -6   10    3     -0.60      0.00
   -5   10    3     -2.89      0.00
   -4   10    3      2.94      0.00
   -3   10    3      0.77      0.00
   -2   10    3     -0.24      0.00
   -1   10    3     -2.19      0.00
    0   10    3      0.31      0.00
    1   10    3      1.28      0.00
    2   10    3      0.86      0.00
    3   10    3     -1.23      0.00
    4   10    3      1.61      0.00
    5   10    3      1.65      0.00
    6   10    3      1.60      0.00
    7   10    3      0.56      0.00
    8   10    3      0.80      0.00
    9   10    3      1.57      0.00
   10   10    3     -0.14      0.00
   11   10    3      2.05      0.00
   12   10    3      0.97      0.00
   13   10    3     -0.42      0.00
   14   10    3     -0.23      0.00
   15   10    3      0.39      0.00
   16   10    3     -1.03      0.00
   17   10    3     -0.25      0.00
   18   10    3     -0.57      0.00
   19   10    3     -0.32      0.00
   20   10    3      0.81      0.00
   21   10    3     -0.77      0.00
   22   10    3     -0.24      0.00
   23   10    3     -0.92      0.00
   24   10    3      0.07      0.00
   25   10    3     -0.67      0.00
   26   10    3      0.07      0.00
   27   10    3      0.90      0.00
  -29    0    4      1.87      0.00
   -7    0    4      4.92      0.00
   -6    0    4      5.56      0.00
   -5    0    4    -10.58      0.00
   14    0    4     -4.34      0.00
   15    0    4      3.54      0.00
   16    0    4      3.10      0.00
   17    0    4     -1.41      0.00
   18    0    4     -1.58      0.00
   19    0    4      0.61      0.00
   20    0    4     -2.21      0.00
   21    0    4     -0.70      0.00
   22    0    4     -5.04      0.00
   23    0    4      0.86      0.00
   24    0    4      0.94      0.00
   25    0    4     -3.11      0.00
   26    0    4     -0.86      0.00
   27    0    4      0.77      0.00
   28    0    4      0.24      0.00
   29    0    4      1.89      0.00
  -29    1    4      0.75      0.00
   15    1    4      4.78      0.00
   16    1    4     -0.71      0.00
   17    1    4      2.25      0.00
   18    1    4     -1.21      0.00
   19    1    4      2.29      0.00
   20    1    4     -1.34      0.00
   21    1    4      1.03      0.00
   22    1    4     -0.48      0.00
   23    1    4     -2.58      0.00
   24    1    4     -0.34      0.00
   25    1    4     -0.49      0.00
   26    1    4      0.28      0.00
   27    1    4      0.16      0.00
   28    1    4      0.71      0.00
   29    1    4     -0.01      0.00
  -29    2    4     -0.60      0.00
  -12    2    4      5.11      0.00
  -11    2    4     -3.11      0.00
  -10    2    4     -2.17      0.00
   -9    2    4      0.49      0.00
   15    2    4      3.18      0.00
   16    2    4      4.23      0.00
   17    2    4     -1.85      0.00
   18    2    4      1.22      0.00
   19    2    4     -1.27      0.00
   20    2    4     -0.10      0.00
   21    2    4     -0.19      0.00
   22    2    4      1.53      0.00
   23    2    4      3.13      0.00
   24    2    4      0.30      0.00
   25    2    4     -0.14      0.00
   26    2    4     -0.47      0.00
   27    2    4      0.33      0.00
   28    2    4      0.56      0.00
   29    2    4     -0.87      0.00
  -29    3    4      2.21      0.00
  -12    3    4     -0.43      0.00
  -11    3    4      3.88      0.00
  -10    3    4      2.00      0.00
   -9    3    4      3.12      0.00
   -6    3    4     -2.61      0.00
   -5    3    4     -0.11      0.00
   -4    3    4     -4.94      0.00
   -3    3    4      0.72      0.00
   -2    3    4      0.08      0.00
   -1    3    4      0.75      0.00
   15    3    4      0.86      0.00
   16    3    4     -0.62      0.00
   17    3    4     -1.84      0.00
   18    3    4      1.69      0.00
   19    3    4      1.48      0.00
   20    3    4     -0.74      0.00
   21    3    4     -1.30      0.00
   22    3    4      0.41      0.00
   23    3    4      0.28      0.00
   24    3    4     -0.44      0.00
   25    3    4     -1.36      0.00
   26    3    4      0.32      0.00
   27    3    4      0.14      0.00
   28    3    4     -0.22      0.00
   29    3    4     -0.12      0.00
  -29    4    4      1.53      0.00
  -28    4    4     -2.16      0.00
  -11    4    4      4.12      0.00
  -10    4    4     -0.41      0.00
   -9    4    4      1.38      0.00
   -8    4    4      1.20      0.00
   -7    4    4     -3.69      0.00
   -6    4    4     -2.75      0.00
   -5    4    4     -6.98      0.00
   -4    4    4     -9.86      0.00
   -3    4    4    -10.72      0.00
   -2    4    4     -8.33      0.00
   -1    4    4     -0.89      0.00
    0    4    4     -9.44      0.00
    1    4    4     -3.70      0.00
   15    4    4     -2.54      0.00
   16    4    4      0.36      0.00
   17    4    4     -3.13      0.00
   18    4    4      0.74      0.00
   19    4    4      0.53      0.00
   20    4    4     -0.82      0.00
   21    4    4     -0.13      0.00
   22    4    4      1.02      0.00
   23    4    4      0.93      0.00
   24    4    4      1.49      0.00
   25    4    4     -1.53      0.00
   26    4    4      0.08      0.00
   27    4    4      0.09      0.00
   28    4    4     -0.46      0.00
   29    4    4      0.59      0.00
  -29    5    4      0.59      0.00
  -28    5    4      1.54      0.00
  -10    5    4     -0.06      0.00
   -9    5    4      5.14      0.00
   -8    5    4      0.39      0.00
   -7    5    4     -0.98      0.00
   -6    5    4     -4.18      0.00
   -5    5    4      4.19      0.00
   -4    5    4    -13.24      0.00
   -3    5    4     -2.80      0.00
   -2    5    4      1.07      0.00
   -1    5    4      0.58      0.00
    0    5    4     -2.89      0.00
    1    5    4     -0.61      0.00
    2    5    4      1.85      0.00
    3    5    4     -1.22      0.00
    4    5    4     -2.17      0.00
   15    5    4     -2.31      0.00
   16    5    4      2.25      0.00
   17    5    4     -0.20      0.00
   18    5    4      0.32      0.00
   19    5    4      2.05      0.00
   20    5    4     -1.07      0.00
   21    5    4     -0.81      0.00
   22    5    4     -0.33      0.00
   23    5    4      1.23      0.00
   24    5    4     -0.80      0.00
   25    5    4      0.01      0.00
   26    5    4     -1.16      0.00
   27    5    4      0.49      0.00
   28    5    4     -0.39      0.00
   29    5    4     -1.37      0.00
  -29    6    4      0.73      0.00
  -28    6    4      0.95      0.00
  -27    6    4      0.56      0.00
   -9    6    4     -0.64      0.00
   -8    6    4      2.21      0.00
   -7    6    4     -0.25      0.00
   -6    6    4      1.28      0.00
   -5    6    4     -0.34      0.00
   -4    6    4     -0.64      0.00
   -3    6    4     -6.06      0.00
   -2    6    4      3.75      0.00
   -1    6    4      4.22      0.00
    0    6    4      2.96      0.00
    1    6    4     -3.85      0.00
    2    6    4     -0.54      0.00
    3    6    4      0.89      0.00
    4    6    4      2.22      0.00
    5    6    4     -3.00      0.00
   15    6    4      0.36      0.00
   16    6    4     -1.23      0.00
   17    6    4      0.03      0.00
   18    6    4      0.27      0.00
   19    6    4      0.10      0.00
   20    6    4     -0.22      0.00
   21    6    4      0.74      0.00
   22    6    4      0.36      0.00
   23    6    4      1.71      0.00
   24    6    4      0.18      0.00
   25    6    4      0.17      0.00
   26    6    4     -0.05      0.00
   27    6    4     -0.51      0.00
   28    6    4      0.47      0.00
   29    6    4     -0.04      0.00
  -29    7    4      2.01      0.00
  -28    7    4     -0.01      0.00
  -27    7    4      2.10      0.00
  -26    7    4     -2.45      0.00
  -25    7    4     -3.48      0.00
  -10    7    4     -1.81      0.00
   -9    7    4     -0.72      0.00
   -8    7    4      3.83      0.00
   -7    7    4     -2.28      0.00
   -6    7    4     -1.22      0.00
   -5    7    4      2.34      0.00
   -4    7    4     -1.54      0.00
   -3    7    4     -4.04      0.00
   -2    7    4     -0.71      0.00
   -1    7    4      0.76      0.00
    0    7    4     -1.04      0.00
    1    7    4      0.74      0.00
    2    7    4      2.55      0.00
    3    7    4      2.25      0.00
    4    7    4     -1.13      0.00
    5    7    4     -1.95      0.00
    6    7    4      2.47      0.00
    7    7    4      0.64      0.00
    8    7    4      0.60      0.00
    9    7    4     -1.30      0.00
   10    7    4      6.11      0.00
   11    7    4      2.84      0.00
   15    7    4     -4.11      0.00
   16    7    4     -0.33      0.00
   17    7    4     -0.48      0.00
   18    7    4     -1.61      0.00
   19    7    4     -0.70      0.00
   20    7    4     -1.27      0.00
   21    7    4     -1.12      0.00
   22    7    4      0.98      0.00
   23    7    4      0.30      0.00
   24    7    4      2.51      0.00
   25    7    4      0.40      0.00
   26    7    4      0.27      0.00
   27    7    4      0.33      0.00
   28    7    4     -0.10      0.00
   29    7    4      0.30      0.00
  -29    8    4      0.11      0.00
  -28    8    4      1.87      0.00
  -27    8    4     -0.91      0.00
  -26    8    4      2.22      0.00
  -25    8    4     -0.75      0.00
  -24    8    4      0.54      0.00
  -23    8    4     -1.24      0.00
  -12    8    4      0.11      0.00
  -11    8    4      0.30      0.00
  -10    8    4     -1.22      0.00
   -9    8    4      2.46      0.00
   -8    8    4      0.97      0.00
   -7    8    4      3.19      0.00
   -6    8    4      1.37      0.00
   -5    8    4      0.80      0.00
   -4    8    4      0.13      0.00
   -3    8    4      0.25      0.00
   -2    8    4      1.03      0.00
   -1    8    4     -0.46      0.00
    0    8    4      1.69      0.00
    1    8    4     -1.22      0.00
    2    8    4     -1.64      0.00
    3    8    4     -0.23      0.00
    4    8    4      2.85      0.00
    5    8    4      0.14      0.00
    6    8    4      1.75      0.00
    7    8    4     -2.81      0.00
    8    8    4     -0.45      0.00
    9    8    4     -0.50      0.00
   10    8    4     -2.66      0.00
   11    8    4     -0.19      0.00
   15    8    4      0.65      0.00
   16    8    4      0.74      0.00
   17    8    4      1.28      0.00
   18    8    4      1.09      0.00
   19    8    4      1.38      0.00
   20    8    4      0.01      0.00
   21    8    4     -0.73      0.00
   22    8    4      0.00      0.00
   23    8    4     -0.50      0.00
   24    8    4     -0.01      0.00
   25    8    4      1.40      0.00
   26    8    4      0.34      0.00
   27    8    4     -0.11      0.00
   28    8    4      0.16      0.00
   29    8    4      0.06      0.00
  -29    9    4      0.65      0.00
  -28    9    4     -0.27      0.00
  -27    9    4      1.52      0.00
  -26    9    4      0.47      0.00
  -25    9    4     -0.06      0.00
  -24    9    4      1.13      0.00
  -23    9    4     -1.80      0.00
  -22    9    4      0.29      0.00
  -21    9    4      1.33      0.00
  -20    9    4     -0.67      0.00
  -16    9    4      0.17      0.00
  -15    9    4      4.22      0.00
  -14    9    4     -0.51      0.00
  -13    9    4      2.49      0.00
  -12    9    4      1.04      0.00
  -11    9    4      0.64      0.00
  -10    9    4      2.25      0.00
   -9    9    4      0.87      0.00
   -8    9    4      0.42      0.00
   -7    9    4      0.30      0.00
   -6    9    4      0.62      0.00
   -5    9    4      3.22      0.00
   -4    9    4      0.01      0.00
   -3    9    4     -3.14      0.00
   -2    9    4     -1.85      0.00
   -1    9    4     -0.07      0.00
    0    9    4      2.87      0.00
    1    9    4      0.36      0.00
    2    9    4     -1.28      0.00
    3    9    4     -0.03      0.00
    4    9    4      1.23      0.00
    5    9    4     -0.49      0.00
    6    9    4      1.72      0.00
    7    9    4      2.94      0.00
    8    9    4     -0.71      0.00
    9    9    4      0.59      0.00
   10    9    4      1.53      0.00
   11    9    4      0.33      0.00
   12    9    4      0.34      0.00
   13    9    4     -2.08      0.00
   14    9    4     -1.64      0.00
   15    9    4      1.50      0.00
   16    9    4     -0.39      0.00
   17    9    4      1.39      0.00
   18    9    4     -1.14      0.00
   19    9    4     -0.17      0.00
   20    9    4     -0.07      0.00
   21    9    4     -0.75      0.00
   22    9    4     -1.00      0.00
   23    9    4      0.23      0.00
   24    9    4     -0.57      0.00
   25    9    4     -0.04      0.00
   26    9    4      0.17      0.00
   27    9    4      0.22      0.00
   28    9    4      0.15      0.00
  -28   10    4      0.45      0.00
  -27   10    4     -0.55      0.00
  -26   10    4      0.71      0.00
  -25   10    4      0.96      0.00
  -24   10    4     -0.13      0.00
  -23   10    4      0.58      0.00
  -22   10    4     -2.21      0.00
  -21   10    4      1.20      0.00
  -20   10    4     -1.85      0.00
  -19   10    4     -0.82      0.00
  -18   10    4      1.49      0.00
  -17   10    4      1.33      0.00
  -16   10    4     -3.22      0.00
  -15   10    4      1.00      0.00
  -14   10    4     -2.92      0.00
  -13   10    4     -1.44      0.00
  -12   10    4      1.79      0.00
  -11   10    4      0.02      0.00
  -10   10    4     -0.88      0.00
   -9   10    4      0.93      0.00
   -8   10    4     -0.81      0.00
   -7   10    4      0.09      0.00
   -6   10    4      1.24      0.00
   -5   10    4      1.34      0.00
   -4   10    4     -1.46      0.00
   -3   10    4      0.40      0.00
   -2   10    4      0.50      0.00
   -1   10    4     -0.27      0.00
    0   10    4     -0.20      0.00
    1   10    4     -0.05      0.00
    2   10    4     -0.85      0.00
    3   10    4     -2.31      0.00
    4   10    4      1.57      0.00
    5   10    4     -0.58      0.00
    6   10    4      1.44      0.00
    7   10    4     -1.55      0.00
    8   10    4      2.03      0.00
    9   10    4      1.30      0.00
   10   10    4     -2.17      0.00
   11   10    4      0.94      0.00
   12   10    4     -2.02      0.00
   13   10    4      1.70      0.00
   14   10    4     -3.18      0.00
   15   10    4      0.37      0.00
   16   10    4     -2.18      0.00
   17   10    4      0.74      0.00
   18   10    4      0.33      0.00
   19   10    4      0.10      0.00
   20   10    4      0.48      0.00
   21   10    4     -0.38      0.00
   22   10    4     -0.49      0.00
   23   10    4     -0.66      0.00
   24   10    4     -0.11      0.00
   25   10    4      0.24      0.00
   26   10    4     -0.91      0.00
   27   10    4     -0.31      0.00
   15    1    5     -0.95      0.00
   16    1    5     -1.58      0.00
   17    1    5     -4.06      0.00
   18    1    5      2.28      0.00
   19    1    5     -1.47      0.00
   20    1    5      0.33      0.00
   21    1    5     -0.85      0.00
   22    1    5      1.01      0.00
   23    1    5     -1.23      0.00
   24    1    5     -1.83      0.00
   25    1    5     -1.29      0.00
   26    1    5      1.78      0.00
   27    1    5     -0.50      0.00
   28    1    5     -0.14      0.00
   29    1    5      0.10      0.00
  -12    2    5      2.17      0.00
  -11    2    5      3.50      0.00
  -10    2    5      0.03      0.00
   -9    2    5      0.63      0.00
   15    2    5      2.96      0.00
   16    2    5      0.20      0.00
   17    2    5      0.31      0.00
   18    2    5      2.48      0.00
   19    2    5      0.14      0.00
   20    2    5     -1.18      0.00
   21    2    5      0.08      0.00
   22    2    5      0.79      0.00
   23    2    5     -0.82      0.00
   24    2    5     -2.39      0.00
   25    2    5     -1.09      0.00
   26    2    5     -0.61      0.00
   27    2    5     -0.31      0.00
   28    2    5     -1.38      0.00
   29    2    5      0.04      0.00
  -13    3    5     -3.48      0.00
  -12    3    5      2.94      0.00
  -11    3    5      4.92      0.00
  -10    3    5      5.31      0.00
   -9    3    5      9.37      0.00
   15    3    5      4.11      0.00
   16    3    5     -1.11      0.00
   17    3    5      1.95      0.00
   18    3    5      2.01      0.00
   19    3    5      1.74      0.00
   20    3    5     -0.88      0.00
   21    3    5      0.05      0.00
   22    3    5      0.79      0.00
   23    3    5      2.61      0.00
   24    3    5     -0.29      0.00
   25    3    5      0.55      0.00
   26    3    5     -0.16      0.00
   27    3    5      1.18      0.00
   28    3    5     -0.91      0.00
   29    3    5     -0.10      0.00
  -29    4    5     -0.13      0.00
  -11    4    5      0.10      0.00
  -10    4    5      4.42      0.00
   -9    4    5     -1.09      0.00
   -5    4    5      3.43      0.00
   -4    4    5      2.25      0.00
   -3    4    5      2.88      0.00
   -2    4    5      5.33      0.00
   -1    4    5      3.24      0.00
    0    4    5      5.62      0.00
    1    4    5     -0.40      0.00
    2    4    5     -0.60      0.00
   15    4    5     -0.89      0.00
   16    4    5     -1.65      0.00
   17    4    5     -0.62      0.00
   18    4    5      0.25      0.00
   19    4    5      2.15      0.00
   20    4    5      0.03      0.00
   21    4    5      1.21      0.00
   22    4    5      0.45      0.00
   23    4    5      0.14      0.00
   24    4    5      0.83      0.00
   25    4    5      1.19      0.00
   26    4    5     -0.04      0.00
   27    4    5     -0.54      0.00
   28    4    5     -1.57      0.00
   29    4    5      0.27      0.00
  -29    5    5      1.48      0.00
  -28    5    5     -0.06      0.00
  -10    5    5     -2.71      0.00
   -9    5    5     -1.17      0.00
   -7    5    5      2.90      0.00
   -6    5    5      2.08      0.00
   -5    5    5      1.26      0.00
   -4    5    5      6.73      0.00
   -3    5    5      1.92      0.00
   -2    5    5     -0.22      0.00
   -1    5    5      3.13      0.00
    0    5    5      1.40      0.00
    1    5    5      7.33      0.00
    2    5    5     -1.21      0.00
    3    5    5      3.67      0.00
    4    5    5      5.56      0.00
    5    5    5      3.44      0.00
   16    5    5     -2.63      0.00
   17    5    5      1.80      0.00
   18    5    5     -0.74      0.00
   19    5    5      0.29      0.00
   20    5    5     -0.31      0.00
   21    5    5      1.33      0.00
   22    5    5     -0.24      0.00
   23    5    5      0.45      0.00
   24    5    5     -0.54      0.00
   25    5    5      1.43      0.00
   26    5    5      0.78      0.00
   27    5    5      0.06      0.00
   28    5    5     -0.19      0.00
   29    5    5     -1.46      0.00
  -29    6    5     -1.14      0.00
  -28    6    5     -1.39      0.00
  -27    6    5     -3.85      0.00
   -9    6    5     -0.50      0.00
   -8    6    5      0.51      0.00
   -7    6    5      0.91      0.00
   -6    6    5     -0.11      0.00
   -5    6    5      0.20      0.00
   -4    6    5      1.21      0.00
   -3    6    5      2.39      0.00
   -2    6    5      1.60      0.00
   -1    6    5     -3.38      0.00
    0    6    5      1.47      0.00
    1    6    5     -0.37      0.00
    2    6    5     -1.00      0.00
    3    6    5     -1.93      0.00
    4    6    5      0.79      0.00
    5    6    5      0.48      0.00
    6    6    5     -1.37      0.00
    8    6    5     -0.34      0.00
   15    6    5      0.18      0.00
   16    6    5      0.81      0.00
   17    6    5     -1.71      0.00
   18    6    5      1.58      0.00
   19    6    5     -1.42      0.00
   20    6    5      0.23      0.00
   21    6    5     -0.71      0.00
   22    6    5     -1.09      0.00
   23    6    5     -1.02      0.00
   24    6    5     -1.03      0.00
   25    6    5      0.40      0.00
   26    6    5      1.31      0.00
   27    6    5      0.01      0.00
   28    6    5      1.45      0.00
   29    6    5      0.39      0.00
  -29    7    5      0.01      0.00
  -28    7    5      0.23      0.00
  -27    7    5      1.56      0.00
  -26    7    5      0.35      0.00
  -10    7    5      1.13      0.00
   -9    7    5      1.73      0.00
   -8    7    5     -5.13      0.00
   -7    7    5      1.88      0.00
   -6    7    5      1.24      0.00
   -5    7    5     -0.32      0.00
   -4    7    5      3.71      0.00
   -3    7    5      2.13      0.00
   -2    7    5     -1.31      0.00
   -1    7    5     -1.40      0.00
    0    7    5      0.60      0.00
    1    7    5      2.06      0.00
    2    7    5      0.18      0.00
    3    7    5      0.17      0.00
    4    7    5      3.11      0.00
    5    7    5      2.15      0.00
    6    7    5      2.77      0.00
    7    7    5      0.91      0.00
    8    7    5      1.88      0.00
    9    7    5     -1.73      0.00
   15    7    5     -1.03      0.00
   16    7    5      0.68      0.00
   17    7    5     -1.48      0.00
   18    7    5      0.94      0.00
   19    7    5     -1.48      0.00
   20    7    5      1.72      0.00
   21    7    5      0.77      0.00
   22    7    5      0.10      0.00
   23    7    5     -1.12      0.00
   24    7    5     -0.27      0.00
   25    7    5     -0.30      0.00
   26    7    5     -0.66      0.00
   27    7    5     -0.19      0.00
   28    7    5     -1.89      0.00
   29    7    5      0.07      0.00
  -29    8    5      0.63      0.00
  -28    8    5     -0.03      0.00
  -27    8    5      0.47      0.00
  -26    8    5     -0.83      0.00
  -25    8    5      0.95      0.00
  -24    8    5      1.40      0.00
  -13    8    5     -2.27      0.00
  -12    8    5      0.62      0.00
  -11    8    5      2.04      0.00
  -10    8    5     -1.95      0.00
   -9    8    5     -3.97      0.00
   -8    8    5      0.73      0.00
   -7    8    5     -5.60      0.00
   -6    8    5     -2.60      0.00
   -5    8    5     -3.22      0.00
   -4    8    5     -1.13      0.00
   -3    8    5      0.99      0.00
   -2    8    5     -1.85      0.00
   -1    8    5     -1.15      0.00
    0    8    5     -0.53      0.00
    1    8    5     -1.09      0.00
    2    8    5     -1.41      0.00
    3    8    5     -0.16      0.00
    4    8    5     -0.07      0.00
    5    8    5      2.54      0.00
    6    8    5      2.13      0.00
    7    8    5      5.89      0.00
    8    8    5      3.83      0.00
    9    8    5      9.56      0.00
   14    8    5     -1.99      0.00
   15    8    5      1.09      0.00
   16    8    5     -2.24      0.00
   17    8    5     -0.44      0.00
   18    8    5     -3.12      0.00
   19    8    5     -1.13      0.00
   20    8    5     -0.95      0.00
   21    8    5      1.85      0.00
   22    8    5      0.44      0.00
   23    8    5     -0.15      0.00
   24    8    5      0.01      0.00
   25    8    5      0.94      0.00
   26    8    5      0.18      0.00
   27    8    5     -0.27      0.00
   28    8    5     -0.10      0.00
  -29    9    5      0.37      0.00
  -28    9    5     -0.63      0.00
  -27    9    5      0.73      0.00
  -26    9    5      0.28      0.00
  -25    9    5     -3.01      0.00
  -24    9    5     -1.48      0.00
  -23    9    5      0.83      0.00
  -22    9    5     -0.74      0.00
  -21    9    5     -1.15      0.00
  -17    9    5     -0.21      0.00
  -16    9    5      2.08      0.00
  -15    9    5      0.70      0.00
  -14    9    5      1.60      0.00
  -13    9    5      1.22      0.00
  -12    9    5      1.58      0.00
  -11    9    5     -0.91      0.00
  -10    9    5      2.81      0.00
   -9    9    5     -1.13      0.00
   -8    9    5     -4.73      0.00
   -7    9    5      0.80      0.00
   -6    9    5     -1.06      0.00
   -5    9    5     -1.98      0.00
   -4    9    5     -2.20      0.00
   -3    9    5      2.26      0.00
   -2    9    5     -0.09      0.00
   -1    9    5     -1.96      0.00
    0    9    5     -0.37      0.00
    1    9    5      1.77      0.00
    2    9    5     -2.53      0.00
    3    9    5      0.48      0.00
    4    9    5     -1.34      0.00
    5    9    5      0.50      0.00
    6    9    5     -1.91      0.00
    7    9    5     -1.88      0.00
    8    9    5     -0.83      0.00
    9    9    5     -2.57      0.00
   11    9    5      1.71      0.00
   12    9    5      2.13      0.00
   13    9    5     -1.40      0.00
   14    9    5     -0.18      0.00
   15    9    5      0.64      0.00
   16    9    5      1.43      0.00
   17    9    5      2.33      0.00
   18    9    5      1.71      0.00
   19    9    5      0.71      0.00
   20    9    5     -0.78      0.00
   21    9    5     -0.17      0.00
   22    9    5      1.40      0.00
   23    9    5     -0.84      0.00
   24    9    5      0.45      0.00
   25    9    5     -0.87      0.00
   26    9    5      0.49      0.00
   27    9    5      0.42      0.00
  -28   10    5     -0.59      0.00
  -27   10    5      1.02      0.00
  -26   10    5      0.28      0.00
  -25   10    5      0.73      0.00
  -24   10    5      0.06      0.00
  -23   10    5      1.53      0.00
  -22   10    5     -0.16      0.00
  -21   10    5      0.16      0.00
  -20   10    5      0.76      0.00
  -19   10    5     -0.15      0.00
  -18   10    5      1.79      0.00
  -17   10    5      0.39      0.00
  -16   10    5      2.22      0.00
  -15   10    5     -0.18      0.00
  -14   10    5      1.01      0.00
  -13   10    5      0.17      0.00
  -12   10    5     -0.95      0.00
  -11   10    5      1.56      0.00
  -10   10    5     -0.97      0.00
   -9   10    5     -0.95      0.00
   -8   10    5     -0.33      0.00
   -7   10    5     -1.97      0.00
   -6   10    5     -2.47      0.00
   -5   10    5     -1.57      0.00
   -4   10    5     -0.01      0.00
   -3   10    5     -1.43      0.00
   -2   10    5     -0.66      0.00
   -1   10    5      1.21      0.00
    0   10    5     -0.96      0.00
    1   10    5     -1.62      0.00
    2   10    5     -0.69      0.00
    3   10    5      0.20      0.00
    4   10    5      0.84      0.00
    5   10    5     -2.36      0.00
    6   10    5      0.52      0.00
    7   10    5      0.18      0.00
    8   10    5      0.36      0.00
    9   10    5     -1.44      0.00
   10   10    5     -0.20      0.00
   11   10    5     -0.18      0.00
   12   10    5      0.57      0.00
   13   10    5      0.21      0.00
   14   10    5      1.37      0.00
   15   10    5     -1.16      0.00
   16   10    5     -0.50      0.00
   17   10    5     -0.33      0.00
   18   10    5     -0.32      0.00
   19   10    5     -0.01      0.00
   20   10    5      0.90      0.00
   21   10    5     -0.91      0.00
   22   10    5     -0.06      0.00
   23   10    5     -0.48      0.00
   24   10    5     -0.12      0.00
   25   10    5      0.98      0.00
   26   10    5     -0.21      0.00
  -16    0    6      1.62      0.00
   -8    0    6     -0.74      0.00
   -7    0    6     10.84      0.00
   -6    0    6      6.70      0.00
   14    0    6     -6.89      0.00
   15    0    6      4.71      0.00
   16    0    6     -4.02      0.00
   17    0    6      1.55      0.00
   18    0    6     -0.10      0.00
   19    0    6      1.69      0.00
   20    0    6     -1.70      0.00
   21    0    6      2.25      0.00
   22    0    6      0.07      0.00
   23    0    6      1.80      0.00
   24    0    6     -0.17      0.00
   25    0    6      0.21      0.00
   26    0    6     -1.27      0.00
   27    0    6     -0.60      0.00
   28    0    6     -0.09      0.00
   29    0    6      0.70      0.00
   15    1    6     -3.30      0.00
   16    1    6      0.40      0.00
   17    1    6     -0.31      0.00
   18    1    6      1.98      0.00
   19    1    6     -1.00      0.00
   20    1    6      0.60      0.00
   21    1    6     -0.35      0.00
   22    1    6     -0.17      0.00
   23    1    6     -0.30      0.00
   24    1    6      1.30      0.00
   25    1    6      0.37      0.00
   26    1    6     -1.53      0.00
   27    1    6     -1.30      0.00
   28    1    6      0.28      0.00
   29    1    6     -0.45      0.00
  -13    2    6      0.44      0.00
  -12    2    6      5.34      0.00
  -11    2    6      2.91      0.00
  -10    2    6      5.45      0.00
   -9    2    6     -0.78      0.00
   15    2    6      0.51      0.00
   16    2    6     -1.27      0.00
   17    2    6     -1.46      0.00
   18    2    6      1.66      0.00
   19    2    6     -1.24      0.00
   20    2    6     -0.50      0.00
   21    2    6     -1.08      0.00
   22    2    6      0.60      0.00
   23    2    6     -0.71      0.00
   24    2    6      0.92      0.00
   25    2    6      1.25      0.00
   26    2    6      0.60      0.00
   27    2    6     -1.62      0.00
   28    2    6     -0.25      0.00
   29    2    6      1.82      0.00
  -14    3    6     -6.96      0.00
  -13    3    6      1.92      0.00
  -12    3    6     -0.87      0.00
  -11    3    6      3.50      0.00
  -10    3    6     -3.18      0.00
   -9    3    6     -6.19      0.00
   15    3    6     -2.76      0.00
   16    3    6     -1.29      0.00
   17    3    6      0.20      0.00
   18    3    6      0.39      0.00
   19    3    6     -0.60      0.00
   20    3    6      0.58      0.00
   21    3    6     -1.02      0.00
   22    3    6     -0.82      0.00
   23    3    6     -1.03      0.00
   24    3    6      1.94      0.00
   25    3    6      1.06      0.00
   26    3    6     -0.51      0.00
   27    3    6     -0.70      0.00
   28    3    6     -0.21      0.00
   29    3    6     -0.35      0.00
  -13    4    6     -0.10      0.00
  -12    4    6     -1.99      0.00
  -11    4    6     -4.17      0.00
  -10    4    6      4.86      0.00
   -9    4    6     -2.12      0.00
   15    4    6      2.09      0.00
   16    4    6      1.92      0.00
   17    4    6     -0.07      0.00
   18    4    6      0.96      0.00
   19    4    6     -0.62      0.00
   20    4    6      1.20      0.00
   21    4    6      0.01      0.00
   22    4    6     -0.33      0.00
   23    4    6     -1.78      0.00
   24    4    6     -0.02      0.00
   25    4    6      0.91      0.00
   26    4    6     -0.14      0.00
   27    4    6     -2.02      0.00
   28    4    6      0.45      0.00
   29    4    6      0.28      0.00
  -29    5    6     -1.43      0.00
  -10    5    6     -2.65      0.00
   -9    5    6      2.90      0.00
   -8    5    6     -2.04      0.00
   -3    5    6      0.65      0.00
   -2    5    6      4.76      0.00
   -1    5    6     -5.03      0.00
    0    5    6      5.17      0.00
    1    5    6     -0.15      0.00
    2    5    6     -1.60      0.00
    3    5    6     -4.09      0.00
   16    5    6      0.33      0.00
   17    5    6      0.20      0.00
   18    5    6     -1.12      0.00
   19    5    6     -0.78      0.00
   20    5    6     -0.46      0.00
   21    5    6     -0.07      0.00
   22    5    6     -1.34      0.00
   23    5    6     -1.75      0.00
   24    5    6     -0.42      0.00
   25    5    6      0.73      0.00
   26    5    6      0.49      0.00
   27    5    6     -0.89      0.00
   28    5    6     -0.63      0.00
   29    5    6      0.45      0.00
  -29    6    6      2.65      0.00
  -28    6    6     -1.66      0.00
   -8    6    6      2.26      0.00
   -6    6    6      3.15      0.00
   -5    6    6     -2.11      0.00
   -4    6    6      3.38      0.00
   -3    6    6      4.99      0.00
   -2    6    6      1.08      0.00
   -1    6    6      3.32      0.00
    0    6    6      5.98      0.00
    1    6    6      7.89      0.00
    2    6    6      2.84      0.00
    3    6    6      8.01      0.00
    4    6    6      4.68      0.00
   15    6    6      1.20      0.00
   16    6    6      1.91      0.00
   17    6    6      1.85      0.00
   18    6    6      0.52      0.00
   19    6    6     -0.47      0.00
   20    6    6      2.04      0.00
   21    6    6      0.87      0.00
   22    6    6      0.39      0.00
   23    6    6     -0.47      0.00
   24    6    6     -0.94      0.00
   25    6    6     -0.85      0.00
   26    6    6     -0.39      0.00
   27    6    6     -0.38      0.00
   28    6    6     -0.79      0.00
   29    6    6      0.31      0.00
  -29    7    6      1.67      0.00
  -28    7    6     -0.08      0.00
  -27    7    6      1.52      0.00
  -10    7    6      0.96      0.00
   -9    7    6      1.74      0.00
   -8    7    6     -2.24      0.00
   -7    7    6     -0.26      0.00
   -6    7    6      1.55      0.00
   -5    7    6     -0.23      0.00
   -4    7    6     -2.56      0.00
   -3    7    6      2.96      0.00
   -2    7    6      0.64      0.00
   -1    7    6     -0.25      0.00
    0    7    6      0.16      0.00
    1    7    6     -1.09      0.00
    2    7    6     -1.71      0.00
    3    7    6      0.53      0.00
    4    7    6      2.88      0.00
    5    7    6     -0.92      0.00
    6    7    6     -3.56      0.00
   14    7    6      2.04      0.00
   15    7    6     -0.92      0.00
   16    7    6      0.28      0.00
   17    7    6      0.56      0.00
   18    7    6      0.99      0.00
   19    7    6     -0.77      0.00
   20    7    6      0.93      0.00
   21    7    6      1.22      0.00
   22    7    6      0.86      0.00
   23    7    6      1.30      0.00
   24    7    6      0.97      0.00
   25    7    6      0.93      0.00
   26    7    6     -0.51      0.00
   27    7    6      0.55      0.00
   28    7    6      0.05      0.00
   29    7    6      0.85      0.00
  -29    8    6     -0.69      0.00
  -28    8    6      0.43      0.00
  -27    8    6     -1.82      0.00
  -26    8    6      1.78      0.00
  -25    8    6      2.46      0.00
  -13    8    6     -1.16      0.00
  -12    8    6      0.14      0.00
  -11    8    6     -0.51      0.00
  -10    8    6     -4.14      0.00
   -9    8    6     -0.54      0.00
   -8    8    6     -1.94      0.00
   -7    8    6     -0.25      0.00
   -6    8    6     -3.32      0.00
   -5    8    6     -1.99      0.00
   -4    8    6     -1.23      0.00
   -3    8    6      0.24      0.00
   -2    8    6     -3.17      0.00
   -1    8    6     -2.00      0.00
    0    8    6      1.78      0.00
    1    8    6      1.10      0.00
    2    8    6     -2.44      0.00
    3    8    6      0.59      0.00
    4    8    6      1.18      0.00
    5    8    6      2.65      0.00
    6    8    6      2.56      0.00
   12    8    6      2.59      0.00
   13    8    6     -2.51      0.00
   14    8    6     -0.36      0.00
   15    8    6     -0.87      0.00
   16    8    6     -1.09      0.00
   17    8    6     -0.19      0.00
   18    8    6     -0.45      0.00
   19    8    6     -1.10      0.00
   20    8    6     -1.37      0.00
   21    8    6      0.25      0.00
   22    8    6     -0.33      0.00
   23    8    6     -0.05      0.00
   24    8    6     -0.36      0.00
   25    8    6      0.13      0.00
   26    8    6     -0.50      0.00
   27    8    6     -0.24      0.00
   28    8    6     -0.34      0.00
  -29    9    6     -0.34      0.00
  -28    9    6     -0.35      0.00
  -27    9    6     -1.68      0.00
  -26    9    6     -0.25      0.00
  -25    9    6     -0.07      0.00
  -24    9    6      0.68      0.00
  -23    9    6      1.64      0.00
  -22    9    6      4.14      0.00
  -18    9    6     -1.31      0.00
  -17    9    6      0.06      0.00
  -16    9    6      3.92      0.00
  -15    9    6      1.80      0.00
  -14    9    6     -3.31      0.00
  -13    9    6     -0.97      0.00
  -12    9    6     -1.24      0.00
  -11    9    6     -1.56      0.00
  -10    9    6     -0.90      0.00
   -9    9    6     -0.65      0.00
   -8    9    6     -0.18      0.00
   -7    9    6      0.77      0.00
   -6    9    6      0.47      0.00
   -5    9    6     -1.92      0.00
   -4    9    6     -1.60      0.00
   -3    9    6     -1.89      0.00
   -2    9    6     -0.02      0.00
   -1    9    6      0.47      0.00
    0    9    6     -2.59      0.00
    1    9    6      0.45      0.00
    2    9    6     -1.75      0.00
    3    9    6      3.43      0.00
    4    9    6     -0.57      0.00
    5    9    6      0.19      0.00
    6    9    6      1.46      0.00
    9    9    6     -1.61      0.00
   10    9    6      4.02      0.00
   11    9    6      3.76      0.00
   12    9    6     -2.18      0.00
   13    9    6      1.18      0.00
   14    9    6      1.96      0.00
   15    9    6     -0.33      0.00
   16    9    6      0.77      0.00
   17    9    6     -0.69      0.00
   18    9    6      1.00      0.00
   19    9    6      0.48      0.00
   20    9    6      0.04      0.00
   21    9    6     -0.23      0.00
   22    9    6      0.63      0.00
   23    9    6      1.54      0.00
   24    9    6     -0.01      0.00
   25    9    6     -0.06      0.00
   26    9    6     -0.44      0.00
  -28   10    6     -1.03      0.00
  -27   10    6     -1.22      0.00
  -26   10    6     -1.24      0.00
  -25   10    6     -0.68      0.00
  -24   10    6     -0.50      0.00
  -23   10    6      0.34      0.00
  -22   10    6     -1.96      0.00
  -21   10    6     -3.70      0.00
  -20   10    6      1.69      0.00
  -19   10    6      4.79      0.00
  -18   10    6      0.89      0.00
  -17   10    6     -1.33      0.00
  -16   10    6      1.98      0.00
  -15   10    6      0.72      0.00
  -14   10    6      2.90      0.00
  -13   10    6      4.34      0.00
  -12   10    6      1.86      0.00
  -11   10    6     -1.39      0.00
  -10   10    6     -0.62      0.00
   -9   10    6      2.75      0.00
   -8   10    6      0.12      0.00
   -7   10    6      0.48      0.00
   -6   10    6      0.32      0.00
   -5   10    6     -0.25      0.00
   -4   10    6      1.30      0.00
   -3   10    6      1.19      0.00
   -2   10    6     -2.50      0.00
   -1   10    6     -3.13      0.00
    0   10    6     -0.36      0.00
    1   10    6     -1.04      0.00
    2   10    6     -0.93      0.00
    3   10    6     -1.39      0.00
    4   10    6     -1.97      0.00
    5   10    6      0.47      0.00
    6   10    6     -3.55      0.00
    7   10    6     -3.38      0.00
    8   10    6      0.49      0.00
    9   10    6      1.40      0.00
   10   10    6     -1.38      0.00
   11   10    6      1.63      0.00
   12   10    6     -0.76      0.00
   13   10    6     -0.13      0.00
   14   10    6     -0.38      0.00
   15   10    6      0.45      0.00
   16   10    6      1.27      0.00
   17   10    6      1.20      0.00
   18   10    6     -0.34      0.00
   19   10    6     -0.77      0.00
   20   10    6     -0.83      0.00
   21   10    6     -0.47      0.00
   22   10    6     -1.23      0.00
   23   10    6      0.82      0.00
   24   10    6      0.22      0.00
   25   10    6      0.15      0.00
  -11    1    7      1.43      0.00
  -10    1    7     -0.83      0.00
   -9    1    7     -1.67      0.00
   -8    1    7      2.09      0.00
   15    1    7     -3.71      0.00
   16    1    7     -1.62      0.00
   17    1    7     -0.48      0.00
   18    1    7      1.81      0.00
   19    1    7     -1.91      0.00
   20    1    7      0.67      0.00
   21    1    7     -1.10      0.00
   22    1    7      0.32      0.00
   23    1    7      0.08      0.00
   24    1    7      0.54      0.00
   25    1    7      0.17      0.00
   26    1    7     -1.25      0.00
   27    1    7     -1.10      0.00
   28    1    7      1.53      0.00
   29    1    7      0.39      0.00
  -13    2    7      0.10      0.00
  -12    2    7     -0.71      0.00
  -11    2    7     -1.43      0.00
  -10    2    7      1.61      0.00
   -9    2    7      2.75      0.00
   15    2    7     -1.81      0.00
   16    2    7      2.22      0.00
   17    2    7      0.80      0.00
   18    2    7      0.90      0.00
   19    2    7     -0.87      0.00
   20    2    7      1.17      0.00
   21    2    7      0.71      0.00
   22    2    7      0.31      0.00
   23    2    7      2.19      0.00
   24    2    7      1.77      0.00
   25    2    7      0.16      0.00
   26    2    7      0.57      0.00
   27    2    7     -0.28      0.00
   28    2    7      0.45      0.00
   29    2    7     -0.02      0.00
  -14    3    7     -0.62      0.00
  -13    3    7      2.91      0.00
  -12    3    7      2.95      0.00
  -11    3    7     -1.48      0.00
  -10    3    7     -1.45      0.00
   -9    3    7      0.88      0.00
   15    3    7      5.95      0.00
   16    3    7     -2.78      0.00
   17    3    7      3.72      0.00
   18    3    7      1.18      0.00
   19    3    7      0.70      0.00
   20    3    7     -0.66      0.00
   21    3    7     -0.76      0.00
   22    3    7     -1.30      0.00
   23    3    7      0.18      0.00
   24    3    7      0.19      0.00
   25    3    7      0.72      0.00
   26    3    7     -1.25      0.00
   27    3    7      0.52      0.00
   28    3    7      0.31      0.00
   29    3    7      0.27      0.00
  -14    4    7      0.99      0.00
  -13    4    7      0.57      0.00
  -12    4    7      1.36      0.00
  -11    4    7     -2.07      0.00
  -10    4    7     -2.73      0.00
   -9    4    7     -1.53      0.00
   -8    4    7     -5.67      0.00
   15    4    7      0.66      0.00
   16    4    7     -2.03      0.00
   17    4    7     -0.89      0.00
   18    4    7     -1.26      0.00
   19    4    7     -0.78      0.00
   20    4    7      0.05      0.00
   21    4    7     -0.86      0.00
   22    4    7     -2.43      0.00
   23    4    7      0.37      0.00
   24    4    7     -0.08      0.00
   25    4    7      0.91      0.00
   26    4    7     -1.17      0.00
   27    4    7      0.18      0.00
   28    4    7      0.39      0.00
   29    4    7     -0.41      0.00
  -29    5    7     -0.02      0.00
  -12    5    7     -2.49      0.00
  -11    5    7      0.22      0.00
  -10    5    7     -0.98      0.00
   -9    5    7      0.42      0.00
   -8    5    7     -4.02      0.00
   15    5    7      2.90      0.00
   16    5    7     -1.49      0.00
   17    5    7      0.48      0.00
   18    5    7     -1.38      0.00
   19    5    7      0.71      0.00
   20    5    7     -0.07      0.00
   21    5    7      1.00      0.00
   22    5    7     -0.78      0.00
   23    5    7     -0.10      0.00
   24    5    7      0.25      0.00
   25    5    7     -0.22      0.00
   26    5    7      1.66      0.00
   27    5    7     -0.99      0.00
   28    5    7      0.87      0.00
   29    5    7     -0.42      0.00
  -29    6    7      0.39      0.00
  -28    6    7     -1.03      0.00
   -9    6    7     -0.62      0.00
   -8    6    7      4.21      0.00
   -7    6    7     -2.99      0.00
   15    6    7     -0.60      0.00
   16    6    7     -1.29      0.00
   17    6    7      0.71      0.00
   18    6    7      0.67      0.00
   19    6    7      0.50      0.00
   20    6    7      0.79      0.00
   21    6    7      0.78      0.00
   22    6    7     -0.98      0.00
   23    6    7     -1.27      0.00
   24    6    7     -0.26      0.00
   25    6    7     -2.05      0.00
   26    6    7      0.57      0.00
   27    6    7     -0.18      0.00
   28    6    7      1.02      0.00
   29    6    7     -0.10      0.00
  -29    7    7      0.13      0.00
  -28    7    7      2.03      0.00
  -27    7    7      0.39      0.00
  -11    7    7      0.19      0.00
  -10    7    7     -0.05      0.00
   -9    7    7     -1.43      0.00
   -8    7    7     -2.23      0.00
   -7    7    7      1.12      0.00
   13    7    7      3.01      0.00
   14    7    7      2.88      0.00
   15    7    7      0.34      0.00
   16    7    7      1.16      0.00
   17    7    7     -1.01      0.00
   18    7    7      0.52      0.00
   19    7    7     -0.32      0.00
   20    7    7     -0.23      0.00
   21    7    7     -0.04      0.00
   22    7    7     -0.51      0.00
   23    7    7     -1.20      0.00
   24    7    7     -0.86      0.00
   25    7    7     -1.27      0.00
   26    7    7      0.20      0.00
   27    7    7      1.20      0.00
   28    7    7      0.31      0.00
  -29    8    7     -0.36      0.00
  -28    8    7     -0.87      0.00
  -27    8    7      0.56      0.00
  -26    8    7     -0.12      0.00
  -25    8    7      0.19      0.00
  -14    8    7      0.14      0.00
  -13    8    7      2.60      0.00
  -12    8    7      2.31      0.00
  -11    8    7      0.30      0.00
  -10    8    7      2.98      0.00
   -9    8    7      1.83      0.00
   -8    8    7      3.88      0.00
   -7    8    7     -1.21      0.00
   -6    8    7      2.63      0.00
   10    8    7     -0.66      0.00
   11    8    7     -2.00      0.00
   12    8    7      0.02      0.00
   13    8    7      4.42      0.00
   14    8    7      2.34      0.00
   15    8    7      0.60      0.00
   16    8    7      0.94      0.00
   17    8    7      0.87      0.00
   18    8    7      0.38      0.00
   19    8    7     -0.23      0.00
   20    8    7      1.02      0.00
   21    8    7      0.81      0.00
   22    8    7      1.76      0.00
   23    8    7      0.04      0.00
   24    8    7      0.42      0.00
   25    8    7     -0.63      0.00
   26    8    7     -0.85      0.00
   27    8    7      0.79      0.00
  -29    9    7     -1.36      0.00
  -28    9    7      0.74      0.00
  -27    9    7      0.67      0.00
  -26    9    7     -1.39      0.00
  -25    9    7     -2.63      0.00
  -24    9    7     -0.82      0.00
  -23    9    7      2.05      0.00
  -20    9    7     -2.82      0.00
  -19    9    7      1.36      0.00
  -18    9    7     -3.31      0.00
  -17    9    7     -1.26      0.00
  -16    9    7      0.28      0.00
  -15    9    7     -1.71      0.00
  -14    9    7      0.01      0.00
  -13    9    7      0.09      0.00
  -12    9    7      1.02      0.00
  -11    9    7     -0.47      0.00
  -10    9    7      3.61      0.00
   -9    9    7      1.10      0.00
   -8    9    7      0.46      0.00
   -7    9    7      1.81      0.00
   -6    9    7     -0.67      0.00
   -5    9    7      3.12      0.00
    7    9    7     -0.65      0.00
    8    9    7      1.69      0.00
    9    9    7      1.47      0.00
   10    9    7      0.21      0.00
   11    9    7     -3.35      0.00
   12    9    7     -1.71      0.00
   13    9    7     -0.68      0.00
   14    9    7      0.54      0.00
   15    9    7     -1.95      0.00
   16    9    7     -1.17      0.00
   17    9    7     -0.45      0.00
   18    9    7     -0.11      0.00
   19    9    7     -0.44      0.00
   20    9    7      0.49      0.00
   21    9    7      0.42      0.00
   22    9    7      1.73      0.00
   23    9    7      0.06      0.00
   24    9    7      0.67      0.00
   25    9    7     -0.67      0.00
   26    9    7      0.08      0.00
  -28   10    7     -0.15      0.00
  -27   10    7     -1.38      0.00
  -26   10    7     -0.08      0.00
  -25   10    7     -0.37      0.00
  -24   10    7     -0.21      0.00
  -23   10    7     -0.16      0.00
  -22   10    7     -2.59      0.00
  -21   10    7     -1.07      0.00
  -20   10    7      3.75      0.00
  -19   10    7     -2.61      0.00
  -18   10    7      0.78      0.00
  -17   10    7      0.79      0.00
  -16   10    7      0.74      0.00
  -15   10    7     -0.32      0.00
  -14   10    7      0.23      0.00
  -13   10    7     -0.27      0.00
  -12   10    7     -0.62      0.00
  -11   10    7      1.52      0.00
  -10   10    7      0.29      0.00
   -9   10    7      1.42      0.00
   -8   10    7     -0.81      0.00
   -7   10    7     -0.64      0.00
   -6   10    7     -1.45      0.00
   -5   10    7      1.75      0.00
   -4   10    7     -0.71      0.00
    0   10    7     -0.62      0.00
    1   10    7     -4.16      0.00
    2   10    7     -3.16      0.00
    3   10    7     -0.58      0.00
    4   10    7     -3.92      0.00
    5   10    7      1.87      0.00
    6   10    7      2.84      0.00
    7   10    7     -4.58      0.00
    8   10    7      0.05      0.00
    9   10    7     -2.99      0.00
   10   10    7      0.82      0.00
   11   10    7     -2.17      0.00
   12   10    7      1.18      0.00
   13   10    7      0.10      0.00
   14   10    7      0.55      0.00
   15   10    7     -0.08      0.00
   16   10    7      0.77      0.00
   17   10    7      0.39      0.00
   18   10    7      0.35      0.00
   19   10    7     -0.84      0.00
   20   10    7      0.85      0.00
   21   10    7     -1.21      0.00
   22   10    7      1.25      0.00
   23   10    7      0.07      0.00
   24   10    7      0.65      0.00
  -18    0    8      0.34      0.00
  -17    0    8     -3.04      0.00
  -16    0    8     -2.57      0.00
  -15    0    8     -0.16      0.00
  -14    0    8     -0.10      0.00
  -13    0    8      0.49      0.00
  -12    0    8     -4.93      0.00
  -11    0    8     -7.55      0.00
  -10    0    8      0.87      0.00
   -9    0    8      1.74      0.00
   -8    0    8      3.65      0.00
   -7    0    8     -6.92      0.00
   -6    0    8     -4.31      0.00
   -5    0    8     -1.35      0.00
   13    0    8      2.10      0.00
   14    0    8     -2.43      0.00
   15    0    8      8.07      0.00
   16    0    8     -1.48      0.00
   17    0    8      3.00      0.00
   18    0    8      1.40      0.00
   19    0    8     -1.70      0.00
   20    0    8     -0.83      0.00
   21    0    8      1.41      0.00
   22    0    8     -0.34      0.00
   23    0    8      0.72      0.00
   24    0    8      0.28      0.00
   25    0    8      0.22      0.00
   26    0    8     -0.78      0.00
   27    0    8     -0.25      0.00
   28    0    8     -0.25      0.00
   29    0    8     -1.35      0.00
  -18    1    8      3.65      0.00
  -17    1    8     -3.94      0.00
  -16    1    8     -0.61      0.00
  -15    1    8      1.06      0.00
  -14    1    8      2.97      0.00
  -13    1    8      1.24      0.00
  -12    1    8     -3.20      0.00
  -10    1    8     -1.10      0.00
   -9    1    8      0.91      0.00
   -8    1    8      4.30      0.00
   15    1    8     -2.90      0.00
   16    1    8      2.61      0.00
   17    1    8     -2.08      0.00
   18    1    8     -0.87      0.00
   19    1    8      0.59      0.00
   20    1    8     -1.56      0.00
   21    1    8     -0.79      0.00
   22    1    8      0.39      0.00
   23    1    8     -0.67      0.00
   24    1    8      1.35      0.00
   25    1    8     -1.34      0.00
   26    1    8      2.07      0.00
   27    1    8     -0.25      0.00
   28    1    8      1.04      0.00
   29    1    8      0.26      0.00
  -17    2    8     -1.54      0.00
  -16    2    8      1.39      0.00
  -12    2    8      2.30      0.00
  -11    2    8     -0.55      0.00
  -10    2    8     -3.01      0.00
   -9    2    8      5.09      0.00
   15    2    8     -3.49      0.00
   16    2    8     -1.54      0.00
   17    2    8      0.85      0.00
   18    2    8     -0.70      0.00
   19    2    8     -0.79      0.00
   20    2    8     -0.78      0.00
   21    2    8      1.16      0.00
   22    2    8     -1.05      0.00
   23    2    8     -0.09      0.00
   24    2    8      0.98      0.00
   25    2    8     -0.22      0.00
   26    2    8     -0.39      0.00
   27    2    8      0.12      0.00
   28    2    8      0.40      0.00
   29    2    8     -0.06      0.00
  -14    3    8     -2.25      0.00
  -13    3    8      0.32      0.00
  -12    3    8      2.75      0.00
  -11    3    8      1.06      0.00
  -10    3    8      1.03      0.00
   -9    3    8      1.55      0.00
   -8    3    8      0.37      0.00
   15    3    8      1.46      0.00
   16    3    8      1.47      0.00
   17    3    8     -1.77      0.00
   18    3    8      1.71      0.00
   19    3    8      0.40      0.00
   20    3    8     -0.40      0.00
   21    3    8     -0.25      0.00
   22    3    8      0.73      0.00
   23    3    8     -0.28      0.00
   24    3    8     -0.92      0.00
   25    3    8      1.47      0.00
   26    3    8     -0.32      0.00
   27    3    8      0.59      0.00
   28    3    8     -0.47      0.00
   29    3    8     -0.59      0.00
  -15    4    8      0.28      0.00
  -14    4    8     -0.22      0.00
  -13    4    8      0.73      0.00
  -12    4    8     -2.68      0.00
  -11    4    8     -2.27      0.00
  -10    4    8      0.62      0.00
   -9    4    8     -2.21      0.00
   -8    4    8      2.85      0.00
   15    4    8      2.87      0.00
   16    4    8     -1.16      0.00
   17    4    8     -1.71      0.00
   18    4    8     -1.21      0.00
   19    4    8     -0.13      0.00
   20    4    8      0.83      0.00
   21    4    8     -0.97      0.00
   22    4    8      0.92      0.00
   23    4    8     -1.14      0.00
   24    4    8     -0.70      0.00
   25    4    8     -0.03      0.00
   26    4    8      1.17      0.00
   27    4    8      0.22      0.00
   28    4    8     -0.14      0.00
   29    4    8      0.04      0.00
  -29    5    8     -1.15      0.00
  -13    5    8      4.80      0.00
  -12    5    8      1.91      0.00
  -11    5    8     -1.33      0.00
  -10    5    8     -1.21      0.00
   -9    5    8      1.41      0.00
   -8    5    8     -2.58      0.00
   14    5    8     -1.24      0.00
   15    5    8      3.36      0.00
   16    5    8     -1.24      0.00
   17    5    8      1.70      0.00
   18    5    8     -3.18      0.00
   19    5    8      0.40      0.00
   20    5    8     -1.05      0.00
   21    5    8     -0.30      0.00
   22    5    8      1.73      0.00
   23    5    8     -0.87      0.00
   24    5    8      0.11      0.00
   25    5    8     -2.07      0.00
   26    5    8      0.05      0.00
   27    5    8      0.53      0.00
   28    5    8      0.02      0.00
  -29    6    8      0.84      0.00
  -28    6    8     -0.40      0.00
  -10    6    8     -0.96      0.00
   -9    6    8     -2.45      0.00
   -8    6    8      0.44      0.00
   -7    6    8     -3.78      0.00
   13    6    8     -2.42      0.00
   14    6    8      0.44      0.00
   15    6    8      1.17      0.00
   16    6    8      0.30      0.00
   17    6    8      1.32      0.00
   18    6    8     -0.22      0.00
   19    6    8      0.30      0.00
   20    6    8     -0.27      0.00
   21    6    8     -0.53      0.00
   22    6    8      0.27      0.00
   23    6    8      0.66      0.00
   24    6    8      0.39      0.00
   25    6    8      0.50      0.00
   26    6    8      0.02      0.00
   27    6    8     -0.56      0.00
   28    6    8      0.31      0.00
  -29    7    8     -0.95      0.00
  -28    7    8      0.05      0.00
  -27    7    8      1.73      0.00
  -11    7    8     -0.69      0.00
  -10    7    8      0.60      0.00
   -9    7    8     -2.54      0.00
   -8    7    8     -1.61      0.00
   -7    7    8      0.20      0.00
   -6    7    8     -2.23      0.00
   11    7    8     -2.40      0.00
   12    7    8     -4.09      0.00
   13    7    8     -0.22      0.00
   14    7    8     -0.84      0.00
   15    7    8     -1.20      0.00
   16    7    8      0.37      0.00
   17    7    8     -0.83      0.00
   18    7    8      1.24      0.00
   19    7    8     -1.34      0.00
   20    7    8      1.07      0.00
   21    7    8      0.64      0.00
   22    7    8     -0.35      0.00
   23    7    8      0.24      0.00
   24    7    8     -0.99      0.00
   25    7    8      0.30      0.00
   26    7    8     -0.27      0.00
   27    7    8     -0.18      0.00
  -29    8    8     -1.41      0.00
  -28    8    8      1.13      0.00
  -27    8    8     -1.21      0.00
  -26    8    8      0.55      0.00
  -25    8    8      2.37      0.00
  -15    8    8      1.02      0.00
  -14    8    8     -1.55      0.00
  -13    8    8     -0.36      0.00
  -12    8    8     -1.61      0.00
  -11    8    8      1.52      0.00
  -10    8    8     -0.39      0.00
   -9    8    8     -0.34      0.00
   -8    8    8     -2.77      0.00
   -7    8    8     -0.76      0.00
   -6    8    8      1.98      0.00
    8    8    8     -0.72      0.00
    9    8    8     -1.54      0.00
   10    8    8      0.11      0.00
   11    8    8      3.48      0.00
   12    8    8     -0.42      0.00
   13    8    8      0.19      0.00
   14    8    8     -1.14      0.00
   15    8    8     -0.03      0.00
   16    8    8      2.09      0.00
   17    8    8      0.59      0.00
   18    8    8      1.08      0.00
   19    8    8     -1.25      0.00
   20    8    8     -0.86      0.00
   21    8    8     -0.20      0.00
   22    8    8     -1.03      0.00
   23    8    8      0.39      0.00
   24    8    8      0.33      0.00
   25    8    8      0.27      0.00
   26    8    8     -0.22      0.00
  -28    9    8     -0.11      0.00
  -27    9    8      0.28      0.00
  -26    9    8     -0.83      0.00
  -25    9    8     -0.01      0.00
  -24    9    8      0.12      0.00
  -23    9    8     -0.08      0.00
  -22    9    8     -0.03      0.00
  -21    9    8     -0.84      0.00
  -20    9    8     -3.08      0.00
  -19    9    8      2.11      0.00
  -18    9    8     -3.07      0.00
  -17    9    8     -1.74      0.00
  -16    9    8     -1.28      0.00
  -15    9    8      1.77      0.00
  -14    9    8     -0.12      0.00
  -13    9    8     -0.86      0.00
  -12    9    8     -1.03      0.00
  -11    9    8      0.58      0.00
  -10    9    8     -1.02      0.00
   -9    9    8     -0.36      0.00
   -8    9    8      0.16      0.00
   -7    9    8     -0.13      0.00
   -6    9    8      0.60      0.00
   -5    9    8      2.61      0.00
    4    9    8     -2.65      0.00
    5    9    8      0.11      0.00
    6    9    8      1.08      0.00
    7    9    8     -2.06      0.00
    8    9    8     -0.22      0.00
    9    9    8      0.14      0.00
   10    9    8      2.79      0.00
   11    9    8      1.74      0.00
   12    9    8      1.04      0.00
   13    9    8      0.69      0.00
   14    9    8      0.59      0.00
   15    9    8     -0.30      0.00
   16    9    8     -0.32      0.00
   17    9    8      1.01      0.00
   18    9    8     -0.52      0.00
   19    9    8      0.87      0.00
   20    9    8      0.16      0.00
   21    9    8      1.02      0.00
   22    9    8      1.10      0.00
   23    9    8     -0.87      0.00
   24    9    8      1.06      0.00
   25    9    8      1.71      0.00
  -27   10    8     -0.74      0.00
  -26   10    8     -0.86      0.00
  -25   10    8      0.55      0.00
  -24   10    8      1.13      0.00
  -23   10    8      1.28      0.00
  -22   10    8     -1.66      0.00
  -21   10    8      1.16      0.00
  -20   10    8     -1.59      0.00
  -19   10    8      0.72      0.00
  -18   10    8     -2.94      0.00
  -17   10    8      1.99      0.00
  -16   10    8     -0.44      0.00
  -15   10    8      1.53      0.00
  -14   10    8      0.44      0.00
  -13   10    8     -1.03      0.00
  -12   10    8     -1.92      0.00
  -11   10    8      1.67      0.00
  -10   10    8      0.50      0.00
   -9   10    8      0.06      0.00
   -8   10    8     -1.79      0.00
   -7   10    8      0.19      0.00
   -6   10    8      1.24      0.00
   -5   10    8      1.80      0.00
   -4   10    8      0.22      0.00
   -3   10    8      0.75      0.00
   -2   10    8      4.97      0.00
   -1   10    8     -2.88      0.00
    0   10    8      1.32      0.00
    1   10    8      2.42      0.00
    2   10    8      6.23      0.00
    3   10    8      0.21      0.00
    4   10    8      2.03      0.00
    5   10    8     -1.66      0.00
    6   10    8      0.06      0.00
    7   10    8      1.43      0.00
    8   10    8     -1.25      0.00
    9   10    8     -1.63      0.00
   10   10    8     -1.32      0.00
   11   10    8      1.15      0.00
   12   10    8      0.66      0.00
   13   10    8     -0.94      0.00
   14   10    8     -1.47      0.00
   15   10    8     -0.91      0.00
   16   10    8     -0.70      0.00
   17   10    8     -0.05      0.00
   18   10    8     -0.87      0.00
   19   10    8     -1.55      0.00
   20   10    8     -0.22      0.00
   21   10    8     -0.35      0.00
   22   10    8     -0.20      0.00
   23   10    8      0.76      0.00
  -18    1    9      2.81      0.00
  -17    1    9     -1.11      0.00
  -16    1    9      1.40      0.00
  -15    1    9     -0.22      0.00
  -14    1    9      1.94      0.00
  -13    1    9      1.90      0.00
  -12    1    9     -1.62      0.00
  -11    1    9     -1.03      0.00
  -10    1    9      1.27      0.00
   -9    1    9      0.39      0.00
   -8    1    9     -0.93      0.00
   -7    1    9     -6.25      0.00
   15    1    9     -0.09      0.00
   16    1    9     -0.93      0.00
   17    1    9      0.53      0.00
   18    1    9     -1.38      0.00
   19    1    9      0.47      0.00
   20    1    9      0.96      0.00
   21    1    9      0.01      0.00
   22    1    9      0.65      0.00
   23    1    9      0.22      0.00
   24    1    9      0.63      0.00
   25    1    9      1.07      0.00
   26    1    9      0.42      0.00
   27    1    9     -0.10      0.00
   28    1    9     -0.89      0.00
   29    1    9      0.08      0.00
  -18    2    9      0.57      0.00
  -17    2    9     -1.84      0.00
  -16    2    9      2.18      0.00
  -15    2    9      1.96      0.00
  -14    2    9     -1.51      0.00
  -13    2    9     -2.09      0.00
  -12    2    9     -0.15      0.00
  -11    2    9     -1.70      0.00
  -10    2    9     -1.09      0.00
   -9    2    9     -1.20      0.00
   -8    2    9     -0.97      0.00
   15    2    9     -0.33      0.00
   16    2    9     -1.31      0.00
   17    2    9     -1.32      0.00
   18    2    9     -0.52      0.00
   19    2    9     -0.35      0.00
   20    2    9     -1.01      0.00
   21    2    9      0.28      0.00
   22    2    9     -0.14      0.00
   23    2    9     -0.29      0.00
   24    2    9     -1.83      0.00
   25    2    9      0.05      0.00
   26    2    9      0.79      0.00
   27    2    9      0.86      0.00
   28    2    9     -0.04      0.00
   29    2    9     -1.04      0.00
  -29    3    9     -1.60      0.00
  -17    3    9      1.27      0.00
  -16    3    9     -0.58      0.00
  -15    3    9     -4.32      0.00
  -14    3    9      1.91      0.00
  -13    3    9     -1.50      0.00
  -12    3    9     -0.57      0.00
  -11    3    9     -1.09      0.00
  -10    3    9     -1.79      0.00
   -9    3    9     -0.99      0.00
   -8    3    9     -0.77      0.00
   15    3    9     -1.43      0.00
   16    3    9     -0.45      0.00
   17    3    9     -1.06      0.00
   18    3    9      0.02      0.00
   19    3    9     -0.44      0.00
   20    3    9     -0.62      0.00
   21    3    9     -0.44      0.00
   22    3    9     -1.12      0.00
   23    3    9      1.22      0.00
   24    3    9     -0.94      0.00
   25    3    9     -0.29      0.00
   26    3    9     -0.91      0.00
   27    3    9     -0.04      0.00
   28    3    9      0.91      0.00
  -29    4    9     -0.97      0.00
  -14    4    9     -1.17      0.00
  -13    4    9     -1.02      0.00
  -12    4    9      0.36      0.00
  -11    4    9      3.33      0.00
  -10    4    9      1.95      0.00
   -9    4    9     -0.20      0.00
   -8    4    9      3.07      0.00
   14    4    9      2.56      0.00
   15    4    9      3.71      0.00
   16    4    9      0.43      0.00
   17    4    9      1.50      0.00
   18    4    9      1.32      0.00
   19    4    9      0.19      0.00
   20    4    9     -0.24      0.00
   21    4    9     -0.08      0.00
   22    4    9     -0.16      0.00
   23    4    9     -0.30      0.00
   24    4    9      0.03      0.00
   25    4    9      0.55      0.00
   26    4    9      0.79      0.00
   27    4    9      0.91      0.00
   28    4    9      0.25      0.00
  -29    5    9     -2.35      0.00
  -28    5    9      3.10      0.00
  -13    5    9      1.31      0.00
  -12    5    9     -1.58      0.00
  -11    5    9      3.00      0.00
  -10    5    9     -1.01      0.00
   -9    5    9      0.57      0.00
   -8    5    9     -0.59      0.00
   -7    5    9      4.22      0.00
   13    5    9      0.31      0.00
   14    5    9      0.47      0.00
   15    5    9      0.95      0.00
   16    5    9     -2.73      0.00
   17    5    9     -0.05      0.00
   18    5    9     -0.06      0.00
   19    5    9      0.25      0.00
   20    5    9      0.07      0.00
   21    5    9     -0.63      0.00
   22    5    9     -0.33      0.00
   23    5    9     -0.05      0.00
   24    5    9      0.28      0.00
   25    5    9     -0.57      0.00
   26    5    9     -0.25      0.00
   27    5    9     -0.02      0.00
  -29    6    9      0.47      0.00
  -28    6    9     -2.30      0.00
  -27    6    9      2.28      0.00
  -11    6    9      1.69      0.00
  -10    6    9      2.28      0.00
   -9    6    9     -1.09      0.00
   -8    6    9     -0.20      0.00
   -7    6    9      0.98      0.00
   -6    6    9     -1.63      0.00
   11    6    9      1.55      0.00
   12    6    9      0.12      0.00
   13    6    9     -0.14      0.00
   14    6    9     -1.31      0.00
   15    6    9     -1.84      0.00
   16    6    9     -2.35      0.00
   17    6    9      0.59      0.00
   18    6    9     -1.82      0.00
   19    6    9     -0.10      0.00
   20    6    9      0.16      0.00
   21    6    9      1.12      0.00
   22    6    9     -0.43      0.00
   23    6    9     -0.45      0.00
   24    6    9      1.04      0.00
   25    6    9     -0.51      0.00
   26    6    9     -0.74      0.00
   27    6    9     -1.06      0.00
  -29    7    9      0.46      0.00
  -28    7    9      0.64      0.00
  -27    7    9      0.57      0.00
  -26    7    9     -0.53      0.00
  -11    7    9      0.96      0.00
  -10    7    9      1.33      0.00
   -9    7    9      0.57      0.00
   -8    7    9     -0.73      0.00
   -7    7    9      2.05      0.00
   -6    7    9     -0.72      0.00
    9    7    9     -3.18      0.00
   10    7    9     -2.65      0.00
   11    7    9      2.03      0.00
   12    7    9      0.29      0.00
   13    7    9     -0.41      0.00
   14    7    9      2.11      0.00
   15    7    9      2.24      0.00
   16    7    9     -1.02      0.00
   17    7    9      1.78      0.00
   18    7    9      0.73      0.00
   19    7    9      0.05      0.00
   20    7    9      0.75      0.00
   21    7    9      1.46      0.00
   22    7    9     -0.03      0.00
   23    7    9      0.21      0.00
   24    7    9     -0.16      0.00
   25    7    9      0.82      0.00
   26    7    9     -0.08      0.00
  -29    8    9      1.04      0.00
  -28    8    9     -0.27      0.00
  -27    8    9      0.96      0.00
  -26    8    9     -1.65      0.00
  -25    8    9     -0.42      0.00
  -24    8    9      2.33      0.00
  -16    8    9      1.13      0.00
  -15    8    9      0.86      0.00
  -14    8    9     -0.75      0.00
  -13    8    9      0.97      0.00
  -12    8    9     -1.34      0.00
  -11    8    9     -2.83      0.00
  -10    8    9      0.39      0.00
   -9    8    9     -0.87      0.00
   -8    8    9      1.29      0.00
   -7    8    9     -2.24      0.00
   -6    8    9      1.28      0.00
   -5    8    9     -1.78      0.00
    5    8    9      1.16      0.00
    6    8    9     -2.10      0.00
    7    8    9     -0.48      0.00
    8    8    9     -1.97      0.00
    9    8    9     -1.13      0.00
   10    8    9     -4.10      0.00
   11    8    9     -1.05      0.00
   12    8    9     -0.53      0.00
   13    8    9      0.54      0.00
   14    8    9     -1.34      0.00
   15    8    9      0.67      0.00
   16    8    9      0.17      0.00
   17    8    9      0.06      0.00
   18    8    9     -0.39      0.00
   19    8    9     -0.35      0.00
   20    8    9     -0.53      0.00
   21    8    9      0.35      0.00
   22    8    9     -0.87      0.00
   23    8    9     -0.29      0.00
   24    8    9     -0.47      0.00
   25    8    9     -0.78      0.00
  -28    9    9     -0.18      0.00
  -27    9    9     -0.77      0.00
  -26    9    9     -1.58      0.00
  -25    9    9     -1.60      0.00
  -24    9    9     -2.19      0.00
  -23    9    9     -1.83      0.00
  -22    9    9     -0.63      0.00
  -21    9    9      0.61      0.00
  -20    9    9      3.70      0.00
  -19    9    9     -3.71      0.00
  -18    9    9     -3.54      0.00
  -17    9    9     -0.11      0.00
  -16    9    9      2.97      0.00
  -15    9    9     -3.51      0.00
  -14    9    9     -0.09      0.00
  -13    9    9     -2.00      0.00
  -12    9    9      0.39      0.00
  -11    9    9     -3.56      0.00
  -10    9    9     -0.58      0.00
   -9    9    9     -3.44      0.00
   -8    9    9     -1.20      0.00
   -7    9    9      0.60      0.00
   -6    9    9      1.58      0.00
   -5    9    9     -0.35      0.00
   -4    9    9      1.56      0.00
   -3    9    9      4.35      0.00
   -2    9    9      0.47      0.00
   -1    9    9     -1.66      0.00
    0    9    9     -0.09      0.00
    1    9    9      3.91      0.00
    2    9    9     -0.80      0.00
    3    9    9     -0.84      0.00
    4    9    9     -0.23      0.00
    5    9    9     -1.29      0.00
    6    9    9      0.66      0.00
    7    9    9      0.01      0.00
    8    9    9      0.33      0.00
    9    9    9     -0.22      0.00
   10    9    9      0.07      0.00
   11    9    9      0.61      0.00
   12    9    9      0.09      0.00
   13    9    9     -1.33      0.00
   14    9    9     -0.19      0.00
   15    9    9     -0.72      0.00
   16    9    9     -0.20      0.00
   17    9    9      0.01      0.00
   18    9    9     -0.79      0.00
   19    9    9     -1.52      0.00
   20    9    9      0.94      0.00
   21    9    9     -0.75      0.00
   22    9    9      0.32      0.00
   23    9    9      0.10      0.00
   24    9    9      1.03      0.00
  -26   10    9      0.74      0.00
  -25   10    9      0.30      0.00
  -24   10    9      0.20      0.00
  -23   10    9     -3.33      0.00
  -22   10    9     -1.84      0.00
  -21   10    9     -1.12      0.00
  -20   10    9     -1.66      0.00
  -19   10    9     -0.95      0.00
  -18   10    9     -0.69      0.00
  -17   10    9      0.16      0.00
  -16   10    9     -1.43      0.00
  -15   10    9      0.16      0.00
  -14   10    9      0.44      0.00
  -13   10    9      1.94      0.00
  -12   10    9      0.35      0.00
  -11   10    9     -0.83      0.00
  -10   10    9      0.44      0.00
   -9   10    9      1.23      0.00
   -8   10    9      1.08      0.00
   -7   10    9      0.72      0.00
   -6   10    9     -2.53      0.00
   -5   10    9      0.38      0.00
   -4   10    9     -0.36      0.00
   -3   10    9      1.24      0.00
   -2   10    9     -0.79      0.00
   -1   10    9      1.42      0.00
    0   10    9      1.27      0.00
    1   10    9     -0.62      0.00
    2   10    9     -0.23      0.00
    3   10    9      0.48      0.00
    4   10    9     -0.30      0.00
    5   10    9     -0.48      0.00
    6   10    9      0.01      0.00
    7   10    9      0.18      0.00
    8   10    9      1.56      0.00
    9   10    9     -0.15      0.00
   10   10    9      0.36      0.00
   11   10    9     -0.92      0.00
   12   10    9      1.20      0.00
   13   10    9     -0.69      0.00
   14   10    9      0.84      0.00
   15   10    9      1.06      0.00
   16   10    9      0.43      0.00
   17   10    9     -0.89      0.00
   18   10    9      0.63      0.00
   19   10    9     -0.54      0.00
   20   10    9      1.01      0.00
   21   10    9      0.86      0.00
   22   10    9      0.33      0.00
  -29    0   10      3.38      0.00
  -19    0   10      4.36      0.00
  -18    0   10     -5.31      0.00
  -17    0   10      1.23      0.00
  -16    0   10      0.54      0.00
  -15    0   10      6.52      0.00
  -14    0   10      1.14      0.00
  -13    0   10     -0.77      0.00
  -12    0   10     -0.56      0.00
  -11    0   10      2.62      0.00
  -10    0   10     -1.66      0.00
   -9    0   10     -1.28      0.00
   -8    0   10     -1.25      0.00
   -7    0   10     -2.60      0.00
   -6    0   10     -0.95      0.00
   -5    0   10     -0.49      0.00
   -4    0   10     -4.47      0.00
   -3    0   10     -6.63      0.00
   -2    0   10      0.21      0.00
   13    0   10     -6.06      0.00
   14    0   10      5.18      0.00
   15    0   10      1.93      0.00
   16    0   10     -0.96      0.00
   17    0   10     -1.52      0.00
   18    0   10     -1.01      0.00
   19    0   10      3.24      0.00
   20    0   10     -1.98      0.00
   21    0   10      1.13      0.00
   22    0   10      0.06      0.00
   23    0   10     -0.13      0.00
   24    0   10     -2.71      0.00
   25    0   10      0.26      0.00
   26    0   10      0.65      0.00
   27    0   10     -0.25      0.00
   28    0   10      1.26      0.00
  -29    1   10     -0.36      0.00
  -19    1   10     -0.32      0.00
  -18    1   10      3.73      0.00
  -17    1   10      1.07      0.00
  -16    1   10      0.49      0.00
  -15    1   10      0.56      0.00
  -14    1   10      1.42      0.00
  -13    1   10      1.12      0.00
  -12    1   10      0.65      0.00
  -11    1   10      1.30      0.00
  -10    1   10      1.68      0.00
   -9    1   10     -1.30      0.00
   -8    1   10      1.23      0.00
   -7    1   10      0.35      0.00
   -6    1   10     -0.09      0.00
   13    1   10     -4.93      0.00
   14    1   10      1.71      0.00
   15    1   10     -0.82      0.00
   16    1   10      1.00      0.00
   17    1   10     -0.02      0.00
   18    1   10     -0.45      0.00
   19    1   10      0.25      0.00
   20    1   10      0.32      0.00
   21    1   10     -0.44      0.00
   22    1   10      0.07      0.00
   23    1   10      0.43      0.00
   24    1   10     -0.05      0.00
   25    1   10     -1.42      0.00
   26    1   10     -0.68      0.00
   27    1   10      0.21      0.00
   28    1   10     -0.98      0.00
  -29    2   10     -0.33      0.00
  -18    2   10     -2.90      0.00
  -17    2   10      1.67      0.00
  -16    2   10      0.57      0.00
  -15    2   10     -0.34      0.00
  -14    2   10      1.98      0.00
  -13    2   10     -4.00      0.00
  -12    2   10     -2.41      0.00
  -11    2   10     -0.38      0.00
  -10    2   10      0.23      0.00
   -9    2   10     -1.58      0.00
   -8    2   10     -0.82      0.00
   13    2   10      2.19      0.00
   14    2   10      2.62      0.00
   15    2   10      0.73      0.00
   16    2   10     -0.91      0.00
   17    2   10     -0.68      0.00
   18    2   10      0.48      0.00
   19    2   10     -0.32      0.00
   20    2   10      1.55      0.00
   21    2   10     -0.01      0.00
   22    2   10      0.88      0.00
   23    2   10     -0.67      0.00
   24    2   10      0.47      0.00
   25    2   10      0.96      0.00
   26    2   10     -0.74      0.00
   27    2   10      0.28      0.00
   28    2   10      0.32      0.00
  -29    3   10     -2.79      0.00
  -17    3   10      0.29      0.00
  -16    3   10      1.76      0.00
  -15    3   10     -0.92      0.00
  -14    3   10      1.22      0.00
  -13    3   10      1.48      0.00
  -12    3   10     -0.18      0.00
  -11    3   10      0.31      0.00
  -10    3   10      0.88      0.00
   -9    3   10     -0.17      0.00
   -8    3   10      1.04      0.00
   -7    3   10     -1.28      0.00
   13    3   10     -2.22      0.00
   14    3   10     -1.29      0.00
   15    3   10      0.37      0.00
   16    3   10     -2.39      0.00
   17    3   10      0.37      0.00
   18    3   10     -0.02      0.00
   19    3   10     -0.06      0.00
   20    3   10     -0.33      0.00
   21    3   10      2.81      0.00
   22    3   10      0.36      0.00
   23    3   10     -0.26      0.00
   24    3   10     -0.53      0.00
   25    3   10     -1.04      0.00
   26    3   10      0.28      0.00
   27    3   10     -0.65      0.00
  -29    4   10      1.04      0.00
  -28    4   10      0.06      0.00
  -16    4   10     -5.23      0.00
  -15    4   10     -0.48      0.00
  -14    4   10      2.10      0.00
  -13    4   10      1.40      0.00
  -12    4   10     -1.51      0.00
  -11    4   10      0.17      0.00
  -10    4   10      0.71      0.00
   -9    4   10      1.54      0.00
   -8    4   10      1.92      0.00
   -7    4   10      3.83      0.00
   12    4   10      0.10      0.00
   13    4   10     -3.18      0.00
   14    4   10      1.42      0.00
   15    4   10     -2.65      0.00
   16    4   10      0.12      0.00
   17    4   10     -0.37      0.00
   18    4   10      0.39      0.00
   19    4   10     -0.01      0.00
   20    4   10     -0.84      0.00
   21    4   10      0.32      0.00
   22    4   10      1.20      0.00
   23    4   10     -0.78      0.00
   24    4   10      0.39      0.00
   25    4   10     -0.56      0.00
   26    4   10     -1.47      0.00
   27    4   10     -0.80      0.00
  -29    5   10      0.58      0.00
  -28    5   10      1.22      0.00
  -14    5   10     -1.59      0.00
  -13    5   10     -1.92      0.00
  -12    5   10      1.46      0.00
  -11    5   10     -2.44      0.00
  -10    5   10     -1.56      0.00
   -9    5   10     -1.36      0.00
   -8    5   10     -0.25      0.00
   -7    5   10      2.71      0.00
   -6    5   10      0.20      0.00
   11    5   10      0.45      0.00
   12    5   10      0.70      0.00
   13    5   10      1.97      0.00
   14    5   10      2.79      0.00
   15    5   10      0.79      0.00
   16    5   10      0.47      0.00
   17    5   10      0.11      0.00
   18    5   10     -0.50      0.00
   19    5   10     -1.62      0.00
   20    5   10     -0.12      0.00
   21    5   10     -0.52      0.00
   22    5   10      0.94      0.00
   23    5   10      0.14      0.00
   24    5   10     -0.03      0.00
   25    5   10      1.96      0.00
   26    5   10      0.07      0.00
  -29    6   10     -0.17      0.00
  -28    6   10     -0.97      0.00
  -27    6   10      0.40      0.00
  -11    6   10     -0.48      0.00
  -10    6   10     -0.99      0.00
   -9    6   10     -0.75      0.00
   -8    6   10     -0.25      0.00
   -7    6   10      0.48      0.00
   -6    6   10      2.06      0.00
   10    6   10      1.20      0.00
   11    6   10      4.40      0.00
   12    6   10     -2.28      0.00
   13    6   10      0.80      0.00
   14    6   10      0.57      0.00
   15    6   10     -0.38      0.00
   16    6   10     -0.11      0.00
   17    6   10     -0.55      0.00
   18    6   10     -1.32      0.00
   19    6   10     -0.59      0.00
   20    6   10      0.49      0.00
   21    6   10     -0.51      0.00
   22    6   10      0.30      0.00
   23    6   10      0.99      0.00
   24    6   10     -0.20      0.00
   25    6   10      1.11      0.00
   26    6   10     -0.18      0.00
  -29    7   10      0.34      0.00
  -28    7   10     -1.11      0.00
  -27    7   10     -0.58      0.00
  -26    7   10     -1.08      0.00
  -25    7   10     -3.76      0.00
  -12    7   10     -2.12      0.00
  -11    7   10      2.81      0.00
  -10    7   10      0.56      0.00
   -9    7   10      0.80      0.00
   -8    7   10      0.33      0.00
   -7    7   10     -1.79      0.00
   -6    7   10      3.29      0.00
   -5    7   10      2.07      0.00
    9    7   10      0.97      0.00
   10    7   10      3.33      0.00
   11    7   10      2.34      0.00
   12    7   10      0.33      0.00
   13    7   10     -0.95      0.00
   14    7   10      0.47      0.00
   15    7   10     -0.62      0.00
   16    7   10      1.58      0.00
   17    7   10      1.15      0.00
   18    7   10     -0.91      0.00
   19    7   10     -0.70      0.00
   20    7   10      0.41      0.00
   21    7   10      0.79      0.00
   22    7   10     -0.23      0.00
   23    7   10      0.11      0.00
   24    7   10      0.10      0.00
   25    7   10     -0.04      0.00
  -28    8   10      1.72      0.00
  -27    8   10     -1.43      0.00
  -26    8   10      1.24      0.00
  -25    8   10      1.09      0.00
  -24    8   10      0.31      0.00
  -23    8   10     -4.05      0.00
  -18    8   10      0.43      0.00
  -17    8   10      3.67      0.00
  -16    8   10     -3.79      0.00
  -15    8   10      2.92      0.00
  -14    8   10      1.18      0.00
  -13    8   10      3.10      0.00
  -12    8   10     -1.78      0.00
  -11    8   10      1.55      0.00
  -10    8   10     -1.00      0.00
   -9    8   10      1.91      0.00
   -8    8   10     -0.62      0.00
   -7    8   10      1.31      0.00
   -6    8   10     -2.01      0.00
   -5    8   10      0.99      0.00
   -4    8   10      1.91      0.00
    0    8   10      1.67      0.00
    1    8   10     -1.45      0.00
    2    8   10     -3.89      0.00
    3    8   10     -1.77      0.00
    4    8   10      0.75      0.00
    6    8   10     -0.65      0.00
    7    8   10     -2.57      0.00
    8    8   10     -0.19      0.00
    9    8   10     -1.62      0.00
   10    8   10     -0.98      0.00
   11    8   10     -0.54      0.00
   12    8   10     -1.01      0.00
   13    8   10     -0.07      0.00
   14    8   10     -0.30      0.00
   15    8   10      0.66      0.00
   16    8   10      0.51      0.00
   17    8   10      0.14      0.00
   18    8   10     -1.32      0.00
   19    8   10      0.42      0.00
   20    8   10     -0.37      0.00
   21    8   10     -0.05      0.00
   22    8   10     -0.40      0.00
   23    8   10      0.14      0.00
   24    8   10     -0.69      0.00
  -27    9   10      0.44      0.00
  -26    9   10      0.31      0.00
  -25    9   10      0.01      0.00
  -24    9   10      1.84      0.00
  -23    9   10      0.95      0.00
  -22    9   10     -0.62      0.00
  -21    9   10     -0.50      0.00
  -20    9   10      0.79      0.00
  -19    9   10     -0.61      0.00
  -18    9   10     -0.80      0.00
  -17    9   10     -1.34      0.00
  -16    9   10     -2.17      0.00
  -15    9   10     -0.71      0.00
  -14    9   10      0.53      0.00
  -13    9   10      0.29      0.00
  -12    9   10     -0.60      0.00
  -11    9   10      1.35      0.00
  -10    9   10     -1.21      0.00
   -9    9   10      1.35      0.00
   -8    9   10     -0.23      0.00
   -7    9   10     -1.98      0.00
   -6    9   10     -0.24      0.00
   -5    9   10      1.34      0.00
   -4    9   10     -2.23      0.00
   -3    9   10     -0.89      0.00
   -2    9   10     -1.76      0.00
   -1    9   10      4.97      0.00
    0    9   10      0.57      0.00
    1    9   10      1.98      0.00
    2    9   10      0.48      0.00
    3    9   10     -0.25      0.00
    4    9   10      2.13      0.00
    5    9   10      0.27      0.00
    6    9   10      1.14      0.00
    7    9   10     -2.17      0.00
    8    9   10     -3.28      0.00
    9    9   10     -1.16      0.00
   10    9   10      1.02      0.00
   11    9   10     -0.98      0.00
   12    9   10     -1.54      0.00
   13    9   10      0.31      0.00
   14    9   10     -0.17      0.00
   15    9   10     -1.14      0.00
   16    9   10      0.59      0.00
   17    9   10      0.71      0.00
   18    9   10     -1.73      0.00
   19    9   10     -0.03      0.00
   20    9   10     -1.21      0.00
   21    9   10     -0.29      0.00
   22    9   10     -1.00      0.00
   23    9   10      0.09      0.00
  -26   10   10      0.23      0.00
  -25   10   10      0.84      0.00
  -24   10   10      0.51      0.00
  -23   10   10     -0.39      0.00
  -22   10   10      0.55      0.00
  -21   10   10      2.13      0.00
  -20   10   10     -1.15      0.00
  -19   10   10     -0.23      0.00
  -18   10   10      1.28      0.00
  -17   10   10      2.20      0.00
  -16   10   10     -0.23      0.00
  -15   10   10     -0.54      0.00
  -14   10   10      0.10      0.00
  -13   10   10      0.45      0.00
  -12   10   10     -1.73      0.00
  -11   10   10      0.75      0.00
  -10   10   10      0.30      0.00
   -9   10   10     -2.23      0.00
   -8   10   10      0.16      0.00
   -7   10   10     -2.18      0.00
   -6   10   10     -1.37      0.00
   -5   10   10     -0.36      0.00
   -4   10   10      0.42      0.00
   -3   10   10     -0.68      0.00
   -2   10   10      1.08      0.00
   -1   10   10     -2.45      0.00
    0   10   10      0.98      0.00
    1   10   10     -1.61      0.00
    2   10   10     -1.18      0.00
    3   10   10     -3.01      0.00
    4   10   10      1.80      0.00
    5   10   10      0.32      0.00
    6   10   10     -0.44      0.00
    7   10   10      0.73      0.00
    8   10   10      0.25      0.00
    9   10   10      0.05      0.00
   10   10   10      0.04      0.00
   11   10   10      0.93      0.00
   12   10   10     -1.73      0.00
   13   10   10     -0.40      0.00
   14   10   10      0.65      0.00
   15   10   10      0.22      0.00
   16   10   10      0.45      0.00
   17   10   10      1.12      0.00
   18   10   10     -0.78      0.00
   19   10   10      0.71      0.00
   20   10   10      0.59      0.00
   21   10   10     -0.50      0.00
  -29    1   11      0.78      0.00
  -28    1   11     -0.20      0.00
  -19    1   11     -0.62      0.00
  -18    1   11     -0.50      0.00
  -17    1   11      2.06      0.00
  -16    1   11      2.04      0.00
  -15    1   11     -1.17      0.00
  -14    1   11     -1.02      0.00
  -13    1   11     -0.83      0.00
  -12    1   11      1.67      0.00
  -11    1   11     -1.20      0.00
  -10    1   11      0.23      0.00
   -9    1   11      0.54      0.00
   -8    1   11      0.85      0.00
   -7    1   11      2.40      0.00
   -6    1   11      0.91      0.00
   -5    1   11     -5.17      0.00
   13    1   11      0.92      0.00
   14    1   11      5.46      0.00
   15    1   11     -0.68      0.00
   16    1   11     -1.49      0.00
   17    1   11     -2.26      0.00
   18    1   11      0.11      0.00
   19    1   11      0.44      0.00
   20    1   11      1.58      0.00
   21    1   11      0.08      0.00
   22    1   11     -1.48      0.00
   23    1   11     -2.24      0.00
   24    1   11     -0.32      0.00
   25    1   11      0.69      0.00
   26    1   11     -0.24      0.00
   27    1   11      0.99      0.00
  -29    2   11     -0.84      0.00
  -28    2   11      1.96      0.00
  -18    2   11      1.03      0.00
  -17    2   11      0.05      0.00
  -16    2   11      2.71      0.00
  -15    2   11     -1.18      0.00
  -14    2   11      1.81      0.00
  -13    2   11     -0.51      0.00
  -12    2   11      0.78      0.00
  -11    2   11     -1.15      0.00
  -10    2   11     -0.75      0.00
   -9    2   11     -1.42      0.00
   -8    2   11     -1.82      0.00
   -7    2   11     -2.94      0.00
   13    2   11     -5.23      0.00
   14    2   11      2.14      0.00
   15    2   11     -2.23      0.00
   16    2   11      0.61      0.00
   17    2   11      0.23      0.00
   18    2   11     -2.07      0.00
   19    2   11     -1.42      0.00
   20    2   11      0.92      0.00
   21    2   11      2.86      0.00
   22    2   11      0.37      0.00
   23    2   11     -0.28      0.00
   24    2   11     -0.62      0.00
   25    2   11     -0.16      0.00
   26    2   11     -0.07      0.00
   27    2   11      0.17      0.00
  -29    3   11     -0.95      0.00
  -28    3   11     -1.28      0.00
  -17    3   11     -4.68      0.00
  -16    3   11      0.14      0.00
  -15    3   11     -1.99      0.00
  -14    3   11     -1.87      0.00
  -13    3   11     -0.95      0.00
  -12    3   11     -0.23      0.00
  -11    3   11      0.79      0.00
  -10    3   11     -0.96      0.00
   -9    3   11      1.00      0.00
   -8    3   11      1.83      0.00
   -7    3   11      0.23      0.00
   12    3   11     -4.37      0.00
   13    3   11     -2.37      0.00
   14    3   11      1.23      0.00
   15    3   11     -1.47      0.00
   16    3   11      0.22      0.00
   17    3   11      1.38      0.00
   18    3   11      1.20      0.00
   19    3   11     -0.55      0.00
   20    3   11      0.68      0.00
   21    3   11      1.83      0.00
   22    3   11      1.46      0.00
   23    3   11      0.09      0.00
   24    3   11      0.08      0.00
   25    3   11      0.75      0.00
   26    3   11     -1.14      0.00
  -29    4   11     -0.15      0.00
  -28    4   11      0.00      0.00
  -27    4   11      2.17      0.00
  -16    4   11      3.98      0.00
  -15    4   11      0.82      0.00
  -14    4   11     -4.69      0.00
  -13    4   11      2.14      0.00
  -12    4   11     -0.30      0.00
  -11    4   11      0.62      0.00
  -10    4   11     -2.06      0.00
   -9    4   11      1.15      0.00
   -8    4   11      1.31      0.00
   -7    4   11      3.04      0.00
   -6    4   11      0.23      0.00
   12    4   11      0.68      0.00
   13    4   11      1.01      0.00
   14    4   11      1.20      0.00
   15    4   11     -0.47      0.00
   16    4   11      0.43      0.00
   17    4   11      1.11      0.00
   18    4   11      0.59      0.00
   19    4   11     -0.84      0.00
   20    4   11      0.31      0.00
   21    4   11      0.44      0.00
   22    4   11     -0.22      0.00
   23    4   11      0.44      0.00
   24    4   11     -0.91      0.00
   25    4   11      0.13      0.00
   26    4   11      0.70      0.00
  -29    5   11      0.21      0.00
  -28    5   11      0.10      0.00
  -27    5   11     -0.97      0.00
  -14    5   11      2.53      0.00
  -13    5   11     -0.98      0.00
  -12    5   11      2.55      0.00
  -11    5   11      3.25      0.00
  -10    5   11     -0.39      0.00
   -9    5   11      0.00      0.00
   -8    5   11      0.48      0.00
   -7    5   11      1.78      0.00
   -6    5   11      1.02      0.00
   10    5   11     -1.77      0.00
   11    5   11      3.49      0.00
   12    5   11      1.21      0.00
   13    5   11     -0.65      0.00
   14    5   11      0.69      0.00
   15    5   11     -0.42      0.00
   16    5   11     -0.25      0.00
   17    5   11      0.72      0.00
   18    5   11     -0.63      0.00
   19    5   11      0.62      0.00
   20    5   11      0.13      0.00
   21    5   11     -0.04      0.00
   22    5   11     -0.42      0.00
   23    5   11      0.03      0.00
   24    5   11      0.19      0.00
   25    5   11      0.03      0.00
  -29    6   11     -1.50      0.00
  -28    6   11      0.52      0.00
  -27    6   11      0.05      0.00
  -26    6   11     -0.62      0.00
  -12    6   11      0.03      0.00
  -11    6   11     -1.57      0.00
  -10    6   11      1.21      0.00
   -9    6   11     -0.29      0.00
   -8    6   11      2.02      0.00
   -7    6   11      2.31      0.00
   -6    6   11      1.43      0.00
   -5    6   11     -1.09      0.00
    9    6   11     -1.79      0.00
   10    6   11     -5.60      0.00
   11    6   11     -3.04      0.00
   12    6   11     -0.67      0.00
   13    6   11     -1.28      0.00
   14    6   11     -0.07      0.00
   15    6   11     -1.46      0.00
   16    6   11     -0.35      0.00
   17    6   11      0.91      0.00
   18    6   11     -1.57      0.00
   19    6   11     -1.05      0.00
   20    6   11      0.47      0.00
   21    6   11      1.06      0.00
   22    6   11     -0.63      0.00
   23    6   11      1.05      0.00
   24    6   11      0.06      0.00
  -29    7   11     -0.18      0.00
  -28    7   11     -0.27      0.00
  -27    7   11      0.56      0.00
  -26    7   11      2.20      0.00
  -25    7   11      0.20      0.00
  -24    7   11     -0.65      0.00
  -13    7   11     -4.46      0.00
  -12    7   11     -0.97      0.00
  -11    7   11     -2.63      0.00
  -10    7   11     -3.42      0.00
   -9    7   11     -2.03      0.00
   -8    7   11     -1.55      0.00
   -7    7   11      0.01      0.00
   -6    7   11      0.93      0.00
   -5    7   11      0.25      0.00
   -4    7   11     -1.61      0.00
    8    7   11     -0.12      0.00
    9    7   11     -0.12      0.00
   10    7   11     -0.82      0.00
   11    7   11      0.06      0.00
   12    7   11      0.71      0.00
   13    7   11      0.13      0.00
   14    7   11      0.39      0.00
   15    7   11     -0.30      0.00
   16    7   11     -2.83      0.00
   17    7   11     -1.16      0.00
   18    7   11      0.62      0.00
   19    7   11     -0.28      0.00
   20    7   11     -1.04      0.00
   21    7   11     -0.52      0.00
   22    7   11     -0.01      0.00
   23    7   11     -0.01      0.00
   24    7   11      0.28      0.00
  -27    8   11     -0.45      0.00
  -26    8   11     -0.57      0.00
  -25    8   11      2.40      0.00
  -24    8   11      0.59      0.00
  -23    8   11      0.30      0.00
  -22    8   11      3.21      0.00
  -21    8   11      2.28      0.00
  -20    8   11      0.60      0.00
  -19    8   11     -1.36      0.00
  -18    8   11      2.94      0.00
  -17    8   11      2.10      0.00
  -16    8   11     -0.59      0.00
  -15    8   11     -2.48      0.00
  -14    8   11      0.16      0.00
  -13    8   11     -0.06      0.00
  -12    8   11      0.60      0.00
  -11    8   11      0.76      0.00
  -10    8   11      1.02      0.00
   -9    8   11     -0.42      0.00
   -8    8   11     -1.13      0.00
   -7    8   11     -2.14      0.00
   -6    8   11      0.14      0.00
   -5    8   11     -1.02      0.00
   -4    8   11      0.12      0.00
   -3    8   11     -3.19      0.00
   -2    8   11      6.32      0.00
   -1    8   11     -3.69      0.00
    0    8   11     -1.64      0.00
    1    8   11      2.04      0.00
    2    8   11     -2.23      0.00
    3    8   11     -0.05      0.00
    6    8   11     -1.58      0.00
    7    8   11      2.24      0.00
    8    8   11      5.42      0.00
    9    8   11      2.44      0.00
   10    8   11      3.52      0.00
   11    8   11     -0.29      0.00
   12    8   11      0.55      0.00
   13    8   11      0.57      0.00
   14    8   11     -0.21      0.00
   15    8   11      1.04      0.00
   16    8   11      0.72      0.00
   17    8   11     -0.53      0.00
   18    8   11     -0.20      0.00
   19    8   11      0.53      0.00
   20    8   11      0.17      0.00
   21    8   11     -0.76      0.00
   22    8   11     -0.62      0.00
  -26    9   11     -0.88      0.00
  -25    9   11      0.35      0.00
  -24    9   11     -1.14      0.00
  -23    9   11     -0.16      0.00
  -22    9   11     -0.43      0.00
  -21    9   11      2.59      0.00
  -20    9   11     -0.71      0.00
  -19    9   11      0.39      0.00
  -18    9   11      2.33      0.00
  -17    9   11      0.07      0.00
  -16    9   11      0.21      0.00
  -15    9   11      1.01      0.00
  -14    9   11      0.68      0.00
  -13    9   11      0.04      0.00
  -12    9   11      1.39      0.00
  -11    9   11      0.00      0.00
  -10    9   11      0.31      0.00
   -9    9   11      0.55      0.00
   -8    9   11      1.15      0.00
   -7    9   11      0.77      0.00
   -6    9   11      0.42      0.00
   -5    9   11     -0.31      0.00
   -4    9   11      2.42      0.00
   -3    9   11      1.42      0.00
   -2    9   11     -1.94      0.00
   -1    9   11      4.03      0.00
    0    9   11      2.56      0.00
    1    9   11      1.38      0.00
    2    9   11      0.30      0.00
    3    9   11      2.28      0.00
    4    9   11     -3.27      0.00
    5    9   11     -0.45      0.00
    6    9   11      1.00      0.00
    7    9   11     -1.35      0.00
    8    9   11      2.01      0.00
    9    9   11     -2.60      0.00
   10    9   11     -1.34      0.00
   11    9   11     -0.64      0.00
   12    9   11      0.50      0.00
   13    9   11      1.03      0.00
   14    9   11      0.03      0.00
   15    9   11      0.53      0.00
   16    9   11     -1.28      0.00
   17    9   11      0.12      0.00
   18    9   11      0.20      0.00
   19    9   11      0.88      0.00
   20    9   11     -0.18      0.00
   21    9   11     -0.42      0.00
  -25   10   11     -0.13      0.00
  -24   10   11      0.07      0.00
  -23   10   11      1.43      0.00
  -22   10   11      0.47      0.00
  -21   10   11     -1.08      0.00
  -20   10   11      1.30      0.00
  -19   10   11      0.59      0.00
  -18   10   11      0.65      0.00
  -17   10   11      0.44      0.00
  -16   10   11      1.14      0.00
  -15   10   11      0.13      0.00
  -14   10   11      0.10      0.00
  -13   10   11     -0.10      0.00
  -12   10   11      0.80      0.00
  -11   10   11     -0.17      0.00
  -10   10   11      0.22      0.00
   -9   10   11      0.14      0.00
   -8   10   11     -1.51      0.00
   -7   10   11      0.18      0.00
   -6   10   11     -0.67      0.00
   -5   10   11      1.75      0.00
   -4   10   11     -0.06      0.00
   -3   10   11     -0.04      0.00
   -2   10   11     -0.20      0.00
   -1   10   11      1.55      0.00
    0   10   11     -1.79      0.00
    1   10   11      1.99      0.00
    2   10   11     -1.49      0.00
    3   10   11      0.24      0.00
    4   10   11     -0.21      0.00
    5   10   11     -1.34      0.00
    6   10   11     -0.12      0.00
    7   10   11      0.06      0.00
    8   10   11      2.06      0.00
    9   10   11     -0.20      0.00
   10   10   11      1.00      0.00
   11   10   11     -0.35      0.00
   12   10   11      0.31      0.00
   13   10   11      0.76      0.00
   14   10   11      0.76      0.00
   15   10   11      0.09      0.00
   16   10   11      0.23      0.00
   17   10   11     -0.49      0.00
   18   10   11      1.01      0.00
   19   10   11      0.27      0.00
   20   10   11      0.27      0.00
  -29    0   12     -0.54      0.00
  -28    0   12      2.46      0.00
  -27    0   12     -0.40      0.00
  -19    0   12      2.26      0.00
  -18    0   12     -1.06      0.00
  -17    0   12      2.91      0.00
  -16    0   12      0.20      0.00
  -15    0   12      1.96      0.00
  -14    0   12      0.21      0.00
  -13    0   12      1.86      0.00
  -12    0   12      0.15      0.00
  -11    0   12     -1.25      0.00
  -10    0   12     -0.11      0.00
   -9    0   12     -0.49      0.00
   -8    0   12      0.89      0.00
   -7    0   12     -0.40      0.00
   -6    0   12     -0.58      0.00
   -5    0   12     -0.73      0.00
   -4    0   12     -2.25      0.00
   -3    0   12      3.18      0.00
   -2    0   12      3.20      0.00
   -1    0   12      3.59      0.00
    0    0   12    -12.43      0.00
    1    0   12      2.91      0.00
    2    0   12      0.61      0.00
    3    0   12     -0.72      0.00
    4    0   12     -7.59      0.00
    5    0   12     16.81      0.00
   12    0   12    -13.83      0.00
   13    0   12      4.27      0.00
   14    0   12     -1.20      0.00
   15    0   12     -1.27      0.00
   16    0   12     -0.17      0.00
   17    0   12     -0.87      0.00
   18    0   12     -0.78      0.00
   19    0   12     -2.95      0.00
   20    0   12      0.83      0.00
   21    0   12     -2.88      0.00
   22    0   12     -1.50      0.00
   23    0   12     -1.21      0.00
   24    0   12     -0.15      0.00
   25    0   12      0.49      0.00
   26    0   12     -0.86      0.00
  -29    1   12      1.11      0.00
  -28    1   12      0.03      0.00
  -27    1   12      1.37      0.00
  -19    1   12     -1.69      0.00
  -18    1   12     -1.77      0.00
  -17    1   12     -0.69      0.00
  -16    1   12     -2.01      0.00
  -15    1   12      1.20      0.00
  -14    1   12      0.19      0.00
  -13    1   12     -0.64      0.00
  -12    1   12      3.24      0.00
  -11    1   12      0.64      0.00
  -10    1   12      0.23      0.00
   -9    1   12     -1.56      0.00
   -8    1   12      0.58      0.00
   -7    1   12      0.15      0.00
   -6    1   12     -2.06      0.00
   -5    1   12      1.59      0.00
   -4    1   12     -2.33      0.00
   -3    1   12     -2.20      0.00
   -2    1   12     -2.42      0.00
   12    1   12     -3.58      0.00
   13    1   12     -0.28      0.00
   14    1   12     -0.48      0.00
   15    1   12      1.67      0.00
   16    1   12     -0.23      0.00
   17    1   12      3.01      0.00
   18    1   12      0.76      0.00
   19    1   12     -0.08      0.00
   20    1   12      0.33      0.00
   21    1   12     -0.48      0.00
   22    1   12     -0.68      0.00
   23    1   12     -0.59      0.00
   24    1   12     -0.36      0.00
   25    1   12      0.04      0.00
  -29    2   12     -1.11      0.00
  -28    2   12     -1.15      0.00
  -27    2   12     -1.04      0.00
  -18    2   12      0.84      0.00
  -17    2   12     -1.37      0.00
  -16    2   12      0.15      0.00
  -15    2   12      0.51      0.00
  -14    2   12     -1.42      0.00
  -13    2   12     -0.92      0.00
  -12    2   12     -2.55      0.00
  -11    2   12      2.51      0.00
  -10    2   12     -0.11      0.00
   -9    2   12      0.78      0.00
   -8    2   12      0.10      0.00
   -7    2   12      1.71      0.00
   -6    2   12     -2.71      0.00
   -5    2   12     -1.49      0.00
   12    2   12      3.75      0.00
   13    2   12      1.25      0.00
   14    2   12      2.39      0.00
   15    2   12      2.02      0.00
   16    2   12      0.86      0.00
   17    2   12      1.63      0.00
   18    2   12      1.39      0.00
   19    2   12      1.23      0.00
   20    2   12      1.54      0.00
   21    2   12      0.55      0.00
   22    2   12     -0.86      0.00
   23    2   12     -0.89      0.00
   24    2   12      0.77      0.00
   25    2   12     -0.82      0.00
  -29    3   12      0.97      0.00
  -28    3   12      0.63      0.00
  -27    3   12      0.64      0.00
  -17    3   12      2.12      0.00
  -16    3   12     -2.80      0.00
  -15    3   12      2.11      0.00
  -14    3   12      0.94      0.00
  -13    3   12      1.68      0.00
  -12    3   12     -0.71      0.00
  -11    3   12     -0.32      0.00
  -10    3   12      0.10      0.00
   -9    3   12     -0.59      0.00
   -8    3   12      1.29      0.00
   -7    3   12     -0.08      0.00
   -6    3   12      0.71      0.00
    9    3   12     -3.81      0.00
   12    3   12      8.85      0.00
   13    3   12      0.76      0.00
   14    3   12      0.49      0.00
   15    3   12     -2.76      0.00
   16    3   12      1.41      0.00
   17    3   12     -1.89      0.00
   18    3   12      0.52      0.00
   19    3   12     -0.47      0.00
   20    3   12     -0.18      0.00
   21    3   12      1.59      0.00
   22    3   12      0.12      0.00
   23    3   12      0.46      0.00
   24    3   12     -1.15      0.00
   25    3   12      0.14      0.00
  -29    4   12      0.77      0.00
  -28    4   12      0.69      0.00
  -27    4   12      1.00      0.00
  -26    4   12      2.22      0.00
  -16    4   12     -0.67      0.00
  -15    4   12      1.90      0.00
  -14    4   12      0.09      0.00
  -13    4   12     -2.28      0.00
  -12    4   12      3.22      0.00
  -11    4   12     -0.21      0.00
  -10    4   12      1.79      0.00
   -9    4   12     -0.50      0.00
   -8    4   12      1.14      0.00
   -7    4   12     -0.71      0.00
   -6    4   12      0.32      0.00
   -5    4   12      1.06      0.00
   12    4   12     -7.01      0.00
   13    4   12     -0.70      0.00
   14    4   12     -0.84      0.00
   15    4   12     -1.93      0.00
   16    4   12     -0.27      0.00
   17    4   12     -2.04      0.00
   18    4   12     -0.64      0.00
   19    4   12      0.60      0.00
   20    4   12      0.35      0.00
   21    4   12      0.31      0.00
   22    4   12      0.12      0.00
   23    4   12      1.50      0.00
   24    4   12      0.63      0.00
   25    4   12      0.49      0.00
  -29    5   12      0.38      0.00
  -28    5   12      1.48      0.00
  -27    5   12      1.09      0.00
  -26    5   12      0.97      0.00
  -14    5   12      4.36      0.00
  -13    5   12      0.37      0.00
  -12    5   12     -1.43      0.00
  -11    5   12     -1.44      0.00
  -10    5   12      1.62      0.00
   -9    5   12      2.41      0.00
   -8    5   12      1.48      0.00
   -7    5   12     -0.81      0.00
   -6    5   12     -2.11      0.00
   -5    5   12     -0.27      0.00
   10    5   12      4.19      0.00
   11    5   12     -1.25      0.00
   12    5   12     -6.67      0.00
   13    5   12      0.57      0.00
   14    5   12     -2.69      0.00
   15    5   12      0.08      0.00
   16    5   12      1.95      0.00
   17    5   12     -0.27      0.00
   18    5   12      1.15      0.00
   19    5   12     -0.11      0.00
   20    5   12      1.28      0.00
   21    5   12     -0.17      0.00
   22    5   12      0.53      0.00
   23    5   12     -0.48      0.00
   24    5   12     -0.26      0.00
  -29    6   12      1.44      0.00
  -28    6   12      0.28      0.00
  -27    6   12     -0.22      0.00
  -26    6   12     -0.06      0.00
  -25    6   12      0.34      0.00
  -24    6   12     -0.07      0.00
  -12    6   12      2.61      0.00
  -11    6   12     -2.18      0.00
  -10    6   12     -0.86      0.00
   -9    6   12      0.27      0.00
   -8    6   12      0.66      0.00
   -7    6   12      0.24      0.00
   -6    6   12     -1.75      0.00
   -5    6   12     -0.58      0.00
   -4    6   12     -0.78      0.00
   -3    6   12      4.32      0.00
   -1    6   12     -5.16      0.00
    0    6   12      2.71      0.00
    8    6   12     -2.89      0.00
    9    6   12      4.72      0.00
   10    6   12      5.06      0.00
   11    6   12      5.73      0.00
   12    6   12     -0.25      0.00
   13    6   12      2.91      0.00
   14    6   12      1.36      0.00
   15    6   12     -0.58      0.00
   16    6   12     -0.14      0.00
   17    6   12      0.16      0.00
   18    6   12     -1.06      0.00
   19    6   12      0.12      0.00
   20    6   12     -0.86      0.00
   21    6   12     -0.75      0.00
   22    6   12      0.95      0.00
   23    6   12      0.73      0.00
  -28    7   12      1.14      0.00
  -27    7   12     -0.44      0.00
  -26    7   12     -0.41      0.00
  -25    7   12      0.14      0.00
  -24    7   12      1.63      0.00
  -23    7   12     -1.78      0.00
  -14    7   12      0.56      0.00
  -13    7   12     -0.35      0.00
  -12    7   12      0.59      0.00
  -11    7   12     -0.12      0.00
  -10    7   12     -0.54      0.00
   -9    7   12      0.86      0.00
   -8    7   12     -1.26      0.00
   -7    7   12     -0.81      0.00
   -6    7   12     -1.99      0.00
   -5    7   12     -0.95      0.00
   -4    7   12      1.38      0.00
   -3    7   12      5.00      0.00
   -2    7   12      1.28      0.00
    7    7   12      1.72      0.00
    8    7   12      0.33      0.00
    9    7   12     -0.52      0.00
   10    7   12      1.34      0.00
   11    7   12     -2.41      0.00
   12    7   12      0.07      0.00
   13    7   12     -1.27      0.00
   14    7   12     -0.27      0.00
   15    7   12     -0.05      0.00
   16    7   12      0.03      0.00
   17    7   12     -0.19      0.00
   18    7   12     -0.58      0.00
   19    7   12     -0.08      0.00
   20    7   12     -0.58      0.00
   21    7   12     -0.35      0.00
   22    7   12     -0.65      0.00
  -27    8   12     -0.10      0.00
  -26    8   12     -0.18      0.00
  -25    8   12     -0.04      0.00
  -24    8   12      0.49      0.00
  -23    8   12      3.47      0.00
  -22    8   12     -0.09      0.00
  -21    8   12     -4.01      0.00
  -20    8   12     -1.04      0.00
  -19    8   12      1.87      0.00
  -18    8   12     -2.06      0.00
  -17    8   12     -2.90      0.00
  -16    8   12     -0.46      0.00
  -15    8   12      1.79      0.00
  -14    8   12     -0.50      0.00
  -13    8   12      0.07      0.00
  -12    8   12     -2.30      0.00
  -11    8   12     -0.86      0.00
  -10    8   12     -1.27      0.00
   -9    8   12      0.83      0.00
   -8    8   12      0.02      0.00
   -7    8   12      0.75      0.00
   -6    8   12     -0.55      0.00
   -5    8   12     -0.98      0.00
   -4    8   12      0.71      0.00
   -3    8   12      0.09      0.00
   -2    8   12      0.51      0.00
   -1    8   12      1.99      0.00
    0    8   12     -5.90      0.00
    1    8   12     -6.22      0.00
    2    8   12     -1.72      0.00
    4    8   12      1.49      0.00
    6    8   12      1.00      0.00
    7    8   12     -3.04      0.00
    8    8   12      0.18      0.00
    9    8   12     -4.55      0.00
   10    8   12      1.43      0.00
   11    8   12      0.70      0.00
   12    8   12      0.01      0.00
   13    8   12     -0.05      0.00
   14    8   12      0.10      0.00
   15    8   12     -1.63      0.00
   16    8   12      0.79      0.00
   17    8   12     -0.29      0.00
   18    8   12      1.14      0.00
   19    8   12      0.15      0.00
   20    8   12     -1.06      0.00
   21    8   12      0.52      0.00
  -25    9   12      0.15      0.00
  -24    9   12      0.48      0.00
  -23    9   12     -0.11      0.00
  -22    9   12      0.28      0.00
  -21    9   12      1.21      0.00
  -20    9   12      0.27      0.00
  -19    9   12      0.28      0.00
  -18    9   12     -3.07      0.00
  -17    9   12      0.55      0.00
  -16    9   12     -1.49      0.00
  -15    9   12     -1.08      0.00
  -14    9   12     -2.18      0.00
  -13    9   12      1.69      0.00
  -12    9   12     -0.85      0.00
  -11    9   12      1.02      0.00
  -10    9   12     -0.54      0.00
   -9    9   12     -0.05      0.00
   -8    9   12     -0.30      0.00
   -7    9   12     -0.71      0.00
   -6    9   12      1.04      0.00
   -5    9   12      0.99      0.00
   -4    9   12     -2.00      0.00
   -3    9   12      0.89      0.00
   -2    9   12      0.88      0.00
   -1    9   12     -0.66      0.00
    0    9   12     -0.25      0.00
    1    9   12     -2.03      0.00
    2    9   12     -0.26      0.00
    3    9   12      0.64      0.00
    4    9   12      7.82      0.00
    5    9   12     -0.70      0.00
    6    9   12     -2.13      0.00
    7    9   12      0.99      0.00
    8    9   12      1.69      0.00
    9    9   12      1.25      0.00
   10    9   12      0.36      0.00
   11    9   12      0.62      0.00
   12    9   12      1.12      0.00
   13    9   12      0.85      0.00
   14    9   12      0.41      0.00
   15    9   12     -0.49      0.00
   16    9   12      1.79      0.00
   17    9   12     -0.16      0.00
   18    9   12      0.42      0.00
   19    9   12     -0.10      0.00
   20    9   12     -1.06      0.00
  -24   10   12     -0.07      0.00
  -23   10   12     -0.10      0.00
  -22   10   12      0.30      0.00
  -21   10   12     -0.72      0.00
  -20   10   12     -0.50      0.00
  -19   10   12      0.56      0.00
  -18   10   12     -0.15      0.00
  -17   10   12     -1.08      0.00
  -16   10   12     -0.33      0.00
  -15   10   12      1.41      0.00
  -14   10   12      0.05      0.00
  -13   10   12      1.64      0.00
  -12   10   12     -1.01      0.00
  -11   10   12     -0.15      0.00
  -10   10   12      1.13      0.00
   -9   10   12     -0.09      0.00
   -8   10   12      1.17      0.00
   -7   10   12      1.38      0.00
   -6   10   12     -0.30      0.00
   -5   10   12      0.39      0.00
   -4   10   12      1.78      0.00
   -3   10   12     -0.67      0.00
   -2   10   12     -0.64      0.00
   -1   10   12      0.09      0.00
    0   10   12      0.71      0.00
    1   10   12     -1.68      0.00
    2   10   12     -1.82      0.00
    3   10   12     -0.12      0.00
    4   10   12      0.95      0.00
    5   10   12      2.30      0.00
    6   10   12      0.72      0.00
    7   10   12      1.77      0.00
    8   10   12     -0.50      0.00
    9   10   12     -1.69      0.00
   10   10   12     -0.25      0.00
   11   10   12      0.45      0.00
   12   10   12     -0.23      0.00
   13   10   12     -0.70      0.00
   14   10   12      0.11      0.00
   15   10   12     -1.43      0.00
   16   10   12     -0.27      0.00
   17   10   12      0.31      0.00
   18   10   12      0.23      0.00
  -29    1   13     -0.05      0.00
  -28    1   13      0.73      0.00
  -27    1   13     -0.77      0.00
  -26    1   13      0.79      0.00
  -19    1   13     -0.07      0.00
  -18    1   13      0.01      0.00
  -17    1   13     -1.10      0.00
  -16    1   13      0.00      0.00
  -15    1   13      0.64      0.00
  -14    1   13     -0.22      0.00
  -13    1   13     -0.62      0.00
  -12    1   13      1.70      0.00
  -11    1   13     -0.04      0.00
  -10    1   13     -0.46      0.00
   -9    1   13      2.53      0.00
   -8    1   13      1.29      0.00
   -7    1   13     -2.58      0.00
   -6    1   13     -1.17      0.00
   -5    1   13      0.66      0.00
   -4    1   13      1.59      0.00
   -3    1   13     -1.20      0.00
   -2    1   13     -0.49      0.00
   -1    1   13     -0.48      0.00
    0    1   13      0.50      0.00
    1    1   13     -0.63      0.00
    2    1   13     -0.61      0.00
    3    1   13     -4.67      0.00
    4    1   13      3.04      0.00
   12    1   13     -5.70      0.00
   13    1   13     -1.11      0.00
   14    1   13     -2.46      0.00
   15    1   13      0.74      0.00
   16    1   13      1.07      0.00
   17    1   13      0.63      0.00
   18    1   13     -0.47      0.00
   19    1   13     -0.06      0.00
   20    1   13     -0.63      0.00
   21    1   13     -0.23      0.00
   22    1   13      1.23      0.00
   23    1   13     -0.66      0.00
   24    1   13     -0.56      0.00
  -29    2   13      0.57      0.00
  -28    2   13     -1.33      0.00
  -27    2   13     -1.57      0.00
  -26    2   13     -2.14      0.00
  -18    2   13     -1.04      0.00
  -17    2   13     -1.72      0.00
  -16    2   13     -0.69      0.00
  -15    2   13     -0.05      0.00
  -14    2   13      0.54      0.00
  -13    2   13     -0.90      0.00
  -12    2   13      1.83      0.00
  -11    2   13      0.49      0.00
  -10    2   13     -1.08      0.00
   -9    2   13      0.81      0.00
   -8    2   13      2.97      0.00
   -7    2   13      0.15      0.00
   -6    2   13     -0.59      0.00
   -5    2   13      0.63      0.00
   -4    2   13      4.11      0.00
   -3    2   13     -1.78      0.00
    4    2   13     -6.35      0.00
   12    2   13      5.58      0.00
   13    2   13      0.18      0.00
   14    2   13      0.16      0.00
   15    2   13     -2.10      0.00
   16    2   13     -0.42      0.00
   17    2   13      2.21      0.00
   18    2   13      0.75      0.00
   19    2   13     -0.30      0.00
   20    2   13      0.06      0.00
   21    2   13     -1.09      0.00
   22    2   13      0.60      0.00
   23    2   13      1.04      0.00
   24    2   13     -0.43      0.00
  -29    3   13     -1.41      0.00
  -28    3   13     -0.07      0.00
  -27    3   13     -0.90      0.00
  -26    3   13     -2.23      0.00
  -17    3   13      2.70      0.00
  -16    3   13     -1.27      0.00
  -15    3   13      0.03      0.00
  -14    3   13     -2.19      0.00
  -13    3   13     -0.77      0.00
  -12    3   13     -1.35      0.00
  -11    3   13     -1.66      0.00
  -10    3   13     -0.45      0.00
   -9    3   13      1.06      0.00
   -8    3   13      0.68      0.00
   -7    3   13     -1.21      0.00
   -6    3   13     -0.37      0.00
   -5    3   13      0.94      0.00
    3    3   13     -3.92      0.00
   12    3   13      2.75      0.00
   13    3   13      1.56      0.00
   14    3   13      2.84      0.00
   15    3   13      0.88      0.00
   16    3   13     -1.62      0.00
   17    3   13     -0.88      0.00
   18    3   13      0.81      0.00
   19    3   13      0.33      0.00
   20    3   13     -0.35      0.00
   21    3   13      0.52      0.00
   22    3   13     -0.51      0.00
   23    3   13     -0.08      0.00
   24    3   13      1.73      0.00
  -29    4   13      0.02      0.00
  -28    4   13      0.03      0.00
  -27    4   13     -1.43      0.00
  -26    4   13      0.44      0.00
  -25    4   13     -1.00      0.00
  -16    4   13     -0.87      0.00
  -15    4   13     -1.44      0.00
  -14    4   13     -1.10      0.00
  -13    4   13     -0.33      0.00
  -12    4   13     -1.29      0.00
  -11    4   13     -1.51      0.00
  -10    4   13     -2.15      0.00
   -9    4   13      0.62      0.00
   -8    4   13      0.54      0.00
   -7    4   13     -1.27      0.00
   -6    4   13     -0.22      0.00
   -5    4   13      2.06      0.00
   -4    4   13      1.25      0.00
    0    4   13     -0.91      0.00
    1    4   13     -0.67      0.00
    2    4   13     -2.74      0.00
   11    4   13      1.72      0.00
   12    4   13     -1.36      0.00
   13    4   13      0.02      0.00
   14    4   13     -1.30      0.00
   15    4   13      0.59      0.00
   16    4   13      0.03      0.00
   17    4   13     -0.39      0.00
   18    4   13      1.06      0.00
   19    4   13     -0.30      0.00
   20    4   13     -0.88      0.00
   21    4   13     -0.08      0.00
   22    4   13      0.88      0.00
   23    4   13     -0.51      0.00
  -28    5   13      1.38      0.00
  -27    5   13      0.10      0.00
  -26    5   13     -0.57      0.00
  -25    5   13      1.34      0.00
  -24    5   13     -0.30      0.00
  -14    5   13     -0.99      0.00
  -13    5   13      0.21      0.00
  -12    5   13      0.96      0.00
  -11    5   13      1.47      0.00
  -10    5   13     -0.59      0.00
   -9    5   13      0.85      0.00
   -8    5   13     -0.52      0.00
   -7    5   13     -3.77      0.00
   -6    5   13     -2.13      0.00
   -5    5   13     -0.20      0.00
   -4    5   13     -2.77      0.00
   -3    5   13     -0.36      0.00
   -2    5   13     -0.36      0.00
   -1    5   13      0.86      0.00
    0    5   13     -0.96      0.00
    1    5   13     -8.78      0.00
    9    5   13      2.63      0.00
   10    5   13      0.68      0.00
   11    5   13     -2.86      0.00
   12    5   13     -0.23      0.00
   13    5   13      2.20      0.00
   14    5   13     -1.50      0.00
   15    5   13     -0.63      0.00
   16    5   13     -0.11      0.00
   17    5   13     -0.76      0.00
   18    5   13      0.49      0.00
   19    5   13      0.53      0.00
   20    5   13     -0.14      0.00
   21    5   13     -0.42      0.00
   22    5   13      0.30      0.00
  -28    6   13      0.14      0.00
  -27    6   13     -0.04      0.00
  -26    6   13     -0.15      0.00
  -25    6   13     -0.07      0.00
  -24    6   13     -0.57      0.00
  -23    6   13      0.45      0.00
  -11    6   13     -0.15      0.00
  -10    6   13      1.41      0.00
   -9    6   13     -0.91      0.00
   -8    6   13      0.56      0.00
   -7    6   13     -1.22      0.00
   -6    6   13     -2.40      0.00
   -5    6   13      0.74      0.00
   -4    6   13      0.98      0.00
   -3    6   13      1.22      0.00
   -2    6   13      1.17      0.00
   -1    6   13     -1.59      0.00
    8    6   13      1.63      0.00
    9    6   13     -5.38      0.00
   10    6   13      1.98      0.00
   11    6   13     -1.10      0.00
   12    6   13     -0.11      0.00
   13    6   13      0.33      0.00
   14    6   13      1.07      0.00
   15    6   13     -1.28      0.00
   16    6   13     -0.85      0.00
   17    6   13     -0.04      0.00
   18    6   13      0.96      0.00
   19    6   13      0.16      0.00
   20    6   13     -0.08      0.00
   21    6   13     -0.71      0.00
   22    6   13      0.93      0.00
  -27    7   13     -0.80      0.00
  -26    7   13     -0.43      0.00
  -25    7   13      1.40      0.00
  -24    7   13     -0.23      0.00
  -23    7   13     -1.63      0.00
  -22    7   13     -1.66      0.00
  -21    7   13      2.76      0.00
  -20    7   13      2.45      0.00
  -18    7   13     -0.87      0.00
  -17    7   13      3.15      0.00
  -16    7   13      0.12      0.00
  -15    7   13     -0.31      0.00
  -14    7   13     -1.12      0.00
  -13    7   13     -2.43      0.00
  -12    7   13     -1.02      0.00
  -11    7   13     -0.10      0.00
  -10    7   13      1.07      0.00
   -9    7   13     -0.28      0.00
   -8    7   13     -0.16      0.00
   -7    7   13      2.59      0.00
   -6    7   13      1.10      0.00
   -5    7   13      2.49      0.00
   -4    7   13     -1.81      0.00
   -3    7   13     -3.42      0.00
    7    7   13     -2.08      0.00
    8    7   13     -1.15      0.00
    9    7   13     -0.74      0.00
   10    7   13     -0.77      0.00
   11    7   13     -1.16      0.00
   12    7   13     -0.03      0.00
   13    7   13      0.12      0.00
   14    7   13      1.06      0.00
   15    7   13      0.75      0.00
   16    7   13      0.56      0.00
   17    7   13     -0.03      0.00
   18    7   13      0.07      0.00
   19    7   13      0.32      0.00
   20    7   13      0.82      0.00
   21    7   13     -0.45      0.00
  -25    8   13      0.86      0.00
  -24    8   13      0.67      0.00
  -23    8   13     -0.93      0.00
  -22    8   13     -1.02      0.00
  -21    8   13     -0.13      0.00
  -20    8   13     -2.80      0.00
  -19    8   13     -0.83      0.00
  -18    8   13      3.36      0.00
  -17    8   13      0.39      0.00
  -16    8   13     -0.38      0.00
  -15    8   13      0.52      0.00
  -14    8   13      3.51      0.00
  -13    8   13      3.08      0.00
  -12    8   13     -1.14      0.00
  -11    8   13     -0.80      0.00
  -10    8   13      0.54      0.00
   -9    8   13     -0.32      0.00
   -8    8   13     -0.14      0.00
   -7    8   13      0.00      0.00
   -6    8   13      0.39      0.00
   -5    8   13      0.29      0.00
   -4    8   13     -0.38      0.00
   -3    8   13     -3.63      0.00
   -2    8   13     -4.87      0.00
   -1    8   13      2.71      0.00
    0    8   13      5.20      0.00
    1    8   13      2.14      0.00
    5    8   13      2.26      0.00
    6    8   13     -1.57      0.00
    7    8   13      4.07      0.00
    8    8   13     -1.57      0.00
    9    8   13     -0.22      0.00
   10    8   13      0.03      0.00
   11    8   13      1.46      0.00
   12    8   13     -0.08      0.00
   13    8   13      0.02      0.00
   14    8   13     -0.68      0.00
   15    8   13     -0.34      0.00
   16    8   13     -1.08      0.00
   17    8   13     -0.38      0.00
   18    8   13      0.16      0.00
   19    8   13     -0.80      0.00
  -24    9   13      0.21      0.00
  -23    9   13     -0.37      0.00
  -22    9   13     -0.17      0.00
  -21    9   13     -1.40      0.00
  -20    9   13      0.65      0.00
  -19    9   13     -1.60      0.00
  -18    9   13      0.65      0.00
  -17    9   13     -1.02      0.00
  -16    9   13     -0.21      0.00
  -15    9   13     -0.40      0.00
  -14    9   13     -0.40      0.00
  -13    9   13      0.38      0.00
  -12    9   13      2.81      0.00
  -11    9   13      0.81      0.00
  -10    9   13      0.87      0.00
   -9    9   13     -0.98      0.00
   -8    9   13      0.60      0.00
   -7    9   13      0.37      0.00
   -6    9   13     -1.01      0.00
   -5    9   13     -1.52      0.00
   -4    9   13     -0.24      0.00
   -3    9   13     -5.19      0.00
   -2    9   13     -1.92      0.00
   -1    9   13     -0.03      0.00
    0    9   13      2.06      0.00
    1    9   13      0.03      0.00
    2    9   13      0.83      0.00
    3    9   13      3.43      0.00
    4    9   13      1.17      0.00
    5    9   13      1.19      0.00
    6    9   13      2.22      0.00
    7    9   13      1.16      0.00
    8    9   13      0.22      0.00
    9    9   13     -1.37      0.00
   10    9   13     -1.36      0.00
   11    9   13      0.04      0.00
   12    9   13     -1.20      0.00
   13    9   13      0.60      0.00
   14    9   13      0.24      0.00
   15    9   13      0.17      0.00
   16    9   13     -0.17      0.00
   17    9   13     -0.80      0.00
   18    9   13     -0.03      0.00
  -22   10   13     -0.67      0.00
  -21   10   13      0.71      0.00
  -20   10   13     -1.07      0.00
  -19   10   13     -1.75      0.00
  -18   10   13      0.72      0.00
  -17   10   13      1.23      0.00
  -16   10   13      0.39      0.00
  -15   10   13     -1.02      0.00
  -14   10   13      0.25      0.00
  -13   10   13     -0.60      0.00
  -12   10   13     -0.45      0.00
  -11   10   13      0.66      0.00
  -10   10   13     -0.41      0.00
   -9   10   13     -0.26      0.00
   -8   10   13     -0.81      0.00
   -7   10   13      1.18      0.00
   -6   10   13      0.64      0.00
   -5   10   13     -0.43      0.00
   -4   10   13     -0.62      0.00
   -3   10   13     -1.23      0.00
   -2   10   13      0.02      0.00
   -1   10   13     -1.58      0.00
    0   10   13     -0.45      0.00
    1   10   13     -0.76      0.00
    2   10   13      0.21      0.00
    3   10   13     -1.54      0.00
    4   10   13     -0.35      0.00
    5   10   13     -3.17      0.00
    6   10   13      0.89      0.00
    7   10   13     -1.25      0.00
    8   10   13     -0.53      0.00
    9   10   13      0.54      0.00
   10   10   13     -0.31      0.00
   11   10   13      1.10      0.00
   12   10   13     -1.26      0.00
   13   10   13     -0.39      0.00
   14   10   13      1.06      0.00
   15   10   13      1.39      0.00
   16   10   13      0.95      0.00
  -29    0   14      0.07      0.00
  -28    0   14      0.23      0.00
  -27    0   14     -1.14      0.00
  -26    0   14      2.47      0.00
  -25    0   14      2.43      0.00
  -19    0   14     -0.68      0.00
  -18    0   14      0.48      0.00
  -17    0   14      1.39      0.00
  -16    0   14     -4.37      0.00
  -15    0   14     -1.70      0.00
  -14    0   14     -0.22      0.00
  -13    0   14     -1.31      0.00
  -12    0   14      1.25      0.00
  -11    0   14      0.64      0.00
  -10    0   14     -1.69      0.00
   -9    0   14     -2.51      0.00
   -8    0   14     -1.84      0.00
   -7    0   14      0.60      0.00
   -6    0   14     -2.58      0.00
   -5    0   14      1.10      0.00
   -4    0   14      0.16      0.00
   -3    0   14      0.77      0.00
   -2    0   14     -1.66      0.00
   -1    0   14     -3.81      0.00
    0    0   14      2.44      0.00
    1    0   14      1.74      0.00
    2    0   14      3.85      0.00
    3    0   14     -4.82      0.00
   11    0   14      3.80      0.00
   12    0   14     -2.06      0.00
   13    0   14      0.13      0.00
   14    0   14      0.08      0.00
   15    0   14      1.84      0.00
   16    0   14     -0.98      0.00
   17    0   14     -1.03      0.00
   18    0   14      0.04      0.00
   19    0   14     -0.20      0.00
   20    0   14     -0.83      0.00
   21    0   14      2.39      0.00
   22    0   14     -0.13      0.00
   23    0   14      0.45      0.00
  -29    1   14     -0.58      0.00
  -28    1   14      0.80      0.00
  -27    1   14     -0.04      0.00
  -26    1   14      0.98      0.00
  -25    1   14     -0.71      0.00
  -18    1   14     -3.83      0.00
  -17    1   14      0.98      0.00
  -16    1   14     -1.04      0.00
  -15    1   14     -2.14      0.00
  -14    1   14     -0.65      0.00
  -13    1   14     -2.39      0.00
  -12    1   14     -1.02      0.00
  -11    1   14     -1.10      0.00
  -10    1   14      1.85      0.00
   -9    1   14      1.08      0.00
   -8    1   14     -0.95      0.00
   -7    1   14      0.02      0.00
   -6    1   14     -0.11      0.00
   -5    1   14      0.08      0.00
   -4    1   14      0.74      0.00
   -3    1   14     -0.42      0.00
   -2    1   14      1.00      0.00
   -1    1   14      1.69      0.00
    0    1   14     -3.24      0.00
    1    1   14      1.05      0.00
    2    1   14     -1.00      0.00
    3    1   14      9.51      0.00
   11    1   14     -4.20      0.00
   12    1   14     -1.03      0.00
   13    1   14      0.78      0.00
   14    1   14     -1.67      0.00
   15    1   14     -0.39      0.00
   16    1   14      1.06      0.00
   17    1   14      1.45      0.00
   18    1   14     -0.41      0.00
   19    1   14      0.29      0.00
   20    1   14     -0.74      0.00
   21    1   14      0.48      0.00
   22    1   14      0.88      0.00
   23    1   14      0.17      0.00
  -29    2   14      1.47      0.00
  -28    2   14     -1.70      0.00
  -27    2   14     -0.90      0.00
  -26    2   14      2.09      0.00
  -25    2   14     -1.32      0.00
  -18    2   14      4.88      0.00
  -17    2   14      4.63      0.00
  -16    2   14     -3.45      0.00
  -15    2   14      0.66      0.00
  -14    2   14      1.88      0.00
  -13    2   14      1.49      0.00
  -12    2   14      0.30      0.00
  -11    2   14     -0.72      0.00
  -10    2   14     -0.16      0.00
   -9    2   14      1.16      0.00
   -8    2   14     -0.99      0.00
   -7    2   14     -0.35      0.00
   -6    2   14      0.60      0.00
   -5    2   14     -1.22      0.00
   -4    2   14     -0.80      0.00
   -3    2   14      0.14      0.00
   -2    2   14     -1.07      0.00
   -1    2   14     -0.64      0.00
    0    2   14      1.28      0.00
    1    2   14      2.75      0.00
    2    2   14      4.28      0.00
    3    2   14      7.64      0.00
   11    2   14     -1.80      0.00
   12    2   14     -1.74      0.00
   13    2   14      0.10      0.00
   14    2   14      2.62      0.00
   15    2   14      0.75      0.00
   16    2   14     -1.01      0.00
   17    2   14      2.00      0.00
   18    2   14      0.83      0.00
   19    2   14     -0.19      0.00
   20    2   14     -1.03      0.00
   21    2   14     -0.97      0.00
   22    2   14      0.19      0.00
  -28    3   14      0.46      0.00
  -27    3   14     -0.37      0.00
  -26    3   14      0.64      0.00
  -25    3   14      1.47      0.00
  -24    3   14     -2.19      0.00
  -17    3   14      4.17      0.00
  -16    3   14      2.97      0.00
  -15    3   14     -2.29      0.00
  -14    3   14      1.01      0.00
  -13    3   14      1.15      0.00
  -12    3   14     -0.32      0.00
  -11    3   14      1.53      0.00
  -10    3   14     -0.62      0.00
   -9    3   14      1.58      0.00
   -8    3   14     -0.19      0.00
   -7    3   14     -2.03      0.00
   -6    3   14      1.70      0.00
   -5    3   14      2.09      0.00
   -4    3   14     -1.29      0.00
   -3    3   14     -3.50      0.00
   -2    3   14      2.09      0.00
   -1    3   14      3.28      0.00
    0    3   14     -0.45      0.00
    1    3   14     -6.31      0.00
    2    3   14     -5.16      0.00
   10    3   14      0.41      0.00
   11    3   14      2.86      0.00
   12    3   14     -0.08      0.00
   13    3   14      1.29      0.00
   14    3   14     -0.54      0.00
   15    3   14      0.72      0.00
   16    3   14      0.26      0.00
   17    3   14      1.35      0.00
   18    3   14      1.06      0.00
   19    3   14      0.25      0.00
   20    3   14     -0.35      0.00
   21    3   14     -0.96      0.00
   22    3   14      1.08      0.00
  -28    4   14      0.64      0.00
  -27    4   14     -0.72      0.00
  -26    4   14      1.31      0.00
  -25    4   14      0.74      0.00
  -24    4   14     -3.68      0.00
  -15    4   14     -3.89      0.00
  -14    4   14      0.59      0.00
  -13    4   14      0.67      0.00
  -12    4   14     -0.28      0.00
  -11    4   14     -0.58      0.00
  -10    4   14      1.42      0.00
   -9    4   14     -0.45      0.00
   -8    4   14      1.29      0.00
   -7    4   14      0.43      0.00
   -6    4   14      0.12      0.00
   -5    4   14      1.92      0.00
   -4    4   14      0.27      0.00
   -3    4   14     -0.88      0.00
   -2    4   14     -1.51      0.00
   -1    4   14     -3.16      0.00
    0    4   14      0.07      0.00
    1    4   14      1.73      0.00
   10    4   14     -2.56      0.00
   11    4   14      0.43      0.00
   12    4   14     -0.56      0.00
   13    4   14      0.07      0.00
   14    4   14     -0.65      0.00
   15    4   14     -1.36      0.00
   16    4   14     -1.25      0.00
   17    4   14     -0.26      0.00
   18    4   14     -0.10      0.00
   19    4   14      0.81      0.00
   20    4   14      0.78      0.00
   21    4   14     -0.97      0.00
   22    4   14     -0.72      0.00
  -27    5   14     -1.41      0.00
  -26    5   14     -0.87      0.00
  -25    5   14      1.50      0.00
  -24    5   14     -0.53      0.00
  -23    5   14     -1.54      0.00
  -22    5   14     -0.70      0.00
  -13    5   14     -0.11      0.00
  -12    5   14      0.42      0.00
  -11    5   14      0.82      0.00
  -10    5   14      0.05      0.00
   -9    5   14     -1.42      0.00
   -8    5   14     -0.57      0.00
   -7    5   14      0.80      0.00
   -6    5   14      0.75      0.00
   -5    5   14      0.51      0.00
   -4    5   14      2.39      0.00
   -3    5   14     -5.42      0.00
   -2    5   14      2.64      0.00
   -1    5   14     -1.88      0.00
    0    5   14     -3.00      0.00
    9    5   14      1.48      0.00
   10    5   14     -0.92      0.00
   11    5   14     -1.16      0.00
   12    5   14     -0.18      0.00
   13    5   14      0.46      0.00
   14    5   14     -1.38      0.00
   15    5   14     -1.70      0.00
   16    5   14     -0.73      0.00
   17    5   14      1.27      0.00
   18    5   14      0.91      0.00
   19    5   14     -1.47      0.00
   20    5   14      0.66      0.00
   21    5   14      0.38      0.00
  -26    6   14      0.28      0.00
  -25    6   14      0.62      0.00
  -24    6   14     -0.86      0.00
  -23    6   14      0.75      0.00
  -22    6   14      0.89      0.00
  -21    6   14     -0.25      0.00
  -12    6   14     -0.42      0.00
  -11    6   14      1.57      0.00
  -10    6   14      0.19      0.00
   -9    6   14     -2.24      0.00
   -8    6   14      0.45      0.00
   -7    6   14      1.19      0.00
   -6    6   14      0.81      0.00
   -5    6   14     -3.96      0.00
   -4    6   14      1.63      0.00
   -3    6   14      4.20      0.00
   -2    6   14      0.00      0.00
    8    6   14     -0.24      0.00
    9    6   14     -1.05      0.00
   10    6   14      0.53      0.00
   11    6   14      0.35      0.00
   12    6   14     -0.52      0.00
   13    6   14      1.59      0.00
   14    6   14      1.23      0.00
   15    6   14      0.01      0.00
   16    6   14     -0.67      0.00
   17    6   14     -0.79      0.00
   18    6   14      1.01      0.00
   19    6   14      0.77      0.00
   20    6   14     -0.43      0.00
  -25    7   14     -0.59      0.00
  -24    7   14      0.16      0.00
  -23    7   14     -1.73      0.00
  -22    7   14      1.14      0.00
  -21    7   14     -2.74      0.00
  -20    7   14      0.08      0.00
  -19    7   14      2.66      0.00
  -18    7   14      2.05      0.00
  -17    7   14     -2.29      0.00
  -16    7   14     -1.32      0.00
  -15    7   14      3.69      0.00
  -14    7   14      0.07      0.00
  -13    7   14     -3.16      0.00
  -12    7   14     -1.72      0.00
  -11    7   14      1.20      0.00
  -10    7   14     -0.74      0.00
   -9    7   14     -0.99      0.00
   -8    7   14     -1.91      0.00
   -7    7   14      1.31      0.00
   -6    7   14      0.32      0.00
   -5    7   14      0.56      0.00
    6    7   14      1.93      0.00
    7    7   14      1.30      0.00
    8    7   14      0.56      0.00
    9    7   14      0.47      0.00
   10    7   14     -0.58      0.00
   11    7   14      0.67      0.00
   12    7   14      0.77      0.00
   13    7   14     -0.66      0.00
   14    7   14      0.67      0.00
   15    7   14     -0.87      0.00
   16    7   14     -0.40      0.00
   17    7   14     -0.05      0.00
   18    7   14     -0.18      0.00
   19    7   14     -0.27      0.00
  -24    8   14     -0.50      0.00
  -23    8   14      0.31      0.00
  -22    8   14      0.11      0.00
  -21    8   14      0.81      0.00
  -20    8   14     -0.82      0.00
  -19    8   14      0.79      0.00
  -18    8   14     -0.36      0.00
  -17    8   14      1.59      0.00
  -16    8   14      1.68      0.00
  -15    8   14      0.75      0.00
  -14    8   14      0.92      0.00
  -13    8   14      0.25      0.00
  -12    8   14     -0.96      0.00
  -11    8   14      1.60      0.00
  -10    8   14      0.53      0.00
   -9    8   14     -2.20      0.00
   -8    8   14      1.38      0.00
   -7    8   14      1.43      0.00
   -6    8   14     -1.14      0.00
   -5    8   14      0.24      0.00
   -4    8   14     -0.55      0.00
   -3    8   14     -3.70      0.00
   -2    8   14      7.50      0.00
   -1    8   14      0.57      0.00
    0    8   14     -2.10      0.00
    1    8   14     -1.09      0.00
    3    8   14     -1.73      0.00
    4    8   14     -0.05      0.00
    5    8   14     -0.60      0.00
    6    8   14     -2.38      0.00
    7    8   14      0.15      0.00
    8    8   14     -2.73      0.00
    9    8   14      1.78      0.00
   10    8   14      0.03      0.00
   11    8   14     -0.50      0.00
   12    8   14     -0.51      0.00
   13    8   14     -0.14      0.00
   14    8   14      1.47      0.00
   15    8   14      0.00      0.00
   16    8   14      0.67      0.00
   17    8   14     -0.41      0.00
   18    8   14      1.10      0.00
  -22    9   14      0.52      0.00
  -21    9   14      0.81      0.00
  -20    9   14      0.33      0.00
  -19    9   14      0.42      0.00
  -18    9   14      1.27      0.00
  -17    9   14     -0.27      0.00
  -16    9   14     -0.39      0.00
  -15    9   14      0.41      0.00
  -14    9   14      1.12      0.00
  -13    9   14      1.12      0.00
  -12    9   14      0.22      0.00
  -11    9   14     -1.80      0.00
  -10    9   14      1.84      0.00
   -9    9   14      0.14      0.00
   -8    9   14      0.79      0.00
   -7    9   14      1.34      0.00
   -6    9   14      1.68      0.00
   -5    9   14     -0.75      0.00
   -4    9   14      1.44      0.00
   -3    9   14      1.82      0.00
   -2    9   14     -2.10      0.00
   -1    9   14     -1.04      0.00
    0    9   14      1.40      0.00
    1    9   14     -0.56      0.00
    2    9   14      1.37      0.00
    3    9   14      1.13      0.00
    4    9   14     -1.42      0.00
    5    9   14      0.54      0.00
    6    9   14      1.00      0.00
    7    9   14      1.03      0.00
    8    9   14     -1.39      0.00
    9    9   14      0.35      0.00
   10    9   14     -0.76      0.00
   11    9   14      0.45      0.00
   12    9   14     -0.39      0.00
   13    9   14     -0.37      0.00
   14    9   14      0.16      0.00
   15    9   14     -0.07      0.00
   16    9   14     -0.65      0.00
  -21   10   14     -1.65      0.00
  -20   10   14     -0.01      0.00
  -19   10   14      1.10      0.00
  -18   10   14     -0.35      0.00
  -17   10   14     -0.90      0.00
  -16   10   14     -0.18      0.00
  -15   10   14      0.09      0.00
  -14   10   14     -0.53      0.00
  -13   10   14      0.31      0.00
  -12   10   14      0.52      0.00
  -11   10   14     -0.39      0.00
  -10   10   14     -0.05      0.00
   -9   10   14      0.11      0.00
   -8   10   14      0.45      0.00
   -7   10   14      0.03      0.00
   -6   10   14     -0.97      0.00
   -5   10   14      0.97      0.00
   -4   10   14      0.59      0.00
   -3   10   14     -0.28      0.00
   -2   10   14      2.25      0.00
   -1   10   14     -0.82      0.00
    0   10   14     -2.76      0.00
    1   10   14     -0.57      0.00
    2   10   14      1.20      0.00
    3   10   14     -0.96      0.00
    4   10   14     -0.72      0.00
    5   10   14      0.46      0.00
    6   10   14     -0.12      0.00
    7   10   14     -0.28      0.00
    8   10   14      0.06      0.00
    9   10   14      0.90      0.00
   10   10   14      0.81      0.00
   11   10   14     -0.57      0.00
   12   10   14      0.48      0.00
   13   10   14      0.25      0.00
   14   10   14      0.43      0.00
  -28    1   15     -0.47      0.00
  -27    1   15     -0.57      0.00
  -26    1   15      0.44      0.00
  -25    1   15      0.20      0.00
  -24    1   15     -1.44      0.00
  -23    1   15     -3.10      0.00
  -18    1   15      4.64      0.00
  -17    1   15     -4.13      0.00
  -16    1   15     -0.09      0.00
  -15    1   15      3.09      0.00
  -14    1   15     -0.41      0.00
  -13    1   15     -0.78      0.00
  -12    1   15     -0.16      0.00
  -11    1   15      0.04      0.00
  -10    1   15     -0.77      0.00
   -9    1   15     -0.35      0.00
   -8    1   15      0.17      0.00
   -7    1   15     -1.45      0.00
   -6    1   15      1.44      0.00
   -5    1   15      1.62      0.00
   -4    1   15     -1.32      0.00
   -3    1   15     -1.30      0.00
   -2    1   15     -0.64      0.00
   -1    1   15      4.40      0.00
    0    1   15     -0.54      0.00
    1    1   15      0.30      0.00
    2    1   15     -3.66      0.00
   10    1   15      3.12      0.00
   11    1   15     -3.96      0.00
   12    1   15      1.33      0.00
   13    1   15      1.00      0.00
   14    1   15     -0.57      0.00
   15    1   15     -1.38      0.00
   16    1   15     -1.64      0.00
   17    1   15      0.72      0.00
   18    1   15      1.13      0.00
   19    1   15     -0.93      0.00
   20    1   15     -0.26      0.00
   21    1   15      0.26      0.00
  -28    2   15      0.90      0.00
  -27    2   15     -0.30      0.00
  -26    2   15      0.23      0.00
  -25    2   15     -1.31      0.00
  -24    2   15      1.80      0.00
  -23    2   15     -3.77      0.00
  -17    2   15      1.84      0.00
  -16    2   15      4.54      0.00
  -15    2   15      1.84      0.00
  -14    2   15      1.80      0.00
  -13    2   15     -0.21      0.00
  -12    2   15      0.62      0.00
  -11    2   15      1.02      0.00
  -10    2   15      0.54      0.00
   -9    2   15     -0.20      0.00
   -8    2   15     -1.67      0.00
   -7    2   15     -0.70      0.00
   -6    2   15     -2.35      0.00
   -5    2   15      1.57      0.00
   -4    2   15     -0.52      0.00
   -3    2   15      0.58      0.00
   -2    2   15     -3.65      0.00
   -1    2   15      1.96      0.00
    0    2   15     -4.13      0.00
    1    2   15     -0.96      0.00
    2    2   15     -6.27      0.00
   10    2   15     -0.04      0.00
   11    2   15     -1.83      0.00
   12    2   15     -2.03      0.00
   13    2   15      2.41      0.00
   14    2   15     -1.00      0.00
   15    2   15      0.56      0.00
   16    2   15     -1.01      0.00
   17    2   15     -0.63      0.00
   18    2   15     -0.14      0.00
   19    2   15     -0.54      0.00
   20    2   15     -0.34      0.00
   21    2   15      0.54      0.00
  -27    3   15      0.75      0.00
  -26    3   15      0.62      0.00
  -25    3   15      0.80      0.00
  -24    3   15     -1.04      0.00
  -23    3   15      0.76      0.00
  -16    3   15     -0.92      0.00
  -15    3   15      6.09      0.00
  -14    3   15      2.99      0.00
  -13    3   15     -0.46      0.00
  -12    3   15      1.07      0.00
  -11    3   15     -0.18      0.00
  -10    3   15      1.38      0.00
   -9    3   15      0.01      0.00
   -8    3   15      0.63      0.00
   -7    3   15     -0.25      0.00
   -6    3   15      1.37      0.00
   -5    3   15     -0.34      0.00
   -4    3   15      1.21      0.00
   -3    3   15      0.34      0.00
   -2    3   15      1.99      0.00
   -1    3   15      0.86      0.00
    0    3   15      4.64      0.00
    1    3   15      2.87      0.00
   10    3   15      3.87      0.00
   11    3   15      1.07      0.00
   12    3   15      0.33      0.00
   13    3   15      0.30      0.00
   14    3   15     -0.42      0.00
   15    3   15      0.49      0.00
   16    3   15      0.57      0.00
   17    3   15      0.66      0.00
   18    3   15      0.59      0.00
   19    3   15      0.41      0.00
   20    3   15     -2.43      0.00
  -27    4   15      0.63      0.00
  -26    4   15     -0.21      0.00
  -25    4   15      1.24      0.00
  -24    4   15      0.04      0.00
  -23    4   15      0.78      0.00
  -22    4   15     -2.79      0.00
  -15    4   15      2.34      0.00
  -14    4   15     -2.37      0.00
  -13    4   15      0.18      0.00
  -12    4   15      2.07      0.00
  -11    4   15      0.78      0.00
  -10    4   15     -0.48      0.00
   -9    4   15     -1.71      0.00
   -8    4   15     -0.07      0.00
   -7    4   15      0.73      0.00
   -6    4   15     -1.62      0.00
   -5    4   15      0.99      0.00
   -4    4   15      0.40      0.00
   -3    4   15      2.02      0.00
   -2    4   15     -0.75      0.00
   -1    4   15      1.36      0.00
    0    4   15      3.90      0.00
    9    4   15     -2.14      0.00
   10    4   15     -0.04      0.00
   11    4   15     -1.28      0.00
   12    4   15      1.02      0.00
   13    4   15     -0.13      0.00
   14    4   15     -0.62      0.00
   15    4   15     -1.44      0.00
   16    4   15      1.06      0.00
   17    4   15      0.01      0.00
   18    4   15     -0.37      0.00
   19    4   15      1.17      0.00
   20    4   15      0.00      0.00
  -26    5   15      1.53      0.00
  -25    5   15     -0.42      0.00
  -24    5   15      2.75      0.00
  -23    5   15     -0.03      0.00
  -22    5   15      0.45      0.00
  -21    5   15     -2.08      0.00
  -20    5   15      2.82      0.00
  -12    5   15     -2.01      0.00
  -11    5   15      2.50      0.00
  -10    5   15     -0.32      0.00
   -9    5   15      2.04      0.00
   -8    5   15      0.00      0.00
   -7    5   15     -0.70      0.00
   -6    5   15     -0.13      0.00
   -5    5   15     -2.24      0.00
   -4    5   15     -6.14      0.00
   -3    5   15      3.31      0.00
   -2    5   15      1.10      0.00
    8    5   15     -2.95      0.00
    9    5   15      0.04      0.00
   10    5   15      1.94      0.00
   11    5   15      1.18      0.00
   12    5   15      1.98      0.00
   13    5   15      0.87      0.00
   14    5   15     -0.67      0.00
   15    5   15     -0.13      0.00
   16    5   15      0.72      0.00
   17    5   15      0.42      0.00
   18    5   15      0.07      0.00
   19    5   15      0.07      0.00
  -25    6   15      1.01      0.00
  -24    6   15      0.67      0.00
  -23    6   15      0.79      0.00
  -22    6   15     -1.11      0.00
  -21    6   15     -0.81      0.00
  -20    6   15      2.87      0.00
  -19    6   15      0.96      0.00
  -18    6   15     -0.77      0.00
  -17    6   15      3.84      0.00
  -16    6   15      3.29      0.00
  -15    6   15     -0.44      0.00
  -14    6   15      0.43      0.00
  -13    6   15     -1.71      0.00
  -12    6   15      0.01      0.00
  -11    6   15      0.02      0.00
  -10    6   15     -1.27      0.00
   -9    6   15     -1.26      0.00
   -8    6   15      3.40      0.00
   -7    6   15     -1.37      0.00
   -6    6   15     -1.26      0.00
   -5    6   15      5.60      0.00
   -4    6   15     -0.65      0.00
    7    6   15      2.26      0.00
    8    6   15     -0.87      0.00
    9    6   15     -0.99      0.00
   10    6   15     -0.45      0.00
   11    6   15      0.11      0.00
   12    6   15      0.07      0.00
   13    6   15      2.14      0.00
   14    6   15     -0.10      0.00
   15    6   15     -0.09      0.00
   16    6   15      0.63      0.00
   17    6   15      2.07      0.00
   18    6   15     -0.23      0.00
  -24    7   15      0.67      0.00
  -23    7   15      1.21      0.00
  -22    7   15     -0.40      0.00
  -21    7   15      0.62      0.00
  -20    7   15      0.88      0.00
  -19    7   15      0.98      0.00
  -18    7   15     -0.31      0.00
  -17    7   15      3.15      0.00
  -16    7   15      2.21      0.00
  -15    7   15     -1.49      0.00
  -14    7   15      2.77      0.00
  -13    7   15      0.21      0.00
  -12    7   15      2.32      0.00
  -11    7   15     -1.05      0.00
  -10    7   15     -1.56      0.00
   -9    7   15      0.30      0.00
   -8    7   15      0.19      0.00
   -7    7   15      0.52      0.00
    5    7   15     -3.56      0.00
    6    7   15      0.69      0.00
    7    7   15      0.92      0.00
    8    7   15      0.74      0.00
    9    7   15      1.74      0.00
   10    7   15     -0.80      0.00
   11    7   15      0.00      0.00
   12    7   15     -1.20      0.00
   13    7   15     -0.14      0.00
   14    7   15     -0.57      0.00
   15    7   15     -0.65      0.00
   16    7   15     -0.73      0.00
   17    7   15     -0.51      0.00
  -22    8   15     -0.51      0.00
  -21    8   15      0.55      0.00
  -20    8   15      0.84      0.00
  -19    8   15      2.26      0.00
  -18    8   15     -1.27      0.00
  -17    8   15      0.21      0.00
  -16    8   15      1.52      0.00
  -15    8   15     -1.55      0.00
  -14    8   15     -0.03      0.00
  -13    8   15     -1.73      0.00
  -12    8   15      0.42      0.00
  -11    8   15      0.01      0.00
  -10    8   15     -1.19      0.00
   -9    8   15      0.48      0.00
   -8    8   15      1.21      0.00
   -7    8   15      1.98      0.00
   -6    8   15     -0.94      0.00
   -5    8   15     -4.83      0.00
   -4    8   15      1.86      0.00
   -3    8   15      2.58      0.00
   -2    8   15     -1.05      0.00
   -1    8   15      0.42      0.00
    0    8   15     -3.66      0.00
    1    8   15     -0.53      0.00
    2    8   15      1.65      0.00
    3    8   15     -1.33      0.00
    4    8   15     -1.04      0.00
    5    8   15     -1.28      0.00
    6    8   15     -0.88      0.00
    7    8   15     -2.15      0.00
    8    8   15     -2.22      0.00
    9    8   15     -0.91      0.00
   10    8   15     -1.16      0.00
   11    8   15      0.82      0.00
   12    8   15      0.54      0.00
   13    8   15      0.39      0.00
   14    8   15     -0.56      0.00
   15    8   15     -0.49      0.00
   16    8   15     -0.52      0.00
  -21    9   15     -0.97      0.00
  -20    9   15      0.15      0.00
  -19    9   15     -1.65      0.00
  -18    9   15     -0.86      0.00
  -17    9   15      0.13      0.00
  -16    9   15      1.21      0.00
  -15    9   15     -2.27      0.00
  -14    9   15     -1.30      0.00
  -13    9   15      0.36      0.00
  -12    9   15      0.21      0.00
  -11    9   15      0.28      0.00
  -10    9   15      0.81      0.00
   -9    9   15      0.23      0.00
   -8    9   15      2.37      0.00
   -7    9   15     -1.79      0.00
   -6    9   15      0.57      0.00
   -5    9   15     -0.57      0.00
   -4    9   15      0.49      0.00
   -3    9   15      1.32      0.00
   -2    9   15     -2.17      0.00
   -1    9   15     -1.30      0.00
    0    9   15     -3.51      0.00
    1    9   15      0.59      0.00
    2    9   15     -0.10      0.00
    3    9   15      1.38      0.00
    4    9   15     -0.81      0.00
    5    9   15      0.67      0.00
    6    9   15     -0.53      0.00
    7    9   15     -0.32      0.00
    8    9   15      1.06      0.00
    9    9   15      0.69      0.00
   10    9   15     -0.41      0.00
   11    9   15     -2.18      0.00
   12    9   15      0.39      0.00
   13    9   15      0.62      0.00
   14    9   15     -0.52      0.00
  -19   10   15     -0.74      0.00
  -18   10   15     -0.72      0.00
  -17   10   15     -0.47      0.00
  -16   10   15      0.50      0.00
  -15   10   15      0.35      0.00
  -14   10   15     -1.32      0.00
  -13   10   15      0.32      0.00
  -12   10   15     -0.80      0.00
  -11   10   15     -0.40      0.00
  -10   10   15     -0.13      0.00
   -9   10   15      1.76      0.00
   -8   10   15      0.43      0.00
   -7   10   15     -0.46      0.00
   -6   10   15      0.70      0.00
   -5   10   15     -0.75      0.00
   -4   10   15      0.97      0.00
   -3   10   15      0.90      0.00
   -2   10   15     -0.71      0.00
   -1   10   15     -0.19      0.00
    0   10   15      1.21      0.00
    1   10   15      0.30      0.00
    2   10   15      0.21      0.00
    3   10   15     -0.03      0.00
    4   10   15      1.35      0.00
    5   10   15      0.72      0.00
    6   10   15      0.08      0.00
    7   10   15     -0.20      0.00
    8   10   15      1.19      0.00
    9   10   15      0.02      0.00
   10   10   15     -0.02      0.00
   11   10   15     -0.20      0.00
   12   10   15      0.22      0.00
  -26    0   16      2.09      0.00
  -25    0   16     -0.43      0.00
  -24    0   16      1.86      0.00
  -23    0   16      2.32      0.00
  -22    0   16      3.96      0.00
  -21    0   16      4.25      0.00
  -18    0   16      0.33      0.00
  -17    0   16     -3.59      0.00
  -16    0   16      0.71      0.00
  -15    0   16      1.05      0.00
  -14    0   16     -0.48      0.00
  -13    0   16      1.40      0.00
  -12    0   16     -0.98      0.00
  -11    0   16      0.50      0.00
  -10    0   16     -3.80      0.00
   -9    0   16      0.14      0.00
   -8    0   16      0.18      0.00
   -7    0   16      0.72      0.00
   -6    0   16     -2.85      0.00
   -5    0   16      2.51      0.00
   -4    0   16      0.35      0.00
   -3    0   16      1.37      0.00
   -2    0   16     -1.98      0.00
   -1    0   16      1.65      0.00
    0    0   16      3.02      0.00
    1    0   16     13.20      0.00
    9    0   16      2.71      0.00
   10    0   16      3.48      0.00
   11    0   16     -2.36      0.00
   12    0   16      4.08      0.00
   13    0   16      0.36      0.00
   14    0   16      1.38      0.00
   15    0   16     -0.65      0.00
   16    0   16      0.58      0.00
   17    0   16      2.14      0.00
   18    0   16      0.17      0.00
   19    0   16     -0.72      0.00
  -26    1   16      0.01      0.00
  -25    1   16      0.17      0.00
  -24    1   16      0.23      0.00
  -23    1   16      1.39      0.00
  -22    1   16      1.76      0.00
  -21    1   16     -1.62      0.00
  -17    1   16      2.71      0.00
  -16    1   16      4.62      0.00
  -15    1   16      1.44      0.00
  -14    1   16      0.40      0.00
  -13    1   16      1.63      0.00
  -12    1   16      0.01      0.00
  -11    1   16      1.36      0.00
  -10    1   16     -1.88      0.00
   -9    1   16     -0.94      0.00
   -8    1   16     -0.13      0.00
   -7    1   16     -0.67      0.00
   -6    1   16      0.57      0.00
   -5    1   16      0.20      0.00
   -4    1   16      3.57      0.00
   -3    1   16      0.86      0.00
   -2    1   16      2.99      0.00
   -1    1   16      1.96      0.00
    0    1   16     -0.87      0.00
    1    1   16      6.44      0.00
    9    1   16      5.26      0.00
   10    1   16     -2.75      0.00
   11    1   16      2.06      0.00
   12    1   16     -3.35      0.00
   13    1   16      2.23      0.00
   14    1   16     -1.15      0.00
   15    1   16     -0.14      0.00
   16    1   16     -0.93      0.00
   17    1   16     -0.13      0.00
   18    1   16      0.09      0.00
   19    1   16      0.22      0.00
  -26    2   16     -0.37      0.00
  -25    2   16     -0.38      0.00
  -24    2   16     -1.78      0.00
  -23    2   16      0.00      0.00
  -22    2   16      0.00      0.00
  -21    2   16      0.31      0.00
  -16    2   16      1.15      0.00
  -15    2   16     -0.60      0.00
  -14    2   16     -0.22      0.00
  -13    2   16     -2.46      0.00
  -12    2   16      0.23      0.00
  -11    2   16      0.60      0.00
  -10    2   16     -0.83      0.00
   -9    2   16     -0.06      0.00
   -8    2   16      1.95      0.00
   -7    2   16      1.14      0.00
   -6    2   16      0.55      0.00
   -5    2   16     -2.57      0.00
   -4    2   16      2.14      0.00
   -3    2   16     -3.59      0.00
   -2    2   16     -0.92      0.00
   -1    2   16     -6.19      0.00
    0    2   16      0.81      0.00
    9    2   16      1.75      0.00
   10    2   16      0.50      0.00
   11    2   16      0.13      0.00
   12    2   16     -1.94      0.00
   13    2   16     -1.15      0.00
   14    2   16     -0.67      0.00
   15    2   16      0.02      0.00
   16    2   16     -0.10      0.00
   17    2   16      0.82      0.00
   18    2   16     -0.09      0.00
   19    2   16     -1.18      0.00
  -26    3   16     -0.25      0.00
  -25    3   16     -0.86      0.00
  -24    3   16      0.51      0.00
  -23    3   16      0.52      0.00
  -22    3   16     -0.38      0.00
  -21    3   16      1.56      0.00
  -20    3   16     -0.75      0.00
  -15    3   16      1.54      0.00
  -14    3   16     -5.06      0.00
  -13    3   16      3.00      0.00
  -12    3   16     -2.10      0.00
  -11    3   16     -0.14      0.00
  -10    3   16     -1.87      0.00
   -9    3   16     -1.16      0.00
   -8    3   16      1.06      0.00
   -7    3   16     -1.32      0.00
   -6    3   16      0.36      0.00
   -5    3   16      1.67      0.00
   -4    3   16     -2.12      0.00
   -3    3   16     -0.63      0.00
   -2    3   16      4.38      0.00
   -1    3   16     -3.69      0.00
    8    3   16      2.40      0.00
    9    3   16     -2.98      0.00
   10    3   16      0.80      0.00
   11    3   16     -0.25      0.00
   12    3   16      0.85      0.00
   13    3   16      1.43      0.00
   14    3   16     -0.08      0.00
   15    3   16      0.66      0.00
   16    3   16      0.10      0.00
   17    3   16      0.99      0.00
   18    3   16      0.60      0.00
  -25    4   16     -0.07      0.00
  -24    4   16     -0.49      0.00
  -23    4   16     -0.24      0.00
  -22    4   16     -0.86      0.00
  -21    4   16      0.14      0.00
  -20    4   16      0.62      0.00
  -19    4   16     -0.60      0.00
  -14    4   16      1.57      0.00
  -13    4   16      2.02      0.00
  -12    4   16      2.08      0.00
  -11    4   16     -1.45      0.00
  -10    4   16     -0.30      0.00
   -9    4   16     -2.48      0.00
   -8    4   16      0.77      0.00
   -7    4   16     -0.72      0.00
   -6    4   16     -2.49      0.00
   -5    4   16      1.29      0.00
   -4    4   16      2.59      0.00
   -3    4   16     -2.07      0.00
   -2    4   16      0.20      0.00
    7    4   16      1.19      0.00
    8    4   16     -1.01      0.00
    9    4   16      2.37      0.00
   10    4   16      1.15      0.00
   11    4   16      0.95      0.00
   12    4   16      0.12      0.00
   13    4   16     -2.42      0.00
   14    4   16      0.72      0.00
   15    4   16      0.53      0.00
   16    4   16      0.12      0.00
   17    4   16      0.30      0.00
   18    4   16     -0.15      0.00
  -24    5   16     -0.97      0.00
  -23    5   16      0.61      0.00
  -22    5   16     -1.11      0.00
  -21    5   16     -1.31      0.00
  -20    5   16     -0.22      0.00
  -19    5   16     -2.14      0.00
  -18    5   16     -0.40      0.00
  -17    5   16     -3.08      0.00
  -11    5   16     -1.36      0.00
  -10    5   16     -1.09      0.00
   -9    5   16      0.88      0.00
   -8    5   16      3.12      0.00
   -7    5   16     -0.08      0.00
   -6    5   16     -0.74      0.00
   -5    5   16      0.71      0.00
   -4    5   16     -2.35      0.00
   -3    5   16     -2.70      0.00
    6    5   16     -3.63      0.00
    7    5   16     -3.18      0.00
    8    5   16     -0.94      0.00
    9    5   16      0.42      0.00
   10    5   16      0.37      0.00
   11    5   16     -1.74      0.00
   12    5   16      0.66      0.00
   13    5   16     -0.36      0.00
   14    5   16     -0.53      0.00
   15    5   16     -1.14      0.00
   16    5   16      0.26      0.00
   17    5   16      0.03      0.00
  -23    6   16      0.39      0.00
  -22    6   16      0.76      0.00
  -21    6   16     -0.63      0.00
  -20    6   16     -0.20      0.00
  -19    6   16      0.08      0.00
  -18    6   16     -0.11      0.00
  -17    6   16     -1.11      0.00
  -16    6   16      3.22      0.00
  -15    6   16     -4.32      0.00
  -14    6   16     -2.31      0.00
  -13    6   16     -0.88      0.00
  -12    6   16      1.18      0.00
  -11    6   16      2.26      0.00
  -10    6   16      0.03      0.00
   -9    6   16     -0.72      0.00
   -8    6   16      1.19      0.00
   -7    6   16      0.14      0.00
   -6    6   16     -1.62      0.00
    6    6   16     -1.18      0.00
    7    6   16     -0.49      0.00
    8    6   16     -0.82      0.00
    9    6   16      0.70      0.00
   10    6   16     -0.56      0.00
   11    6   16      2.04      0.00
   12    6   16     -2.07      0.00
   13    6   16     -1.01      0.00
   14    6   16      0.24      0.00
   15    6   16      0.37      0.00
   16    6   16     -0.32      0.00
  -22    7   16      0.98      0.00
  -21    7   16      1.29      0.00
  -20    7   16     -0.12      0.00
  -19    7   16     -1.00      0.00
  -18    7   16      0.11      0.00
  -17    7   16      0.38      0.00
  -16    7   16      0.51      0.00
  -15    7   16      1.34      0.00
  -14    7   16     -3.03      0.00
  -13    7   16      2.65      0.00
  -12    7   16     -0.23      0.00
  -11    7   16      0.82      0.00
  -10    7   16     -0.55      0.00
   -9    7   16      0.56      0.00
   -8    7   16     -0.24      0.00
   -7    7   16     -0.50      0.00
   -6    7   16     -2.04      0.00
    4    7   16     -0.48      0.00
    5    7   16      5.40      0.00
    6    7   16      1.99      0.00
    7    7   16     -2.24      0.00
    8    7   16      0.12      0.00
    9    7   16      0.82      0.00
   10    7   16      0.86      0.00
   11    7   16      0.20      0.00
   12    7   16      0.64      0.00
   13    7   16      0.41      0.00
   14    7   16     -0.79      0.00
   15    7   16      0.49      0.00
  -21    8   16     -0.30      0.00
  -20    8   16      0.58      0.00
  -19    8   16     -0.51      0.00
  -18    8   16      0.00      0.00
  -17    8   16      0.32      0.00
  -16    8   16     -0.21      0.00
  -15    8   16     -0.57      0.00
  -14    8   16     -1.12      0.00
  -13    8   16      0.85      0.00
  -12    8   16     -0.29      0.00
  -11    8   16      0.81      0.00
  -10    8   16      0.40      0.00
   -9    8   16      0.86      0.00
   -8    8   16     -0.84      0.00
   -7    8   16     -1.67      0.00
   -6    8   16      0.61      0.00
   -5    8   16      0.96      0.00
   -4    8   16     -3.19      0.00
   -3    8   16      0.44      0.00
   -2    8   16     -0.54      0.00
   -1    8   16     -1.88      0.00
    0    8   16      2.09      0.00
    1    8   16      2.01      0.00
    2    8   16     -3.25      0.00
    3    8   16     -0.45      0.00
    4    8   16      2.61      0.00
    5    8   16     -2.47      0.00
    6    8   16      1.17      0.00
    7    8   16      0.04      0.00
    8    8   16      1.28      0.00
    9    8   16     -1.44      0.00
   10    8   16      1.11      0.00
   11    8   16      0.27      0.00
   12    8   16     -0.10      0.00
   13    8   16      0.63      0.00
  -19    9   16      0.66      0.00
  -18    9   16      0.97      0.00
  -17    9   16     -0.61      0.00
  -16    9   16      0.02      0.00
  -15    9   16     -0.23      0.00
  -14    9   16     -1.77      0.00
  -13    9   16     -0.78      0.00
  -12    9   16     -1.66      0.00
  -11    9   16     -1.76      0.00
  -10    9   16      0.62      0.00
   -9    9   16      0.32      0.00
   -8    9   16     -1.18      0.00
   -7    9   16      0.36      0.00
   -6    9   16     -0.75      0.00
   -5    9   16      1.24      0.00
   -4    9   16      0.68      0.00
   -3    9   16      0.14      0.00
   -2    9   16     -0.18      0.00
   -1    9   16      0.24      0.00
    0    9   16      0.00      0.00
    1    9   16     -1.99      0.00
    2    9   16     -0.69      0.00
    3    9   16     -1.51      0.00
    4    9   16      0.93      0.00
    5    9   16      1.39      0.00
    6    9   16      0.23      0.00
    7    9   16      0.13      0.00
    8    9   16     -0.06      0.00
    9    9   16     -0.66      0.00
   10    9   16      0.15      0.00
   11    9   16      1.21      0.00
  -16   10   16     -0.77      0.00
  -15   10   16      0.87      0.00
  -14   10   16     -0.57      0.00
  -13   10   16      0.16      0.00
  -12   10   16     -0.02      0.00
  -11   10   16     -0.69      0.00
  -10   10   16     -1.24      0.00
   -9   10   16     -0.01      0.00
   -8   10   16     -0.49      0.00
   -7   10   16     -0.73      0.00
   -6   10   16      0.86      0.00
   -5   10   16      0.40      0.00
   -4   10   16     -2.38      0.00
   -3   10   16     -0.50      0.00
   -2   10   16      1.66      0.00
   -1   10   16      1.29      0.00
    0   10   16      0.01      0.00
    1   10   16      0.85      0.00
    2   10   16     -1.52      0.00
    3   10   16     -0.87      0.00
    4   10   16     -0.44      0.00
    5   10   16     -1.07      0.00
    6   10   16      0.05      0.00
    7   10   16      0.36      0.00
    8   10   16      0.28      0.00
    9   10   16     -0.26      0.00
  -25    1   17      0.39      0.00
  -24    1   17      0.53      0.00
  -23    1   17      1.65      0.00
  -22    1   17      0.05      0.00
  -21    1   17     -1.39      0.00
  -20    1   17     -1.66      0.00
  -19    1   17     -0.78      0.00
  -16    1   17      2.09      0.00
  -15    1   17      0.19      0.00
  -14    1   17     -1.89      0.00
  -13    1   17     -0.50      0.00
  -12    1   17     -0.02      0.00
  -11    1   17     -1.19      0.00
  -10    1   17     -0.50      0.00
   -9    1   17      0.28      0.00
   -8    1   17      2.18      0.00
   -7    1   17     -0.18      0.00
   -6    1   17     -0.87      0.00
   -5    1   17     -0.08      0.00
   -4    1   17      2.89      0.00
   -3    1   17      0.01      0.00
   -2    1   17      2.72      0.00
   -1    1   17     -3.03      0.00
    8    1   17      2.27      0.00
    9    1   17     -1.57      0.00
   10    1   17     -0.54      0.00
   11    1   17     -2.40      0.00
   12    1   17      1.00      0.00
   13    1   17      0.33      0.00
   14    1   17      1.30      0.00
   15    1   17     -0.39      0.00
   16    1   17     -0.34      0.00
   17    1   17     -1.98      0.00
  -24    2   17      1.20      0.00
  -23    2   17      0.19      0.00
  -22    2   17      0.69      0.00
  -21    2   17      0.85      0.00
  -20    2   17      2.77      0.00
  -19    2   17      2.51      0.00
  -15    2   17      0.77      0.00
  -14    2   17      0.87      0.00
  -13    2   17      3.10      0.00
  -12    2   17      0.18      0.00
  -11    2   17     -1.02      0.00
  -10    2   17      0.34      0.00
   -9    2   17     -0.58      0.00
   -8    2   17      0.00      0.00
   -7    2   17     -2.05      0.00
   -6    2   17     -0.37      0.00
   -5    2   17     -0.44      0.00
   -4    2   17     -0.39      0.00
   -3    2   17     -1.83      0.00
   -2    2   17     -0.13      0.00
    8    2   17      7.57      0.00
    9    2   17      0.87      0.00
   10    2   17      3.15      0.00
   11    2   17     -1.53      0.00
   12    2   17     -0.78      0.00
   13    2   17      0.25      0.00
   14    2   17     -0.06      0.00
   15    2   17      0.22      0.00
   16    2   17      1.44      0.00
   17    2   17     -0.35      0.00
  -24    3   17     -0.49      0.00
  -23    3   17      0.25      0.00
  -22    3   17      0.34      0.00
  -21    3   17     -0.20      0.00
  -20    3   17     -0.55      0.00
  -19    3   17      0.00      0.00
  -18    3   17      1.11      0.00
  -14    3   17     -1.07      0.00
  -13    3   17      1.75      0.00
  -12    3   17      1.85      0.00
  -11    3   17     -0.62      0.00
  -10    3   17     -1.94      0.00
   -9    3   17      1.58      0.00
   -8    3   17      1.24      0.00
   -7    3   17      0.58      0.00
   -6    3   17     -2.47      0.00
   -5    3   17     -0.08      0.00
   -4    3   17      2.63      0.00
   -3    3   17      1.69      0.00
    8    3   17     -3.76      0.00
    9    3   17     -0.30      0.00
   10    3   17     -0.90      0.00
   11    3   17      1.75      0.00
   12    3   17     -1.90      0.00
   13    3   17      1.10      0.00
   14    3   17      0.35      0.00
   15    3   17      0.45      0.00
   16    3   17     -1.01      0.00
  -23    4   17     -0.42      0.00
  -22    4   17     -1.06      0.00
  -21    4   17      0.66      0.00
  -20    4   17     -0.34      0.00
  -19    4   17     -1.13      0.00
  -18    4   17     -0.94      0.00
  -17    4   17     -1.55      0.00
  -16    4   17     -0.11      0.00
  -12    4   17      0.11      0.00
  -11    4   17     -3.00      0.00
  -10    4   17     -1.50      0.00
   -9    4   17     -0.38      0.00
   -8    4   17     -0.90      0.00
   -7    4   17      1.39      0.00
   -6    4   17     -1.97      0.00
   -5    4   17      2.24      0.00
   -4    4   17      5.76      0.00
    7    4   17      0.70      0.00
    8    4   17      0.83      0.00
    9    4   17      1.67      0.00
   10    4   17     -3.33      0.00
   11    4   17     -1.09      0.00
   12    4   17     -0.62      0.00
   13    4   17      0.64      0.00
   14    4   17      1.50      0.00
   15    4   17      0.07      0.00
   16    4   17      0.11      0.00
  -22    5   17     -0.09      0.00
  -21    5   17      0.58      0.00
  -20    5   17      0.39      0.00
  -19    5   17      0.19      0.00
  -18    5   17     -0.09      0.00
  -17    5   17      1.03      0.00
  -16    5   17      2.24      0.00
  -15    5   17      0.04      0.00
  -14    5   17     -1.38      0.00
  -13    5   17     -0.54      0.00
  -12    5   17      0.37      0.00
  -11    5   17     -0.75      0.00
  -10    5   17      0.69      0.00
   -9    5   17     -0.25      0.00
   -8    5   17     -3.19      0.00
   -7    5   17      1.90      0.00
   -6    5   17     -1.03      0.00
    6    5   17      2.66      0.00
    7    5   17     -0.30      0.00
    8    5   17     -1.77      0.00
    9    5   17      2.54      0.00
   10    5   17      2.27      0.00
   11    5   17      0.47      0.00
   12    5   17     -1.69      0.00
   13    5   17     -1.41      0.00
   14    5   17      1.05      0.00
   15    5   17      0.26      0.00
  -21    6   17     -0.76      0.00
  -20    6   17     -0.73      0.00
  -19    6   17     -0.81      0.00
  -18    6   17     -0.56      0.00
  -17    6   17      0.85      0.00
  -16    6   17     -0.98      0.00
  -15    6   17      1.54      0.00
  -14    6   17     -0.08      0.00
  -13    6   17      2.85      0.00
  -12    6   17     -0.74      0.00
  -11    6   17     -0.27      0.00
  -10    6   17      1.71      0.00
    3    6   17      1.99      0.00
    4    6   17     -1.03      0.00
    5    6   17     -0.44      0.00
    6    6   17     -0.59      0.00
    7    6   17      0.80      0.00
    8    6   17      2.93      0.00
    9    6   17     -1.27      0.00
   10    6   17     -0.16      0.00
   11    6   17     -0.80      0.00
   12    6   17     -0.26      0.00
   13    6   17      1.24      0.00
   14    6   17      0.33      0.00
  -20    7   17     -1.27      0.00
  -19    7   17     -0.90      0.00
  -18    7   17      0.22      0.00
  -17    7   17     -0.87      0.00
  -16    7   17     -0.37      0.00
  -15    7   17      0.58      0.00
  -14    7   17      1.44      0.00
  -13    7   17      0.74      0.00
  -12    7   17     -0.24      0.00
  -11    7   17      0.20      0.00
  -10    7   17     -1.06      0.00
   -9    7   17      2.57      0.00
   -8    7   17      1.27      0.00
   -7    7   17     -2.17      0.00
   -6    7   17      0.78      0.00
   -5    7   17      6.43      0.00
   -4    7   17     -1.32      0.00
   -3    7   17     -6.72      0.00
   -2    7   17      0.36      0.00
   -1    7   17     -2.33      0.00
    0    7   17      0.01      0.00
    1    7   17      1.27      0.00
    2    7   17     -1.14      0.00
    3    7   17      0.18      0.00
    4    7   17      0.32      0.00
    5    7   17     -1.14      0.00
    6    7   17      1.07      0.00
    7    7   17     -1.82      0.00
    8    7   17      1.06      0.00
    9    7   17      0.01      0.00
   10    7   17      1.05      0.00
   11    7   17      0.63      0.00
   12    7   17     -1.26      0.00
  -18    8   17      0.32      0.00
  -17    8   17     -0.27      0.00
  -16    8   17      0.48      0.00
  -15    8   17     -0.73      0.00
  -14    8   17      0.98      0.00
  -13    8   17      0.39      0.00
  -12    8   17     -0.22      0.00
  -11    8   17     -0.01      0.00
  -10    8   17     -1.60      0.00
   -9    8   17     -0.81      0.00
   -8    8   17     -0.34      0.00
   -7    8   17     -1.53      0.00
   -6    8   17      0.70      0.00
   -5    8   17      0.31      0.00
   -4    8   17     -0.41      0.00
   -3    8   17      0.26      0.00
   -2    8   17      1.47      0.00
   -1    8   17     -0.02      0.00
    0    8   17     -2.18      0.00
    1    8   17     -0.65      0.00
    2    8   17      1.69      0.00
    3    8   17      0.20      0.00
    4    8   17     -0.69      0.00
    5    8   17      0.32      0.00
    6    8   17      0.85      0.00
    7    8   17     -0.86      0.00
    8    8   17     -0.15      0.00
    9    8   17      1.18      0.00
   10    8   17     -0.19      0.00
  -16    9   17     -0.83      0.00
  -15    9   17      0.81      0.00
  -14    9   17      0.95      0.00
  -13    9   17     -0.26      0.00
  -12    9   17     -0.62      0.00
  -11    9   17     -0.72      0.00
  -10    9   17      0.70      0.00
   -9    9   17      0.19      0.00
   -8    9   17     -0.66      0.00
   -7    9   17     -1.73      0.00
   -6    9   17     -0.40      0.00
   -5    9   17      3.39      0.00
   -4    9   17     -1.70      0.00
   -3    9   17      0.19      0.00
   -2    9   17      0.77      0.00
   -1    9   17     -0.05      0.00
    0    9   17     -0.43      0.00
    1    9   17      1.10      0.00
    2    9   17     -1.00      0.00
    3    9   17     -0.18      0.00
    4    9   17     -0.16      0.00
    5    9   17     -1.82      0.00
    6    9   17      1.30      0.00
    7    9   17      0.39      0.00
    8    9   17     -1.37      0.00
  -13   10   17      0.48      0.00
  -12   10   17      0.13      0.00
  -11   10   17      0.82      0.00
  -10   10   17     -1.37      0.00
   -9   10   17      0.01      0.00
   -8   10   17      1.68      0.00
   -7   10   17      0.31      0.00
   -6   10   17     -0.60      0.00
   -5   10   17     -1.01      0.00
   -4   10   17      1.38      0.00
   -3   10   17      0.60      0.00
   -2   10   17      1.20      0.00
   -1   10   17      0.76      0.00
    0   10   17     -0.87      0.00
    1   10   17     -2.02      0.00
    2   10   17      1.57      0.00
    3   10   17      0.15      0.00
    4   10   17     -0.15      0.00
    5   10   17     -0.78      0.00
  -23    0   18     -1.53      0.00
  -22    0   18     -2.28      0.00
  -21    0   18      0.09      0.00
  -20    0   18     -0.68      0.00
  -19    0   18      1.40      0.00
  -18    0   18     -3.13      0.00
  -17    0   18      0.35      0.00
  -16    0   18     -0.05      0.00
  -15    0   18     -1.09      0.00
  -14    0   18      0.37      0.00
  -13    0   18      1.09      0.00
  -12    0   18     -1.51      0.00
  -11    0   18      0.38      0.00
  -10    0   18      0.80      0.00
   -9    0   18      1.43      0.00
   -8    0   18      1.02      0.00
   -7    0   18      0.54      0.00
   -6    0   18     -0.69      0.00
   -5    0   18      1.39      0.00
   -4    0   18     -2.61      0.00
   -3    0   18    -10.15      0.00
    6    0   18      5.10      0.00
    7    0   18     -3.03      0.00
    8    0   18     -0.68      0.00
    9    0   18      2.33      0.00
   10    0   18     -0.39      0.00
   11    0   18      2.03      0.00
   12    0   18     -0.88      0.00
   13    0   18      1.75      0.00
   14    0   18      1.84      0.00
   15    0   18     -2.37      0.00
  -23    1   18     -1.39      0.00
  -22    1   18     -0.82      0.00
  -21    1   18     -1.60      0.00
  -20    1   18      1.03      0.00
  -19    1   18     -1.05      0.00
  -18    1   18     -0.13      0.00
  -17    1   18      1.20      0.00
  -16    1   18      1.04      0.00
  -15    1   18      0.14      0.00
  -14    1   18     -0.70      0.00
  -13    1   18      2.04      0.00
  -12    1   18     -0.19      0.00
  -11    1   18     -1.07      0.00
  -10    1   18     -0.64      0.00
   -9    1   18     -0.38      0.00
   -8    1   18     -1.64      0.00
   -7    1   18     -0.23      0.00
   -6    1   18     -1.23      0.00
   -5    1   18      0.00      0.00
   -4    1   18     -4.32      0.00
   -3    1   18     -3.15      0.00
    6    1   18      2.96      0.00
    7    1   18      1.26      0.00
    8    1   18      0.90      0.00
    9    1   18      1.62      0.00
   10    1   18      1.35      0.00
   11    1   18     -1.38      0.00
   12    1   18      0.69      0.00
   13    1   18     -1.20      0.00
   14    1   18      1.12      0.00
  -22    2   18      0.01      0.00
  -21    2   18     -1.90      0.00
  -20    2   18     -0.38      0.00
  -19    2   18      2.05      0.00
  -18    2   18     -1.22      0.00
  -17    2   18      0.01      0.00
  -16    2   18      2.89      0.00
  -15    2   18      0.02      0.00
  -14    2   18      0.18      0.00
  -13    2   18     -0.16      0.00
  -12    2   18     -1.01      0.00
  -11    2   18     -1.46      0.00
  -10    2   18     -1.64      0.00
   -9    2   18     -1.04      0.00
   -8    2   18     -0.32      0.00
   -7    2   18     -2.18      0.00
   -6    2   18      1.99      0.00
   -5    2   18      2.69      0.00
   -4    2   18     -0.60      0.00
    6    2   18     -2.48      0.00
    7    2   18     -1.04      0.00
    8    2   18     -1.23      0.00
    9    2   18     -0.92      0.00
   10    2   18      1.48      0.00
   11    2   18     -1.03      0.00
   12    2   18     -0.78      0.00
   13    2   18     -0.95      0.00
   14    2   18     -0.81      0.00
  -22    3   18      0.11      0.00
  -21    3   18      0.90      0.00
  -20    3   18     -1.79      0.00
  -19    3   18     -1.68      0.00
  -18    3   18      0.56      0.00
  -17    3   18     -2.28      0.00
  -16    3   18     -0.87      0.00
  -15    3   18     -2.39      0.00
  -14    3   18      0.41      0.00
  -13    3   18      0.10      0.00
  -12    3   18      0.11      0.00
  -11    3   18      0.27      0.00
  -10    3   18      0.80      0.00
   -9    3   18     -0.50      0.00
   -8    3   18      0.08      0.00
   -7    3   18     -2.89      0.00
   -6    3   18      4.30      0.00
   -5    3   18      3.20      0.00
    6    3   18     -0.18      0.00
    7    3   18     -1.97      0.00
    8    3   18      1.13      0.00
    9    3   18      0.66      0.00
   10    3   18     -0.77      0.00
   11    3   18      0.09      0.00
   12    3   18      1.48      0.00
   13    3   18      1.47      0.00
   14    3   18     -0.61      0.00
  -21    4   18     -0.68      0.00
  -20    4   18      0.10      0.00
  -19    4   18     -0.41      0.00
  -18    4   18      0.03      0.00
  -17    4   18      0.61      0.00
  -16    4   18      1.87      0.00
  -15    4   18      0.66      0.00
  -14    4   18      0.05      0.00
  -13    4   18     -0.26      0.00
  -12    4   18     -0.55      0.00
  -11    4   18      1.51      0.00
  -10    4   18      0.84      0.00
   -9    4   18      1.09      0.00
   -8    4   18     -1.35      0.00
   -7    4   18     -1.08      0.00
    5    4   18     -0.07      0.00
    6    4   18      5.24      0.00
    7    4   18     -3.39      0.00
    8    4   18     -0.07      0.00
    9    4   18      1.93      0.00
   10    4   18      0.34      0.00
   11    4   18     -0.65      0.00
   12    4   18     -2.39      0.00
   13    4   18      2.28      0.00
  -20    5   18     -1.45      0.00
  -19    5   18      2.27      0.00
  -18    5   18      0.79      0.00
  -17    5   18     -0.22      0.00
  -16    5   18     -1.33      0.00
  -15    5   18      1.13      0.00
  -14    5   18      2.16      0.00
  -13    5   18      0.39      0.00
  -12    5   18     -1.98      0.00
  -11    5   18     -0.91      0.00
  -10    5   18      0.78      0.00
   -9    5   18      1.41      0.00
   -8    5   18     -0.84      0.00
    2    5   18      1.21      0.00
    3    5   18      0.18      0.00
    4    5   18      0.58      0.00
    5    5   18     -0.82      0.00
    6    5   18      0.14      0.00
    7    5   18     -1.72      0.00
    8    5   18     -0.86      0.00
    9    5   18     -1.27      0.00
   10    5   18     -0.78      0.00
   11    5   18      0.52      0.00
   12    5   18     -0.51      0.00
  -19    6   18      0.89      0.00
  -18    6   18      2.28      0.00
  -17    6   18      0.61      0.00
  -16    6   18     -0.17      0.00
  -15    6   18      0.18      0.00
  -14    6   18     -0.34      0.00
  -13    6   18     -0.51      0.00
  -12    6   18      0.17      0.00
  -11    6   18     -0.23      0.00
  -10    6   18      0.49      0.00
   -9    6   18     -1.49      0.00
   -8    6   18      2.99      0.00
   -7    6   18      0.55      0.00
   -6    6   18     -0.30      0.00
   -5    6   18      1.91      0.00
   -4    6   18      3.03      0.00
   -3    6   18     -1.13      0.00
   -2    6   18     -2.55      0.00
   -1    6   18      0.34      0.00
    0    6   18     -3.36      0.00
    1    6   18     -1.00      0.00
    2    6   18      1.18      0.00
    3    6   18     -1.23      0.00
    4    6   18     -2.52      0.00
    5    6   18      1.95      0.00
    6    6   18      2.65      0.00
    7    6   18     -1.95      0.00
    8    6   18      0.80      0.00
    9    6   18      0.78      0.00
   10    6   18      0.45      0.00
   11    6   18     -0.85      0.00
  -17    7   18      0.39      0.00
  -16    7   18     -0.22      0.00
  -15    7   18      0.94      0.00
  -14    7   18      0.84      0.00
  -13    7   18     -0.53      0.00
  -12    7   18     -0.28      0.00
  -11    7   18      1.26      0.00
  -10    7   18      0.31      0.00
   -9    7   18      0.72      0.00
   -8    7   18     -1.93      0.00
   -7    7   18     -0.15      0.00
   -6    7   18      0.00      0.00
   -5    7   18      0.20      0.00
   -4    7   18      0.44      0.00
   -3    7   18      1.84      0.00
   -2    7   18     -1.70      0.00
   -1    7   18     -0.86      0.00
    0    7   18     -1.28      0.00
    1    7   18      1.06      0.00
    2    7   18      0.81      0.00
    3    7   18     -1.52      0.00
    4    7   18     -0.58      0.00
    5    7   18     -0.82      0.00
    6    7   18      2.54      0.00
    7    7   18     -0.57      0.00
    8    7   18      0.21      0.00
    9    7   18      0.85      0.00
  -15    8   18      0.48      0.00
  -14    8   18      0.90      0.00
  -13    8   18     -1.08      0.00
  -12    8   18     -1.20      0.00
  -11    8   18      0.80      0.00
  -10    8   18     -0.29      0.00
   -9    8   18     -1.65      0.00
   -8    8   18      0.36      0.00
   -7    8   18     -0.22      0.00
   -6    8   18     -1.52      0.00
   -5    8   18     -0.94      0.00
   -4    8   18      0.52      0.00
   -3    8   18     -0.11      0.00
   -2    8   18     -1.26      0.00
   -1    8   18     -0.32      0.00
    0    8   18      0.64      0.00
    1    8   18     -0.35      0.00
    2    8   18      0.83      0.00
    3    8   18     -0.78      0.00
    4    8   18      0.73      0.00
    5    8   18      0.37      0.00
    6    8   18      0.54      0.00
    7    8   18     -0.58      0.00
  -12    9   18      0.34      0.00
  -11    9   18      0.38      0.00
  -10    9   18      0.07      0.00
   -9    9   18     -0.43      0.00
   -8    9   18     -1.00      0.00
   -7    9   18      0.10      0.00
   -6    9   18     -0.06      0.00
   -5    9   18     -0.12      0.00
   -4    9   18      0.55      0.00
   -3    9   18      0.15      0.00
   -2    9   18      0.66      0.00
   -1    9   18     -1.48      0.00
    0    9   18     -0.86      0.00
    1    9   18     -1.31      0.00
    2    9   18      1.13      0.00
    3    9   18     -1.31      0.00
    4    9   18     -1.78      0.00
  -20    1   19      0.49      0.00
  -19    1   19      0.38      0.00
  -18    1   19      0.85      0.00
  -17    1   19      1.96      0.00
  -16    1   19      1.68      0.00
  -15    1   19     -0.46      0.00
  -14    1   19     -0.81      0.00
  -13    1   19     -1.78      0.00
  -12    1   19     -0.33      0.00
  -11    1   19     -0.23      0.00
  -10    1   19      0.42      0.00
   -9    1   19      2.46      0.00
   -8    1   19      2.00      0.00
   -7    1   19      1.47      0.00
    1    1   19      2.32      0.00
    2    1   19     -1.83      0.00
    3    1   19     -0.26      0.00
    4    1   19     -0.88      0.00
    5    1   19      2.32      0.00
    6    1   19      0.01      0.00
    7    1   19     -1.72      0.00
    8    1   19     -3.03      0.00
    9    1   19      0.92      0.00
   10    1   19      1.74      0.00
   11    1   19     -0.52      0.00
   12    1   19     -1.57      0.00
  -20    2   19     -0.01      0.00
  -19    2   19     -1.95      0.00
  -18    2   19     -0.77      0.00
  -17    2   19      0.16      0.00
  -16    2   19     -1.11      0.00
  -15    2   19      0.75      0.00
  -14    2   19      0.52      0.00
  -13    2   19     -0.02      0.00
  -12    2   19     -0.17      0.00
  -11    2   19     -0.71      0.00
  -10    2   19     -1.35      0.00
   -9    2   19      0.59      0.00
   -8    2   19      0.10      0.00
    1    2   19     -0.06      0.00
    2    2   19      0.04      0.00
    3    2   19     -0.43      0.00
    4    2   19      2.27      0.00
    5    2   19     -1.28      0.00
    6    2   19     -0.17      0.00
    7    2   19      1.84      0.00
    8    2   19      2.33      0.00
    9    2   19     -1.69      0.00
   10    2   19     -0.03      0.00
   11    2   19      0.99      0.00
  -19    3   19      0.35      0.00
  -18    3   19     -0.85      0.00
  -17    3   19      0.44      0.00
  -16    3   19      0.01      0.00
  -15    3   19     -0.84      0.00
  -14    3   19     -0.93      0.00
  -13    3   19      0.30      0.00
  -12    3   19      0.94      0.00
  -11    3   19      1.62      0.00
  -10    3   19     -0.23      0.00
   -9    3   19     -1.31      0.00
   -8    3   19     -0.96      0.00
   -7    3   19     -5.41      0.00
   -2    3   19      0.55      0.00
   -1    3   19     -0.18      0.00
    0    3   19      2.43      0.00
    1    3   19     -1.05      0.00
    2    3   19      1.89      0.00
    3    3   19     -1.58      0.00
    4    3   19      1.12      0.00
    5    3   19      1.93      0.00
    6    3   19     -0.30      0.00
    7    3   19     -1.29      0.00
    8    3   19      2.25      0.00
    9    3   19      0.77      0.00
   10    3   19     -1.35      0.00
   11    3   19     -1.24      0.00
  -18    4   19     -0.32      0.00
  -17    4   19     -0.99      0.00
  -16    4   19      0.96      0.00
  -15    4   19      1.13      0.00
  -14    4   19     -0.11      0.00
  -13    4   19     -1.24      0.00
  -12    4   19     -0.31      0.00
  -11    4   19     -0.06      0.00
  -10    4   19     -0.96      0.00
   -9    4   19     -0.28      0.00
   -8    4   19     -1.71      0.00
   -7    4   19     -1.65      0.00
   -6    4   19      0.96      0.00
   -5    4   19      0.95      0.00
   -4    4   19     -1.63      0.00
   -3    4   19     -4.23      0.00
   -2    4   19      1.67      0.00
   -1    4   19     -3.00      0.00
    0    4   19      0.93      0.00
    1    4   19     -1.08      0.00
    2    4   19     -1.59      0.00
    3    4   19      1.39      0.00
    4    4   19      1.61      0.00
    5    4   19     -0.51      0.00
    6    4   19     -1.82      0.00
    7    4   19     -1.52      0.00
    8    4   19      0.53      0.00
    9    4   19      0.12      0.00
   10    4   19     -0.38      0.00
  -17    5   19     -0.69      0.00
  -16    5   19     -1.15      0.00
  -15    5   19      0.41      0.00
  -14    5   19     -0.85      0.00
  -13    5   19     -1.89      0.00
  -12    5   19      0.83      0.00
  -11    5   19      1.08      0.00
  -10    5   19     -2.10      0.00
   -9    5   19      1.64      0.00
   -8    5   19      0.29      0.00
   -7    5   19     -1.32      0.00
   -6    5   19     -0.40      0.00
   -5    5   19      6.00      0.00
   -4    5   19     -1.03      0.00
   -3    5   19     -0.94      0.00
   -2    5   19      1.63      0.00
   -1    5   19     -0.21      0.00
    0    5   19      0.83      0.00
    1    5   19      0.60      0.00
    2    5   19     -0.39      0.00
    3    5   19     -0.94      0.00
    4    5   19      2.20      0.00
    5    5   19     -0.01      0.00
    6    5   19      0.08      0.00
    7    5   19      0.02      0.00
    8    5   19     -0.14      0.00
    9    5   19     -0.05      0.00
  -16    6   19     -0.55      0.00
  -15    6   19      0.57      0.00
  -14    6   19      0.25      0.00
  -13    6   19     -1.81      0.00
  -12    6   19     -0.23      0.00
  -11    6   19      0.58      0.00
  -10    6   19      0.44      0.00
   -9    6   19     -0.91      0.00
   -8    6   19      1.93      0.00
   -7    6   19      1.98      0.00
   -6    6   19     -0.52      0.00
   -5    6   19      0.71      0.00
   -4    6   19      1.19      0.00
   -3    6   19      0.47      0.00
   -2    6   19      1.00      0.00
   -1    6   19      0.71      0.00
    0    6   19     -1.25      0.00
    1    6   19      0.98      0.00
    2    6   19     -2.72      0.00
    3    6   19     -0.50      0.00
    4    6   19      2.48      0.00
    5    6   19      0.94      0.00
    6    6   19     -3.73      0.00
    7    6   19      1.62      0.00
  -13    7   19     -0.88      0.00
  -12    7   19     -0.36      0.00
  -11    7   19     -0.59      0.00
  -10    7   19     -1.49      0.00
   -9    7   19     -0.23      0.00
   -8    7   19      0.72      0.00
   -7    7   19     -0.69      0.00
   -6    7   19      0.55      0.00
   -5    7   19     -0.17      0.00
   -4    7   19      0.17      0.00
   -3    7   19     -0.40      0.00
   -2    7   19      1.41      0.00
   -1    7   19      3.04      0.00
    0    7   19      0.36      0.00
    1    7   19     -1.30      0.00
    2    7   19     -1.04      0.00
    3    7   19      1.03      0.00
    4    7   19      1.61      0.00
    5    7   19      2.25      0.00
  -10    8   19     -1.31      0.00
   -9    8   19     -0.41      0.00
   -8    8   19      1.46      0.00
   -7    8   19      1.00      0.00
   -6    8   19      0.17      0.00
   -5    8   19     -1.08      0.00
   -4    8   19     -0.58      0.00
   -3    8   19     -0.79      0.00
   -2    8   19      1.18      0.00
   -1    8   19     -0.26      0.00
    0    8   19      1.65      0.00
    1    8   19     -0.13      0.00
    0    0    0      0.00      0.00
loop_
  _platon_squeeze_void_nr
  _platon_squeeze_void_average_x
  _platon_squeeze_void_average_y
  _platon_squeeze_void_average_z
  _platon_squeeze_void_volume
  _platon_squeeze_void_count_electrons
  _platon_squeeze_void_content
   1  0.251 -0.250  0.226      1406       198 ' '
   2  0.749  0.250  0.877      1406       199 ' '
_platon_squeeze_details
(replace by semicolon in column 1 when used as .sqf)
TITL exp_6314_a.res in P2(1)/c
CELL   26.5310   13.6170   16.4067     90.00     98.04     90.00
SPGR P21/c
Q101 0.027 0.887 0.814 !       2.58 eA-3
C102 0.204 0.051 0.205 !       1.90 eA-3
Q103 0.249 0.147 0.862 !       1.72 eA-3
Q104 0.476 0.934 0.502 !       1.70 eA-3
Q105 0.248 0.138 0.765 !       1.64 eA-3
Q106 0.733 0.920 0.188 !       1.59 eA-3
Q107 0.757 0.911 0.471 !       1.52 eA-3
Q108 0.737 0.584 0.001 !       1.48 eA-3
Q109 0.252 0.174 0.579 !       1.44 eA-3
Q110 0.289 0.360 0.311 !       1.39 eA-3
Q111 0.203 0.297 0.031 !       1.38 eA-3
Q112 0.963 0.533 0.565 !       1.36 eA-3
C113 0.734 0.273 0.874 !       1.35 eA-3
Q114 0.237 0.418 0.328 !       1.35 eA-3
Q115 0.235 0.225 0.813 !       1.34 eA-3
Q116 0.249 0.482 0.814 !       1.29 eA-3
C117 0.987 0.257 0.392 !       1.28 eA-3
C118 0.274 0.761 0.220 !       1.28 eA-3
Q119 0.330 0.142 0.768 !       1.26 eA-3
Q120 0.986 0.995 0.764 !       1.26 eA-3
Q121 0.798 0.653 0.686 !       1.22 eA-3
C122 0.279 0.602 0.562 !       1.21 eA-3
Q123 0.760 0.666 0.499 !       1.20 eA-3
Q124 0.446 0.969 0.610 !       1.19 eA-3
Q125 0.268 0.353 0.669 !       1.18 eA-3
Q126 1.001 0.535 0.406 !       1.17 eA-3
Q127 0.477 0.507 0.173 !       1.16 eA-3
Q128 0.591 0.923 0.595 !       1.16 eA-3
Q129 0.974 0.893 0.669 !       1.15 eA-3
C130 0.735 0.125 0.966 !       1.14 eA-3
Q131 0.686 0.830 0.547 !       1.13 eA-3
Q132 0.947 0.557 0.237 !       1.13 eA-3
Q133 0.738 0.755 0.501 !       1.13 eA-3
Q134 0.995 0.610 0.362 !       1.12 eA-3
C135 0.727 0.244 0.814 !       1.12 eA-3
C136 0.924 0.192 0.625 !       1.12 eA-3
Q137 0.983 0.901 0.703 !       1.11 eA-3
Q138 0.056 0.410 0.783 !       1.11 eA-3
Q139 0.500 0.998 0.500 !       1.11 eA-3
Q140 0.733 0.782 0.188 !       1.10 eA-3
Q141 0.953 0.025 0.106 !       1.10 eA-3
Q142 0.282 0.150 0.748 !       1.10 eA-3
C143 0.656 0.241 0.249 !       1.10 eA-3
Q144 0.694 0.558 0.096 !       1.09 eA-3
Q145 0.789 0.686 0.921 !       1.08 eA-3
Q146 0.335 0.270 0.076 !       1.07 eA-3
Q147 0.199 0.269 0.891 !       1.07 eA-3
Q148 0.289 0.046 0.079 !       1.07 eA-3
Q149 0.303 0.210 0.515 !       1.07 eA-3
C150 0.274 0.731 0.279 !       1.06 eA-3
Q151 0.455 0.522 0.233 !       1.06 eA-3
C152 0.314 0.716 0.266 !       1.06 eA-3
Q153 0.290 0.281 0.438 !       1.06 eA-3
C154 0.961 0.205 0.421 !       1.06 eA-3
Q155 0.155 0.370 0.267 !       1.06 eA-3
Q156 0.189 0.405 0.327 !       1.06 eA-3
C157 0.945 0.288 0.609 !       1.06 eA-3
Q158 0.458 0.512 0.016 !       1.06 eA-3
Q159 0.773 0.634 0.311 !       1.06 eA-3
C160 0.826 0.386 0.639 !       1.05 eA-3
Q161 0.565 0.594 0.752 !       1.05 eA-3
Q162 0.665 0.760 0.857 !       1.04 eA-3
Q163 0.748 0.815 0.516 !       1.04 eA-3
Q164 0.166 0.308 0.062 !       1.04 eA-3
Q165 0.704 0.365 0.767 !       1.04 eA-3
Q166 0.944 0.635 0.453 !       1.04 eA-3
Q167 0.697 0.696 0.984 !       1.04 eA-3
C168 0.234 0.550 0.735 !       1.04 eA-3
Q169 0.227 0.277 0.015 !       1.04 eA-3
C170 0.716 0.499 0.404 !       1.03 eA-3
C171 0.400 0.715 0.641 !       1.03 eA-3
Q172 0.368 0.089 0.625 !       1.02 eA-3
C173 0.148 0.940 0.187 !       1.02 eA-3
Q174 0.021 0.992 0.748 !       1.02 eA-3
Q175 0.907 0.544 0.782 !       1.01 eA-3
Q176 0.978 0.602 0.873 !       1.01 eA-3
C177 0.203 0.737 0.845 !       1.00 eA-3
Q178 0.702 0.459 0.794 !       1.00 eA-3
Q179 0.695 0.700 0.699 !       1.00 eA-3
C180 0.523 0.206 0.498 !       1.00 eA-3
Q181 0.194 0.272 0.783 !       0.99 eA-3
C182 0.228 0.656 0.624 !       0.99 eA-3
C183 0.603 0.406 0.360 !       0.98 eA-3
C184 0.758 0.359 0.909 !       0.98 eA-3
C185 0.188 0.809 0.846 !       0.98 eA-3
Q186 0.877 0.536 0.125 !       0.98 eA-3
Q187 0.521 0.174 0.519 !       0.98 eA-3
C188 0.242 0.635 0.124 !       0.97 eA-3
Q189 0.810 0.860 0.061 !       0.97 eA-3
C190 0.289 0.994 0.127 !       0.97 eA-3
Q191 0.038 0.968-0.003 !       0.97 eA-3
Q192 0.453 0.110 0.284 !       0.96 eA-3
C193 0.227 0.768 0.155 !       0.96 eA-3
Q194 0.742 0.821 0.845 !       0.96 eA-3
Q195 0.236 0.533-0.001 !       0.96 eA-3
C196 0.760 0.364 0.235 !       0.96 eA-3
C197 0.164 0.871 0.189 !       0.95 eA-3
Q198 0.842 0.576 0.203 !       0.95 eA-3
Q199 0.931 0.095 0.080 !       0.95 eA-3
(replace by semicolon in column 1 when used as .sqf)
;
_shelx_shelxl_version_number     2014/7
_olex2_submission_special_instructions 'No special instructions were received'
loop_
_space_group_symop_operation_xyz
'x, y, z'
'-x, y+1/2, -z+1/2'
'-x, -y, -z'
'x, -y-1/2, z-1/2'
loop_
_atom_site_label
_atom_site_type_symbol
_atom_site_fract_x
_atom_site_fract_y
_atom_site_fract_z
_atom_site_U_iso_or_equiv
_atom_site_adp_type
_atom_site_occupancy
_atom_site_site_symmetry_order
_atom_site_calc_flag
_atom_site_refinement_flags_posn
_atom_site_refinement_flags_adp
_atom_site_refinement_flags_occupancy
_atom_site_disorder_assembly
_atom_site_disorder_group
C1 C 0.3349(11) 1.095(4) 0.690(2) 0.047(9) Uiso 1 1 d . . . . .
C2 C 0.3895(9) 0.066(4) 0.6801(19) 0.078(12) Uiso 1 1 d . . . . .
C3 C 0.4058(10) 0.045(4) 0.6050(15) 0.121(18) Uiso 1 1 d G . . . .
N1 N 0.4565(11) 0.022(4) 0.6018(14) 0.103(13) Uiso 1 1 d G . . . .
C4 C 0.4910(9) 0.019(4) 0.6738(19) 0.088(14) Uiso 1 1 d G . . . .
C5 C 0.4747(11) 0.040(4) 0.7490(15) 0.123(19) Uiso 1 1 d G . . . .
C6 C 0.4240(13) 0.063(4) 0.7522(15) 0.120(18) Uiso 1 1 d G . . . .
C12 C 0.6766(13) 0.851(4) 0.632(2) 0.064(11) Uiso 1 1 d . . . . .
C7 C 0.5351(9) 0.968(3) 0.6672(16) 0.074(12) Uiso 1 1 d . . . . .
C8 C 0.5676(13) 0.934(4) 0.7352(12) 0.123(19) Uiso 1 1 d G . . . .
C9 C 0.6145(11) 0.894(4) 0.7251(15) 0.126(19) Uiso 1 1 d G . . . .
C10 C 0.6289(9) 0.888(3) 0.6470(19) 0.072(12) Uiso 1 1 d G . . . .
C11 C 0.5965(10) 0.922(3) 0.5790(13) 0.127(19) Uiso 1 1 d G . . . .
N2 N 0.5496(9) 0.962(3) 0.5891(13) 0.065(8) Uiso 1 1 d G . . . .
C13 C 0.8343(12) 0.897(4) 0.363(2) 0.054(10) Uiso 1 1 d . . . . .
C14 C 0.8859(7) 0.935(2) 0.3502(15) 0.046(8) Uiso 1 1 d . . . . .
C15 C 0.8933(8) 0.999(2) 0.2872(14) 0.100(15) Uiso 1 1 d G . . . .
N3 N 0.9419(10) 1.033(2) 0.2801(14) 0.106(13) Uiso 1 1 d G . . . .
C16 C 0.9832(7) 1.002(2) 0.3362(16) 0.068(11) Uiso 1 1 d G . . . .
C17 C 0.9758(7) 0.938(2) 0.3992(14) 0.065(10) Uiso 1 1 d G . . . .
C18 C 0.9271(9) 0.904(2) 0.4062(13) 0.078(12) Uiso 1 1 d G . . . .
C24 C 0.8323(12) 0.706(4) 0.171(2) 0.052(9) Uiso 1 1 d . . . . .
C19 C 1.0317(8) 1.045(2) 0.3333(15) 0.068(11) Uiso 1 1 d . . . . .
N4 N 1.0387(8) 1.104(2) 0.2664(12) 0.082(10) Uiso 1 1 d G . . . .
C21 C 1.0841(9) 1.154(2) 0.2661(13) 0.078(12) Uiso 1 1 d G . . . .
C20 C 1.1225(8) 1.147(3) 0.3327(16) 0.058(10) Uiso 1 1 d G . . . .
C22 C 1.1155(8) 1.088(3) 0.3996(13) 0.121(18) Uiso 1 1 d G . . . .
C23 C 1.0701(10) 1.037(2) 0.3999(13) 0.059(10) Uiso 1 1 d G . . . .
C25 C 0.8267(13) 0.616(4) 0.539(2) 0.064(11) Uiso 1 1 d . . . . .
C26 C 0.8765(8) 0.578(3) 0.5218(16) 0.062(10) Uiso 1 1 d . . . . .
C27 C 0.9025(11) 0.514(3) 0.5785(14) 0.108(16) Uiso 1 1 d G . . . .
C28 C 0.9515(10) 0.484(3) 0.5697(17) 0.096(13) Uiso 0.5 1 d G . . . .
C29 C 0.9745(8) 0.518(3) 0.5041(19) 0.098(15) Uiso 1 1 d G . . . .
N5 N 0.9486(10) 0.583(3) 0.4474(15) 0.105(14) Uiso 0.5 1 d G . . . .
C30 C 0.8996(10) 0.613(2) 0.4563(15) 0.075(12) Uiso 1 1 d G . . . .
C31 C 0.6677(12) 0.661(4) 0.493(2) 0.056(10) Uiso 1 1 d . . . . .
C32 C 0.6181(8) 0.608(3) 0.5007(17) 0.062(10) Uiso 1 1 d . . . . .
C33 C 0.6117(8) 0.538(3) 0.5599(14) 0.113(17) Uiso 1 1 d G . . . .
C34 C 0.5647(11) 0.493(2) 0.5595(16) 0.089(12) Uiso 0.5 1 d G . . . .
C35 C 0.5242(8) 0.517(2) 0.5000(17) 0.069(11) Uiso 1 1 d G . . . .
N6 N 0.5305(8) 0.588(3) 0.4409(14) 0.098(13) Uiso 0.5 1 d G . . . .
C36 C 0.5775(10) 0.633(2) 0.4413(15) 0.082(13) Uiso 1 1 d G . . . .
O004 O 0.7507(8) 0.739(3) 0.3330(13) 0.072(7) Uiso 1 1 d . . . . .
O005 O 0.8253(8) 0.857(2) 0.4245(14) 0.064(7) Uiso 1 1 d . . . . .
O006 O 0.8268(7) 0.744(2) 0.2314(13) 0.052(6) Uiso 1 1 d . . . . .
O007 O 0.8020(8) 0.661(2) 0.4816(13) 0.060(6) Uiso 1 1 d . . . . .
O008 O 0.7987(8) 0.920(3) 0.3024(13) 0.063(7) Uiso 1 1 d . . . . .
O009 O 0.8133(8) 0.912(3) 0.1087(14) 0.069(7) Uiso 1 1 d . . . . .
O00A O 0.6794(10) 0.893(3) 0.2425(17) 0.087(9) Uiso 1 1 d . . . . .
O00B O 0.7021(8) 0.801(2) 0.6886(13) 0.057(6) Uiso 1 1 d . . . . .
O00C O 0.7040(8) 0.657(3) 0.5577(13) 0.059(6) Uiso 1 1 d . . . . .
O00D O 0.6750(8) 0.704(2) 0.4338(14) 0.061(7) Uiso 1 1 d . . . . .
O00E O 0.7964(7) 0.702(2) 0.1077(12) 0.047(6) Uiso 1 1 d . . . . .
O00F O 0.6889(9) 0.860(3) 0.5608(16) 0.075(8) Uiso 1 1 d . . . . .
O00H O 0.7661(10) 0.979(3) 0.5083(16) 0.101(10) Uiso 1 1 d . . . . .
O00I O 0.6946(10) 0.899(3) 0.3797(16) 0.088(9) Uiso 1 1 d . . . . .
O00J O 0.7388(10) 1.026(3) 0.1670(16) 0.102(10) Uiso 1 1 d . . . . .
NC34 N 0.5647(11) 0.493(2) 0.5595(16) 0.089(12) Uiso 0.5 1 d . . . . .
NC28 N 0.9515(10) 0.484(3) 0.5697(17) 0.096(13) Uiso 0.5 1 d . . . . .
CN5 C 0.9486(10) 0.583(3) 0.4474(15) 0.105(14) Uiso 0.5 1 d . . . . .
CN6 C 0.5305(8) 0.588(3) 0.4409(14) 0.098(13) Uiso 0.5 1 d . . . . .
Eu01 Eu 0.75242(6) 0.8488(3) 0.18957(12) 0.0703(12) Uani 1 1 d . . . . .
Eu02 Eu 0.74943(6) 0.8080(3) 0.47301(12) 0.0710(12) Uani 1 1 d . . . . .
Cu1 Cu 0.5000 0.0000 0.5000 0.201(7) Uiso 1 2 d S T P . .
Cu2 Cu 0.9858(12) 0.423(4) 0.6724(18) 0.23(2) Uiso 0.43(3) 1 d . . . . .
Cu3 Cu 0.4723 0.5634 0.3795 0.18(8) Uiso 0.09(3) 1 d . . . . .
loop_
_atom_site_aniso_label
_atom_site_aniso_U_11
_atom_site_aniso_U_22
_atom_site_aniso_U_33
_atom_site_aniso_U_23
_atom_site_aniso_U_13
_atom_site_aniso_U_12
Eu01 0.0304(12) 0.135(4) 0.0439(13) -0.0040(14) 0.0006(10) 0.0060(12)
Eu02 0.0328(12) 0.142(4) 0.0372(12) 0.0046(14) 0.0032(9) 0.0024(12)
loop_
_atom_type_symbol
_atom_type_description
_atom_type_scat_dispersion_real
_atom_type_scat_dispersion_imag
_atom_type_scat_source
C C 0.0181 0.0091 'International Tables Vol C Tables 4.2.6.8 and 6.1.1.4'
N N 0.0311 0.0180 'International Tables Vol C Tables 4.2.6.8 and 6.1.1.4'
O O 0.0492 0.0322 'International Tables Vol C Tables 4.2.6.8 and 6.1.1.4'
Eu Eu -8.9294 11.1857 'International Tables Vol C Tables 4.2.6.8 and 6.1.1.4'
Cu Cu -1.9646 0.5888 'International Tables Vol C Tables 4.2.6.8 and 6.1.1.4'
loop_
_geom_angle_atom_site_label_1
_geom_angle_atom_site_label_2
_geom_angle_atom_site_label_3
_geom_angle
_geom_angle_site_symmetry_1
_geom_angle_site_symmetry_3
O00A C1 C2 123(3) 3_676 1_565
O00A C1 O00I 124(3) 3_676 3_676
O00I C1 C2 113(3) 3_676 1_565
C3 C2 C1 124(2) . 1_545
C3 C2 C6 120.0 . .
C6 C2 C1 116(2) . 1_545
N1 C3 C2 120.0 . .
C3 N1 Cu1 132.8(17) . .
C4 N1 C3 120.0 . .
C4 N1 Cu1 106.9(16) . .
N1 C4 C5 120.0 . .
C7 C4 N1 114(3) 1_545 .
C7 C4 C5 123(2) 1_545 .
C6 C5 C4 120.0 . .
C5 C6 C2 120.0 . .
O00B C12 C10 118(3) . .
O00F C12 C10 119(3) . .
O00F C12 O00B 123(3) . .
C4 C7 C8 123(10) 1_565 .
C4 C7 N2 117(10) 1_565 .
C8 C7 N2 120.0 . .
C7 C8 C9 120.0 . .
C10 C9 C8 120.0 . .
C9 C10 C12 123(3) . .
C9 C10 C11 120.0 . .
C11 C10 C12 117(3) . .
N2 C11 C10 120.0 . .
C7 N2 Cu1 116.3(15) . 1_565
C11 N2 C7 120.0 . .
C11 N2 Cu1 123.5(15) . 1_565
O005 C13 C14 124(3) . .
O005 C13 O008 122(3) . .
O008 C13 C14 113(3) . .
C15 C14 C13 123(2) . .
C15 C14 C18 120.0 . .
C18 C14 C13 117(2) . .
N3 C15 C14 120.0 . .
C15 N3 C16 120.0 . .
C15 N3 Cu2 135.8(15) . 4_575
C16 N3 Cu2 98.6(15) . 4_575
N3 C16 C19 119(2) . .
C17 C16 N3 120.0 . .
C17 C16 C19 120(2) . .
C16 C17 C18 120.0 . .
C17 C18 C14 120.0 . .
C20 C24 Eu01 171(6) 2_745 .
O006 C24 C20 119(5) . 2_745
O006 C24 O00E 122(3) . .
O006 C24 Eu01 55(2) . .
O00E C24 C20 117(6) . 2_745
O00E C24 Eu01 69.7(17) . .
N4 C19 C16 119(2) . .
N4 C19 C23 120.0 . .
C23 C19 C16 120.8(19) . .
C19 N4 C21 120.0 . .
C19 N4 Cu2 110.8(19) . 4_575
C21 N4 Cu2 127.7(17) . 4_575
C20 C21 N4 120.0 . .
C21 C20 C24 116(2) . 2_755
C21 C20 C22 120.0 . .
C22 C20 C24 123(2) . 2_755
C23 C22 C20 120.0 . .
C22 C23 C19 120.0 . .
O007 C25 C26 115(3) . .
O007 C25 O009 129(3) . 4_576
O009 C25 C26 115(3) 4_576 .
C27 C26 C25 118(3) . .
C27 C26 C30 120.0 . .
C30 C26 C25 122(3) . .
C28 C27 C26 120.0 . .
C27 C28 C29 120.0 . .
C27 C28 Cu2 111.0(19) . .
C29 C28 Cu2 126.9(19) . .
C28 C29 C29 118(4) . 3_766
N5 C29 C28 120.0 . .
N5 C29 C29 122(4) . 3_766
C30 N5 C29 120.0 . .
N5 C30 C26 120.0 . .
C32 C31 Eu02 166(3) . .
O00C C31 C32 117(3) . .
O00C C31 Eu02 70.0(18) . .
O00D C31 C32 123(3) . .
O00D C31 O00C 119(3) . .
O00D C31 Eu02 51(2) . .
C33 C32 C31 125(2) . .
C33 C32 C36 120.0 . .
C36 C32 C31 115(2) . .
C34 C33 C32 120.0 . .
C33 C34 C35 120.0 . .
C33 C34 Cu3 142.9(17) . 3_666
C35 C34 Cu3 94.0(16) . 3_666
C34 C35 N6 120.0 . .
C34 C35 Cu3 165.6(12) . .
C34 C35 Cu3 48.0(11) . 3_666
C35 C35 C34 123(4) 3_666 .
C35 C35 N6 116(4) 3_666 .
C35 C35 Cu3 70(3) 3_666 .
C35 C35 Cu3 76(3) 3_666 3_666
N6 C35 Cu3 162.7(14) . 3_666
N6 C35 Cu3 48.6(12) . .
Cu3 C35 Cu3 145.4(9) 3_666 .
C35 N6 Cu3 95.0(17) . .
C36 N6 C35 120.0 . .
C36 N6 Cu3 143.5(16) . .
N6 C36 C32 120.0 . .
Eu02 O004 Eu01 125.5(15) . .
C13 O005 Eu02 134(2) . .
C24 O006 Eu01 103(2) . .
C25 O007 Eu02 134(3) . .
C13 O008 Eu01 139(3) . .
C25 O009 Eu01 132(3) 4_575 .
C1 O00A Eu01 139(2) 3_676 .
C12 O00B Eu01 134(3) . 4_576
C31 O00C Eu01 166.7(19) . 4_576
C31 O00C Eu02 84(2) . .
Eu01 O00C Eu02 105.1(10) 4_576 .
C31 O00D Eu02 107(2) . .
C24 O00E Eu01 84(2) . .
C24 O00E Eu02 164.9(18) . 4_575
Eu02 O00E Eu01 106.8(9) 4_575 .
C12 O00F Eu02 144(3) . .
C1 O00I Eu02 149(3) 3_676 .
C24 Eu01 Eu02 59.5(7) . 4_575
O004 Eu01 C24 80.2(9) . .
O004 Eu01 Eu02 116.5(7) . 4_575
O006 Eu01 C24 22.6(7) . .
O006 Eu01 O004 63.9(7) . .
O006 Eu01 O00E 48.4(7) . .
O006 Eu01 O00J 135.1(9) . .
O006 Eu01 Eu02 81.8(5) . 4_575
O008 Eu01 C24 93.0(10) . .
O008 Eu01 O004 67.4(10) . .
O008 Eu01 O006 72.6(9) . .
O008 Eu01 O009 88.2(8) . .
O008 Eu01 O00A 88.2(9) . .
O008 Eu01 O00B 126.3(9) . 4_575
O008 Eu01 O00C 156.7(12) . 4_575
O008 Eu01 O00E 119.1(8) . .
O008 Eu01 O00J 76.0(11) . .
O008 Eu01 Eu02 149.0(6) . 4_575
O009 Eu01 C24 67.9(11) . .
O009 Eu01 O004 138.8(7) . .
O009 Eu01 O006 77.6(9) . .
O009 Eu01 O00B 135.2(9) . 4_575
O009 Eu01 O00E 68.0(9) . .
O009 Eu01 O00J 70.2(10) . .
O009 Eu01 Eu02 69.0(7) . 4_575
O00A Eu01 C24 150.7(13) . .
O00A Eu01 O004 73.2(10) . .
O00A Eu01 O006 137.0(9) . .
O00A Eu01 O009 141.4(13) . .
O00A Eu01 O00B 74.6(11) . 4_575
O00A Eu01 O00C 88.6(8) . 4_575
O00A Eu01 O00E 143.8(10) . .
O00A Eu01 O00J 71.7(12) . .
O00A Eu01 Eu02 122.8(7) . 4_575
O00B Eu01 C24 81.2(10) 4_575 .
O00B Eu01 O004 59.0(8) 4_575 .
O00B Eu01 O006 86.2(8) 4_575 .
O00B Eu01 O00E 70.0(8) 4_575 .
O00B Eu01 O00J 138.7(9) 4_575 .
O00B Eu01 Eu02 67.5(5) 4_575 4_575
O00C Eu01 C24 100.9(10) 4_575 .
O00C Eu01 O004 133.1(9) 4_575 .
O00C Eu01 O006 123.3(9) 4_575 .
O00C Eu01 O009 80.0(8) 4_575 .
O00C Eu01 O00B 74.7(9) 4_575 4_575
O00C Eu01 O00E 75.0(8) 4_575 .
O00C Eu01 O00J 81.2(10) 4_575 .
O00C Eu01 Eu02 41.5(7) 4_575 4_575
O00E Eu01 C24 26.3(7) . .
O00E Eu01 O004 94.6(8) . .
O00E Eu01 Eu02 33.5(4) . 4_575
O00J Eu01 C24 136.9(11) . .
O00J Eu01 O004 129.2(9) . .
O00J Eu01 O00E 134.6(8) . .
O00J Eu01 Eu02 113.1(6) . 4_575
C31 Eu02 Eu01 59.2(7) . 4_576
O004 Eu02 C31 87.4(10) . .
O004 Eu02 O00C 103.9(9) . .
O004 Eu02 Eu01 126.7(8) . 4_576
O005 Eu02 C31 152.5(11) . .
O005 Eu02 O004 70.9(8) . .
O005 Eu02 O007 75.0(10) . .
O005 Eu02 O00C 144.0(9) . .
O005 Eu02 O00D 140.4(8) . .
O005 Eu02 O00E 88.2(7) . 4_576
O005 Eu02 O00F 142.1(11) . .
O005 Eu02 O00H 71.0(10) . .
O005 Eu02 Eu01 121.4(6) . 4_576
O007 Eu02 C31 82.1(10) . .
O007 Eu02 O004 70.2(9) . .
O007 Eu02 O00C 69.9(8) . .
O007 Eu02 O00D 88.6(9) . .
O007 Eu02 Eu01 65.4(5) . 4_576
O00C Eu02 C31 26.0(7) . .
O00C Eu02 Eu01 33.4(4) . 4_576
O00D Eu02 C31 22.0(7) . .
O00D Eu02 O004 69.7(8) . .
O00D Eu02 O00C 47.7(7) . .
O00D Eu02 Eu01 81.0(6) . 4_576
O00E Eu02 C31 98.8(9) 4_576 .
O00E Eu02 O004 139.7(9) 4_576 .
O00E Eu02 O007 71.3(9) 4_576 .
O00E Eu02 O00C 73.1(8) 4_576 .
O00E Eu02 O00D 120.7(9) 4_576 .
O00E Eu02 O00F 76.6(7) 4_576 .
O00E Eu02 O00H 77.1(10) 4_576 .
O00E Eu02 Eu01 39.7(6) 4_576 4_576
O00F Eu02 C31 65.1(11) . .
O00F Eu02 O004 139.5(8) . .
O00F Eu02 O007 129.3(10) . .
O00F Eu02 O00C 63.7(10) . .
O00F Eu02 O00D 75.3(9) . .
O00F Eu02 O00H 71.9(11) . .
O00F Eu02 Eu01 64.7(7) . 4_576
O00H Eu02 C31 136.4(11) . .
O00H Eu02 O004 123.8(10) . .
O00H Eu02 O007 133.7(9) . .
O00H Eu02 O00C 130.8(9) . .
O00H Eu02 O00D 137.2(10) . .
O00H Eu02 Eu01 108.1(7) . 4_576
O00I Eu02 C31 92.0(11) . .
O00I Eu02 O004 71.4(11) . .
O00I Eu02 O005 96.4(10) . .
O00I Eu02 O007 141.4(10) . .
O00I Eu02 O00C 116.1(9) . .
O00I Eu02 O00D 74.2(11) . .
O00I Eu02 O00E 147.1(11) . 4_576
O00I Eu02 O00F 80.1(9) . .
O00I Eu02 O00H 73.7(12) . .
O00I Eu02 Eu01 141.1(7) . 4_576
N1 Cu1 N1 180(4) . 3_656
N2 Cu1 N1 80(10) 1_545 .
N2 Cu1 N1 100(10) 3_666 .
N2 Cu1 N1 100(10) 1_545 3_656
N2 Cu1 N1 80(10) 3_666 3_656
N2 Cu1 N2 180(10) 3_666 1_545
N4 Cu2 N3 80(6) 4_576 4_576
N4 Cu2 C28 159(7) 4_576 .
C28 Cu2 N3 109(4) . 4_576
C34 Cu3 C35 38.0(9) 3_666 3_666
C34 Cu3 C35 72.4(13) 3_666 .
C34 Cu3 N6 106.5(10) 3_666 .
C34 Cu3 NC34 0.0 3_666 3_666
C35 Cu3 C35 34.6(9) 3_666 .
N6 Cu3 C35 36.4(6) . .
N6 Cu3 C35 70.3(11) . 3_666
NC34 Cu3 C35 72.4(13) 3_666 .
NC34 Cu3 C35 38.0(9) 3_666 3_666
NC34 Cu3 N6 106.5(10) 3_666 .
loop_
_geom_bond_atom_site_label_1
_geom_bond_atom_site_label_2
_geom_bond_distance
_geom_bond_site_symmetry_2
C1 C2 1.53(4) 1_565
C1 O00A 1.23(3) 3_676
C1 O00I 1.29(3) 3_676
C2 C1 1.53(4) 1_545
C2 C3 1.3900 .
C2 C6 1.3900 .
C3 N1 1.3900 .
N1 C4 1.3900 .
N1 Cu1 2.18(2) .
C4 C5 1.3900 .
C4 C7 1.38(4) 1_545
C5 C6 1.3900 .
C12 C10 1.41(4) .
C12 O00B 1.27(4) .
C12 O00F 1.26(4) .
C7 C4 1.4(4) 1_565
C7 C8 1.3900 .
C7 N2 1.3900 .
C8 C9 1.3900 .
C9 C10 1.3900 .
C10 C11 1.3900 .
C11 N2 1.3900 .
N2 Cu1 1.90(2) 1_565
C13 C14 1.50(4) .
C13 O005 1.21(4) .
C13 O008 1.31(3) .
C14 C15 1.3900 .
C14 C18 1.3900 .
C15 N3 1.3900 .
N3 C16 1.3900 .
N3 Cu2 2.33(4) 4_575
C16 C17 1.3900 .
C16 C19 1.42(2) .
C17 C18 1.3900 .
C24 C20 1.45(8) 2_745
C24 O006 1.15(4) .
C24 O00E 1.31(3) .
C24 Eu01 2.93(4) .
C19 N4 1.3900 .
C19 C23 1.3900 .
N4 C21 1.3900 .
N4 Cu2 1.97(4) 4_575
C21 C20 1.3900 .
C20 C24 1.45(4) 2_755
C20 C22 1.3900 .
C22 C23 1.3900 .
C25 C26 1.48(4) .
C25 O007 1.23(4) .
C25 O009 1.30(4) 4_576
C26 C27 1.3900 .
C26 C30 1.3900 .
C27 C28 1.3900 .
C28 C29 1.3900 .
C28 Cu2 1.98(4) .
C29 C29 1.46(4) 3_766
C29 N5 1.3900 .
N5 C30 1.3900 .
C31 C32 1.52(4) .
C31 O00C 1.33(3) .
C31 O00D 1.18(4) .
C31 Eu02 3.01(4) .
C32 C33 1.3900 .
C32 C36 1.3900 .
C33 C34 1.3900 .
C34 C35 1.3900 .
C34 Cu3 1.68(2) 3_666
C35 C35 1.37(4) 3_666
C35 N6 1.3900 .
C35 Cu3 2.33(3) .
C35 Cu3 2.25(3) 3_666
N6 C36 1.3900 .
N6 Cu3 1.76(2) .
O004 Eu01 2.79(3) .
O004 Eu02 2.49(3) .
O005 Eu02 2.36(2) .
O006 Eu01 2.45(2) .
O007 Eu02 2.43(3) .
O008 Eu01 2.29(2) .
O009 C25 1.30(4) 4_575
O009 Eu01 2.39(3) .
O00A C1 1.23(3) 3_676
O00A Eu01 2.31(3) .
O00B Eu01 2.43(3) 4_576
O00C Eu01 2.36(2) 4_576
O00C Eu02 2.84(3) .
O00D Eu02 2.44(2) .
O00E Eu01 2.76(3) .
O00E Eu02 2.38(2) 4_575
O00F Eu02 2.41(3) .
O00H Eu02 2.42(4) .
O00I C1 1.29(3) 3_676
O00I Eu02 2.32(3) .
O00J Eu01 2.46(4) .
Eu01 O00B 2.43(3) 4_575
Eu01 O00C 2.36(2) 4_575
Eu01 Eu02 4.137(4) 4_575
Eu02 O00E 2.38(2) 4_576
Eu02 Eu01 4.137(4) 4_576
Cu1 N1 2.18(2) 3_656
Cu1 N2 1.9(3) 1_545
Cu1 N2 1.9(3) 3_666
Cu2 N3 2.33(11) 4_576
Cu2 N4 1.97(18) 4_576
Cu3 C34 1.68(5) 3_666
Cu3 C35 2.25(4) 3_666
Cu3 NC34 1.68(5) 3_666
loop_
_geom_torsion_atom_site_label_1
_geom_torsion_atom_site_label_2
_geom_torsion_atom_site_label_3
_geom_torsion_atom_site_label_4
_geom_torsion
_geom_torsion_site_symmetry_1
_geom_torsion_site_symmetry_2
_geom_torsion_site_symmetry_3
_geom_torsion_site_symmetry_4
C1 C2 C3 N1 178(5) 1_545 . . .
C1 C2 C6 C5 -178(5) 1_545 . . .
C2 C3 N1 C4 0.0 . . . .
C2 C3 N1 Cu1 -173(4) . . . .
C3 C2 C6 C5 0.0 . . . .
C3 N1 C4 C5 0.0 . . . .
C3 N1 C4 C7 161(4) . . . 1_545
N1 C4 C5 C6 0.0 . . . .
C4 C5 C6 C2 0.0 . . . .
C4 C7 C8 C9 -172(10) 1_565 . . .
C4 C7 N2 C11 172(10) 1_565 . . .
C4 C7 N2 Cu1 -13(10) 1_565 . . 1_565
C6 C2 C3 N1 0.0 . . . .
C12 C10 C11 N2 -178(4) . . . .
C7 C4 C5 C6 -160(5) 1_545 . . .
C7 C8 C9 C10 0.0 . . . .
C8 C7 N2 C11 0.0 . . . .
C8 C7 N2 Cu1 175(2) . . . 1_565
C8 C9 C10 C12 178(4) . . . .
C8 C9 C10 C11 0.0 . . . .
C9 C10 C11 N2 0.0 . . . .
C10 C12 O00B Eu01 138(3) . . . 4_576
C10 C12 O00F Eu02 -168(4) . . . .
C10 C11 N2 C7 0.0 . . . .
C10 C11 N2 Cu1 -174(3) . . . 1_565
N2 C7 C8 C9 0.0 . . . .
C13 C14 C15 N3 179(3) . . . .
C13 C14 C18 C17 -179(3) . . . .
C14 C13 O005 Eu02 170(3) . . . .
C14 C13 O008 Eu01 103(4) . . . .
C14 C15 N3 C16 0.0 . . . .
C14 C15 N3 Cu2 147(3) . . . 4_575
C15 C14 C18 C17 0.0 . . . .
C15 N3 C16 C17 0.0 . . . .
C15 N3 C16 C19 -174(3) . . . .
N3 C16 C17 C18 0.0 . . . .
N3 C16 C19 N4 -11(3) . . . .
N3 C16 C19 C23 162.5(18) . . . .
C16 C17 C18 C14 0.0 . . . .
C16 C19 N4 C21 173(3) . . . .
C16 C19 N4 Cu2 -20(3) . . . 4_575
C16 C19 C23 C22 -173(3) . . . .
C17 C16 C19 N4 175.6(16) . . . .
C17 C16 C19 C23 -11(3) . . . .
C18 C14 C15 N3 0.0 . . . .
C24 C20 C22 C23 177(4) 2_755 . . .
C19 C16 C17 C18 174(3) . . . .
C19 N4 C21 C20 0.0 . . . .
N4 C19 C23 C22 0.0 . . . .
N4 C21 C20 C24 -177(3) . . . 2_755
N4 C21 C20 C22 0.0 . . . .
C21 C20 C22 C23 0.0 . . . .
C20 C24 O006 Eu01 172(7) 2_745 . . .
C20 C24 O00E Eu01 -174(7) 2_745 . . .
C20 C24 O00E Eu02 -38(13) 2_745 . . 4_575
C20 C22 C23 C19 0.0 . . . .
C23 C19 N4 C21 0.0 . . . .
C23 C19 N4 Cu2 167(2) . . . 4_575
C25 C26 C27 C28 -174(3) . . . .
C25 C26 C30 N5 173(3) . . . .
C26 C25 O007 Eu02 -140(3) . . . .
C26 C27 C28 C29 0.0 . . . .
C26 C27 C28 Cu2 165(3) . . . .
C27 C26 C30 N5 0.0 . . . .
C27 C28 C29 C29 -178(6) . . . 3_766
C27 C28 C29 N5 0.0 . . . .
C28 C29 N5 C30 0.0 . . . .
C29 C29 N5 C30 178(6) 3_766 . . .
C29 N5 C30 C26 0.0 . . . .
C30 C26 C27 C28 0.0 . . . .
C31 C32 C33 C34 -178(3) . . . .
C31 C32 C36 N6 178(3) . . . .
C32 C31 O00C Eu01 -33(13) . . . 4_576
C32 C31 O00C Eu02 -167(4) . . . .
C32 C31 O00D Eu02 164(3) . . . .
C32 C33 C34 C35 0.0 . . . .
C32 C33 C34 Cu3 -154(4) . . . 3_666
C33 C32 C36 N6 0.0 . . . .
C33 C34 C35 C35 -174(6) . . . 3_666
C33 C34 C35 N6 0.0 . . . .
C33 C34 C35 Cu3 35(6) . . . .
C33 C34 C35 Cu3 -164(2) . . . 3_666
C34 C35 N6 C36 0.0 . . . .
C34 C35 N6 Cu3 169.1(19) . . . .
C35 C35 N6 C36 174(5) 3_666 . . .
C35 C35 N6 Cu3 -17(4) 3_666 . . .
C35 N6 C36 C32 0.0 . . . .
C35 N6 Cu3 C34 21(3) . . . 3_666
C35 N6 Cu3 C35 9(2) . . . 3_666
C35 N6 Cu3 NC34 21(3) . . . 3_666
C36 C32 C33 C34 0.0 . . . .
C36 N6 Cu3 C34 -175(5) . . . 3_666
C36 N6 Cu3 C35 173(4) . . . 3_666
C36 N6 Cu3 C35 164(3) . . . .
C36 N6 Cu3 NC34 -175(5) . . . 3_666
O005 C13 C14 C15 -165(3) . . . .
O005 C13 C14 C18 13(6) . . . .
O005 C13 O008 Eu01 -83(5) . . . .
O006 C24 O00E Eu01 16(4) . . . .
O006 C24 O00E Eu02 152(7) . . . 4_575
O007 C25 C26 C27 -170(3) . . . .
O007 C25 C26 C30 16(5) . . . .
O008 C13 C14 C15 9(5) . . . .
O008 C13 C14 C18 -173(3) . . . .
O008 C13 O005 Eu02 -3(7) . . . .
O009 C25 C26 C27 3(5) 4_576 . . .
O009 C25 C26 C30 -170(3) 4_576 . . .
O009 C25 O007 Eu02 48(7) 4_576 . . .
O00B C12 C10 C9 17(6) . . . .
O00B C12 C10 C11 -165(3) . . . .
O00B C12 O00F Eu02 4(8) . . . .
O00C C31 C32 C33 -17(5) . . . .
O00C C31 C32 C36 165(3) . . . .
O00C C31 O00D Eu02 -15(5) . . . .
O00D C31 C32 C33 164(4) . . . .
O00D C31 C32 C36 -15(5) . . . .
O00D C31 O00C Eu01 146(9) . . . 4_576
O00D C31 O00C Eu02 13(4) . . . .
O00E C24 O006 Eu01 -18(5) . . . .
O00F C12 C10 C9 -171(3) . . . .
O00F C12 C10 C11 7(6) . . . .
O00F C12 O00B Eu01 -34(6) . . . 4_576
Eu01 C24 O00E Eu02 136(9) . . . 4_575
Eu02 C31 C32 C33 -136(8) . . . .
Eu02 C31 C32 C36 46(10) . . . .
Eu02 C31 O00C Eu01 134(11) . . . 4_576
Cu1 N1 C4 C5 175(3) . . . .
Cu1 N1 C4 C7 -24(4) . . . 1_545
Cu2 N3 C16 C17 -158(2) 4_575 . . .
Cu2 N3 C16 C19 29(3) 4_575 . . .
Cu2 N4 C21 C20 -165(3) 4_575 . . .
Cu2 C28 C29 C29 20(5) . . . 3_766
Cu2 C28 C29 N5 -162(3) . . . .
Cu3 C34 C35 C35 -10(4) 3_666 . . 3_666
Cu3 C34 C35 N6 164(2) 3_666 . . .
Cu3 C34 C35 Cu3 -161(6) 3_666 . . .
Cu3 C35 N6 C36 -169.1(19) . . . .
Cu3 C35 N6 C36 42(5) 3_666 . . .
Cu3 C35 N6 Cu3 -149(5) 3_666 . . .
Cu3 N6 C36 C32 -162(3) . . . .
