#------------------------------------------------------------------------------
#$Date: 2015-12-03 15:08:33 +0200 (Thu, 03 Dec 2015) $
#$Revision: 170687 $
#$URL: svn://www.crystallography.net/cod/cif/7/11/80/7118091.cif $
#------------------------------------------------------------------------------
#
# This file is available in the Crystallography Open Database (COD),
# http://www.crystallography.net/
#
# All data on this site have been placed in the public domain by the
# contributors.
#
data_7118091
loop_
_publ_author_name
'Xinping Lin'
'Yahui Hong'
'Chao Zhang'
'Ruiyun Huang'
'Cheng Wang'
'Wenbin Lin'
_publ_section_title
;
 Pre-concentration and energy transfer enable the efficient luminescence
 sensing of transition metal ions by metal-organic frameworks
;
_journal_name_full               Chem.Commun.
_journal_page_first              16996
_journal_paper_doi               10.1039/C5cc06453H
_journal_volume                  51
_journal_year                    2015
_chemical_formula_moiety         'C36 Eu2 N6 O15, 2(O1)'
_chemical_formula_sum            'C36 Eu2 N6 O17'
_chemical_formula_weight         1092.34
_chemical_name_systematic        Eu-bpydc
_space_group_crystal_system      monoclinic
_space_group_IT_number           14
_space_group_name_Hall           '-P 2ybc'
_space_group_name_H-M_alt        'P 1 21/c 1'
_symmetry_space_group_name_Hall  '-P 2ybc'
_symmetry_space_group_name_H-M   'P 1 21/c 1'
_atom_sites_solution_hydrogens   .
_atom_sites_solution_primary     direct
_audit_creation_date             2015-07-31
_audit_creation_method
;
Olex2 1.2
(compiled 2015.01.26 svn.r3150 for OlexSys, GUI svn.r4998)
;
_audit_update_record
;
2015-07-31 deposited with the CCDC.
2015-09-30 downloaded from the CCDC.
;
_cell_angle_alpha                90
_cell_angle_beta                 98.014(7)
_cell_angle_gamma                90
_cell_formula_units_Z            4
_cell_length_a                   26.238(2)
_cell_length_b                   14.1876(15)
_cell_length_c                   16.8586(11)
_cell_measurement_temperature    100
_cell_volume                     6214.4(9)
_computing_molecular_graphics    'Olex2 (Dolomanov et al., 2009)'
_computing_publication_material  'Olex2 (Dolomanov et al., 2009)'
_computing_structure_refinement  'ShelXL (Sheldrick, 2008)'
_computing_structure_solution    'ShelXT (Sheldrick, 2015)'
_diffrn_ambient_temperature      100
_diffrn_measured_fraction_theta_full 0.995
_diffrn_measured_fraction_theta_max 0.995
_diffrn_measurement_device_type  'Agilent micro-focus'
_diffrn_radiation_type           MoK\a
_diffrn_radiation_wavelength     0.71073
_diffrn_reflns_av_R_equivalents  0.0843
_diffrn_reflns_av_unetI/netI     0.1336
_diffrn_reflns_laue_measured_fraction_full 0.995
_diffrn_reflns_laue_measured_fraction_max 0.995
_diffrn_reflns_limit_h_max       21
_diffrn_reflns_limit_h_min       -31
_diffrn_reflns_limit_k_max       15
_diffrn_reflns_limit_k_min       -16
_diffrn_reflns_limit_l_max       19
_diffrn_reflns_limit_l_min       -20
_diffrn_reflns_number            25407
_diffrn_reflns_point_group_measured_fraction_full 0.995
_diffrn_reflns_point_group_measured_fraction_max 0.995
_diffrn_reflns_theta_full        25.000
_diffrn_reflns_theta_max         25.000
_diffrn_reflns_theta_min         3.398
_exptl_absorpt_coefficient_mu    2.052
_exptl_absorpt_correction_T_max  0.8210
_exptl_absorpt_correction_T_min  0.4939
_exptl_absorpt_correction_type   empirical
_exptl_crystal_colour            'clear light colourless'
_exptl_crystal_colour_lustre     clear
_exptl_crystal_colour_modifier   light
_exptl_crystal_colour_primary    colourless
_exptl_crystal_density_diffrn    1.168
_exptl_crystal_description       needle
_exptl_crystal_F_000             2080
_exptl_crystal_size_max          0.4
_exptl_crystal_size_mid          0.1
_exptl_crystal_size_min          0.1
_refine_diff_density_max         1.708
_refine_diff_density_min         -1.436
_refine_diff_density_rms         0.207
_refine_ls_extinction_coef       .
_refine_ls_extinction_method     none
_refine_ls_goodness_of_fit_ref   1.060
_refine_ls_hydrogen_treatment    undef
_refine_ls_matrix_type           full
_refine_ls_number_parameters     550
_refine_ls_number_reflns         10883
_refine_ls_number_restraints     0
_refine_ls_restrained_S_all      1.060
_refine_ls_R_factor_all          0.1507
_refine_ls_R_factor_gt           0.0870
_refine_ls_shift/su_max          0.001
_refine_ls_shift/su_mean         0.000
_refine_ls_structure_factor_coef Fsqd
_refine_ls_weighting_details
'w=1/[\s^2^(Fo^2^)+(0.1161P)^2^+51.3532P] where P=(Fo^2^+2Fc^2^)/3'
_refine_ls_weighting_scheme      calc
_refine_ls_wR_factor_gt          0.2294
_refine_ls_wR_factor_ref         0.2762
_reflns_Friedel_coverage         0.000
_reflns_friedel_fraction_full    .
_reflns_friedel_fraction_max     .
_reflns_number_gt                6271
_reflns_number_total             10883
_reflns_threshold_expression     'I > 2\s(I)'
_cod_data_source_file            c5cc06453h21.cif
_cod_data_source_block           p
_cod_original_cell_volume        6214.3(9)
_cod_database_code               7118091
_shelx_space_group_comment
;
The symmetry employed for this shelxl refinement is uniquely defined
by the following loop, which should always be used as a source of
symmetry information in preference to the above space-group names.
They are only intended as comments.
;
_shelx_estimated_absorpt_t_max   0.821
_shelx_estimated_absorpt_t_min   0.494
_olex2_refinement_description
;
1. Others
 Sof(C5B)=1-FVAR(1)
 Sof(C5A)=FVAR(1)
 Sof(C6B)=1-FVAR(2)
 Sof(C6A)=FVAR(2)
 Sof(C17B)=1-FVAR(3)
 Sof(C17A)=FVAR(3)
 Sof(C18B)=1-FVAR(4)
 Sof(C18A)=FVAR(4)
 Sof(C22B)=1-FVAR(5)
 Sof(C22A)=FVAR(5)
 Sof(C23B)=1-FVAR(6)
 Sof(C23A)=FVAR(6)
 Sof(C34B)=1-FVAR(7)
 Sof(C34A)=FVAR(7)
 Sof(C35B)=1-FVAR(8)
 Sof(C35A)=FVAR(8)
 Sof(C36B)=1-FVAR(9)
 Sof(C36A)=FVAR(9)
 Sof(N1B)=1-FVAR(10)
 Sof(N1A)=FVAR(10)
 Sof(N2B)=1-FVAR(11)
 Sof(N2A)=FVAR(11)
 Sof(N6B)=1-FVAR(12)
 Sof(N6A)=FVAR(12)
 Sof(C33B)=1-FVAR(13)
 Sof(C33A)=FVAR(13)
 Sof(C8B)=1-FVAR(14)
 Sof(C8A)=FVAR(14)
 Sof(C3B)=1-FVAR(15)
 Sof(C3A)=FVAR(15)
 Sof(O10B)=1-FVAR(16)
 Sof(O10A)=FVAR(16)
 Sof(C32B)=1-FVAR(17)
 Sof(C32A)=FVAR(17)
 Sof(O10)=1-FVAR(18)
 Sof(O13)=FVAR(18)
 Sof(O16B)=1-FVAR(19)
 Sof(O16A)=FVAR(19)
;
_shelx_res_file
;
    p.res created by SHELXL-2014/7

TITL Eu-bpydc in P2(1)/c
CELL 0.71073 26.2376 14.1876 16.8586 90 98.014 90
ZERR 4 0.0021 0.0015 0.0011 0 0.007 0
LATT 1
SYMM -X,0.5+Y,0.5-Z
SFAC C Eu N O
UNIT 144 8 24 68

L.S. 20
PLAN  50
SIZE 0.4 0.1 0.1
TEMP -173.15
BOND
MORE -1
CONF
BOND $H
fmap 2
acta 52
OMIT -3 50
REM <olex2.extras>
REM <HklSrc "%.\\P.hkl">
REM </olex2.extras>

WGHT    0.116100   51.353195
FVAR       0.10886   0.53827   0.57604   0.54057   0.39611   0.51570   0.59472
FVAR       0.37621   0.44152   0.25003   0.53923   0.55819   0.67816   0.48463
FVAR       0.54932   0.40992   0.51397   0.31067   0.66490   0.43876
C1    1    0.338917    0.383940    0.192421    11.00000    0.03445    0.05747 =
         0.03398   -0.00763    0.00779   -0.00250
C2    1    0.393183    0.413086    0.181406    11.00000    0.02473    0.10252 =
         0.03651    0.00528    0.00798   -0.01661
PART 2
C3B   1    0.413131    0.381090    0.117909  -161.00000    0.04637
PART 0
C4    1    0.489239    0.473361    0.165623    11.00000    0.03332    0.11319 =
         0.03590   -0.01024    0.01202   -0.02066
PART 2
C5B   1    0.478466    0.459165    0.233754   -21.00000    0.03027
C6B   1    0.432471    0.427722    0.241491   -31.00000    0.05261
PART 0
C7    1    0.460338    0.016874    0.343148    11.00000    0.02785    0.12462 =
         0.04275    0.01121    0.00986    0.01800
PART 2
C8B   1    0.434408   -0.030482    0.395864  -151.00000    0.01369
PART 0
C9    1    0.393162    0.029077    0.415495    11.00000    0.02992    0.11646 =
         0.07710    0.03929    0.02912    0.03749
C10   1    0.369483    0.097954    0.366653    11.00000    0.02404    0.10816 =
         0.02705    0.00360    0.00500    0.00847
C11   1    0.393875    0.127385    0.303465    11.00000    0.03811    0.16036 =
         0.04902    0.02847    0.01990    0.05016
C12   1    0.321085    0.147348    0.384590    11.00000    0.02743    0.07113 =
         0.04439    0.00193    0.00528   -0.00013
C13   1    0.170928    0.186484    0.342145    11.00000    0.03288    0.05385 =
         0.03978   -0.00593    0.01806   -0.01593
C14   1    0.123947    0.129915    0.340082    11.00000    0.02764    0.09409 =
         0.04837   -0.01729    0.00906   -0.03055
C15   1    0.114458    0.078880    0.408227    11.00000    0.02880    0.10006 =
         0.04604    0.00521    0.01549   -0.02445
C16   1    0.034680    0.028479    0.336185    11.00000    0.04002    0.13871 =
         0.02343   -0.00027    0.00275   -0.03806
PART 2
C17B  1    0.052177    0.044713    0.266365   -41.00000    0.02554
C18B  1    0.093167    0.102798    0.269588   -51.00000    0.05216
PART 0
C19   1    0.015173    0.017639    0.662712    11.00000    0.03585    0.12990 =
         0.03097    0.00551    0.00866   -0.04116
C20   1    0.069886    0.113332    0.597422    11.00000    0.03234    0.08655 =
         0.05598   -0.00323    0.01574   -0.02039
C21   1    0.109980    0.095634    0.655475    11.00000    0.02358    0.07243 =
         0.05080   -0.01356    0.01295   -0.01295
PART 2
C22B  1    0.105523    0.015679    0.716200   -61.00000    0.05112
C23B  1    0.057285   -0.020367    0.716559   -71.00000    0.01864
PART 0
C24   1    0.163854    0.125428    0.648099    11.00000    0.02663    0.07281 =
         0.02815   -0.00599    0.01228   -0.00487
C25   1    0.174225    0.387629    0.457821    11.00000    0.03211    0.05923 =
         0.04843   -0.00640    0.01985   -0.01225
C26   1    0.123091    0.421993    0.474194    11.00000    0.04135    0.07349 =
         0.03605   -0.00008    0.01166    0.01091
C27   1    0.099937    0.385514    0.536318    11.00000    0.02538    0.08628 =
         0.05589    0.00814    0.00997    0.00547
C28   1    0.026249    0.482351    0.496427    11.00000    0.03474    0.08321 =
         0.04037    0.00294    0.00699    0.01319
C29   1    0.049120    0.521031    0.436297    11.00000    0.03792    0.08571 =
         0.03561    0.00812    0.01707    0.02070
C30   1    0.096109    0.488825    0.426705    11.00000    0.06901    0.09417 =
         0.04952    0.01562    0.03239    0.03549
C31   1    0.331690    0.341452    0.502537    11.00000    0.03229    0.11061 =
         0.04138   -0.00576    0.01116   -0.03486
PART 2
C32B  1    0.385387    0.374716    0.506916  -181.00000    0.04182
C33B  1    0.401030    0.415809    0.435771  -141.00000    0.04499
C34B  1    0.477954    0.461835    0.503199   -81.00000    0.04581
C35B  1    0.468658    0.417993    0.570092   -91.00000    0.02842
C36B  1    0.420223    0.378103    0.575982  -101.00000    0.05236
PART 0
O1    4    0.306995    0.121061    0.630950    11.00000    0.01834    0.13749 =
         0.04624    0.01075    0.01234    0.00652
O2    4    0.327439    0.375265    0.260412    11.00000    0.03794    0.11817 =
         0.03513    0.01330    0.00594   -0.03330
O3    4    0.248949    0.282152    0.672465    11.00000    0.03169    0.11350 =
         0.03880   -0.00918    0.00872   -0.00937
O4    4    0.296366    0.193920    0.328391    11.00000    0.02515    0.09231 =
         0.04087   -0.00209    0.01092    0.01401
O5    4    0.300773    0.342819    0.440736    11.00000    0.02428    0.09710 =
         0.04465   -0.01591    0.00110   -0.02239
O6    4    0.178809    0.227809    0.278826    11.00000    0.01241    0.06540 =
         0.04263   -0.00472    0.00743   -0.01005
O7    4    0.186549    0.400336    0.389236    11.00000    0.03970    0.05140 =
         0.04675    0.00168    0.00855   -0.01118
O8    4    0.198815    0.398407    0.202512    11.00000    0.02560    0.04907 =
         0.04080    0.00484    0.01062    0.00670
O9    4    0.263473    0.504888    0.327094    11.00000    0.08018    0.08077 =
         0.09186    0.00031    0.00444   -0.03014
PART 2
O10B  4    0.308588    0.121773    0.451789  -171.00000    0.01971
PART 0
O11   4    0.228900    0.034688    0.522987    11.00000    0.05196    0.10246 =
         0.06001    0.00653    0.01150   -0.00782
O12   4    0.169098    0.173563    0.587281    11.00000    0.02643    0.07471 =
         0.03940   -0.00099    0.00948   -0.00907
O0AA  4    0.202077    0.346100    0.516187    11.00000    0.03183    0.06592 =
         0.03676   -0.00957    0.00849   -0.00132
O14   4    0.201462    0.198148    0.406837    11.00000    0.01594    0.08407 =
         0.03309   -0.00439   -0.00063   -0.00505

PART 2
O10   4    0.294950    0.457916    0.680535  -191.00000    0.05392

O16B  4    0.342479    0.627202    0.282163  -201.00000    0.20424
PART 0
O17   4    0.322649    0.301540    0.565519    11.00000    0.02408    0.13933 =
         0.04322   -0.00686    0.00471   -0.02694
PART 2
N1B   3    0.463580    0.407483    0.109939  -111.00000    0.05539
N2B   3    0.434117    0.055197    0.285952  -121.00000    0.06944
PART 0
N3    3    0.069747    0.027799    0.405170    11.00000    0.03617    0.13458 =
         0.06857    0.01224    0.00934   -0.01938
N4    3    0.021888    0.074160    0.600503    11.00000    0.03143    0.11129 =
         0.05619    0.00382    0.00914   -0.02151
N5    3    0.051262    0.415842    0.549359    11.00000    0.05818    0.12101 =
         0.06462    0.02221    0.01286    0.02198
PART 2
N6B   3    0.447107    0.440491    0.432854  -131.00000    0.02975
PART 0
EU1   2    0.250304    0.336835    0.313515    11.00000    0.01755    0.07727 =
         0.03924    0.00916    0.00400   -0.01124
EU2   2    0.249309    0.201457    0.536795    11.00000    0.01452    0.09196 =
         0.03117    0.00556    0.00672   -0.00176
PART 1
C5A   1    0.466488    0.507603    0.232205    21.00000    0.02091
C6A   1    0.419753    0.477246    0.239273    31.00000    0.04139
C17A  1    0.040049    0.090167    0.272786    41.00000    0.02744
C18A  1    0.083648    0.148238    0.273874    51.00000    0.03285
C22A  1    0.095756    0.058420    0.725426    61.00000    0.03885
C23A  1    0.047113    0.024160    0.728795    71.00000    0.04231
C34A  1    0.466513    0.509059    0.503830    81.00000    0.02955
C35A  1    0.457342    0.471047    0.573333    91.00000    0.05239
C36A  1    0.412251    0.424856    0.569785   101.00000    0.02728
N1A   3    0.457710    0.448484    0.096157   111.00000    0.06101
N2A   3    0.442257    0.100718    0.293344   121.00000    0.05685
N6A   3    0.435575    0.493280    0.436819   131.00000    0.05409
C33A  1    0.387979    0.458314    0.439283   141.00000    0.03516
C8A   1    0.440702    0.006534    0.412314   151.00000    0.03363
C3A   1    0.405760    0.418336    0.100115   161.00000    0.02868
O10A  4    0.311696    0.157881    0.456239   171.00000    0.03940
C32A  1    0.377934    0.421007    0.503102   181.00000    0.01799

O13   4    0.330463    0.563131    0.645496   191.00000    0.35840
O16A  4    0.397117    0.714161    0.305160   201.00000    0.24714
HKLF 4

REM  Eu-bpydc in P2(1)/c
REM R1 =  0.0870 for    6271 Fo > 4sig(Fo)  and  0.1507 for all   10883 data
REM    550 parameters refined using      0 restraints

END

WGHT      0.1143     54.4377

REM Highest difference peak  1.708,  deepest hole -1.436,  1-sigma level  0.207
Q1    1   0.2490  0.2567  0.6051  11.00000  0.05    1.71
Q2    1   0.2513 -0.0353  0.5413  11.00000  0.05    1.54
Q3    1   0.1228  0.6670  0.5759  11.00000  0.05    1.47
Q4    1   0.2907  0.4921  0.6220  11.00000  0.05    1.45
Q5    1   0.0936  0.6549  0.6059  11.00000  0.05    1.36
Q6    1   0.2376 -0.1156  0.5673  11.00000  0.05    1.34
Q7    1  -0.0492  0.2990  0.3889  11.00000  0.05    1.31
Q8    1   0.2005 -0.1164  0.5941  11.00000  0.05    1.23
Q9    1   0.1897  0.6526  0.3514  11.00000  0.05    1.17
Q10   1   0.3997  0.6650  0.0664  11.00000  0.05    1.05
Q11   1   0.3173  0.5703  0.5935  11.00000  0.05    1.04
Q12   1  -0.0088  0.1639  0.8416  11.00000  0.05    1.03
Q13   1   0.0020  0.1743  0.8409  11.00000  0.05    1.02
Q14   1   0.2515  0.3065  0.3161  11.00000  0.05    1.01
Q15   1   0.3298  0.5987  0.5297  11.00000  0.05    0.99
Q16   1   0.4151  0.6680  0.0743  11.00000  0.05    0.98
Q17   1   0.2255  0.5321  0.8234  11.00000  0.05    0.93
Q18   1   0.1881  0.6709  0.4089  11.00000  0.05    0.92
Q19   1   0.5383  0.2289  0.3815  11.00000  0.05    0.91
Q20   1   0.2392  0.5594  0.3375  11.00000  0.05    0.90
Q21   1   0.1738  0.6624  0.3959  11.00000  0.05    0.90
Q22   1  -0.0322  0.2071  0.4421  11.00000  0.05    0.87
Q23   1   0.3228  0.6196  0.2516  11.00000  0.05    0.86
Q24   1   0.2399  0.4204  0.2590  11.00000  0.05    0.84
Q25   1   0.5013  0.2567  0.4390  11.00000  0.05    0.82
Q26   1   0.3291  0.6403  0.3201  11.00000  0.05    0.82
Q27   1   0.2505 -0.0459  0.3572  11.00000  0.05    0.82
Q28   1   0.2763  0.5601  0.3039  11.00000  0.05    0.82
Q29   1   0.2567  0.3899  0.3815  11.00000  0.05    0.82
Q30   1   0.1707  0.3461  0.3804  11.00000  0.05    0.82
Q31   1   0.2446  0.3604  0.3322  11.00000  0.05    0.79
Q32   1   0.4233  0.5426  0.4327  11.00000  0.05    0.78
Q33   1   0.2973 -0.1650  0.4313  11.00000  0.05    0.77
Q34   1   0.2366  0.1977  0.4918  11.00000  0.05    0.77
Q35   1   0.2512  0.1796  0.5398  11.00000  0.05    0.74
Q36   1   0.1276  0.7146  0.3602  11.00000  0.05    0.74
Q37   1   0.4288  0.7316  0.3801  11.00000  0.05    0.74
Q38   1   0.2842 -0.1228  0.3527  11.00000  0.05    0.73
Q39   1   0.2666  0.5664  0.5330  11.00000  0.05    0.72
Q40   1   0.2114 -0.0172  0.5111  11.00000  0.05    0.72
Q41   1   0.0328  0.4653  0.4179  11.00000  0.05    0.71
Q42   1   0.2318  0.3359  0.2711  11.00000  0.05    0.71
Q43   1   0.3982  0.7335  0.4022  11.00000  0.05    0.71
Q44   1   0.0975 -0.2360  0.8393  11.00000  0.05    0.70
Q45   1   0.4437 -0.0410  0.4261  11.00000  0.05    0.70
Q46   1   0.1497 -0.1112  0.5349  11.00000  0.05    0.70
Q47   1   0.2510  0.5972  0.8078  11.00000  0.05    0.70
Q48   1   0.2455  0.2840  0.2423  11.00000  0.05    0.69
Q49   1   0.0923 -0.2185  0.8245  11.00000  0.05    0.69
Q50   1   0.0611 -0.2389  0.8262  11.00000  0.05    0.69
;
_shelx_res_checksum              26889
_shelx_hkl_file
;
  -5   0   0   23.78    6.29
  -6   0   0 2663.69   58.39
  -7   0   0  119.36   15.79
  -8   0   0  391.51   26.74
  -9   0   0   12.41    6.74
 -10   0   0  968.34   45.83
 -11   0   0   28.04   10.06
 -12   0   0 1302.83   58.31
 -13   0   0   63.98   16.30
 -14   0   0 3733.04  107.02
 -15   0   0   55.06   16.17
 -16   0   0 1788.37   80.10
 -17   0   0   23.33   11.11
 -18   0   0 1050.79   65.28
 -19   0   0   38.04   15.55
 -20   0   0  893.37   63.73
 -21   0   0   31.05   13.53
 -22   0   0 1053.31   73.26
 -23   0   0    8.37    8.61
 -24   0   0  776.16   66.25
 -25   0   0   35.08   16.29
 -26   0   0  521.86   56.57
 -27   0   0   37.76   18.09
 -28   0   0  437.24   54.05
 -29   0   0   19.19   13.97
 -30   0   0  256.36   43.15
 -31   0   0   -2.37   11.09
  -4  -1   0    5.05    3.36
  -5  -1   0  986.33   33.18
  -6  -1   0   -2.49    3.88
  -7  -1   0  701.93   33.35
  -7   1   0  707.94   31.80
  -8  -1   0    2.57    5.03
  -8   1   0   -3.64    5.45
  -9   1   0  539.82   31.58
  -9  -1   0  562.85   33.32
 -10   1   0   -0.38    3.72
 -10  -1   0    3.78    5.83
 -11  -1   0  864.17   46.16
 -11   1   0  857.43   44.31
 -12  -1   0   11.31    7.58
 -12   1   0    0.23    6.18
 -13  -1   0 2124.63   77.67
 -13   1   0 2069.10   75.27
 -14  -1   0    1.95    6.45
 -14   1   0    0.42    4.58
 -15  -1   0 1625.20   74.28
 -15   1   0 1689.16   74.15
  16   1   0   -0.02    5.48
 -16   1   0    8.56    8.80
 -16  -1   0   10.41    7.90
  17   1   0 1125.09   63.69
 -17   1   0 1076.70   64.20
 -17  -1   0 1092.95   65.18
 -18  -1   0   13.56    8.41
  18   1   0    0.16    4.46
 -18   1   0   11.34   10.17
  19   1   0  795.30   56.72
 -19   1   0  736.86   56.34
 -19  -1   0  712.48   55.39
 -20   1   0    4.29    7.74
 -20  -1   0    7.36    8.73
 -21  -1   0  649.01   56.33
 -21   1   0  739.55   59.53
 -22   1   0   15.64   13.29
 -22  -1   0   22.75   14.39
 -23  -1   0  666.04   59.69
 -23   1   0  671.50   60.18
 -24  -1   0   26.47   15.88
 -24   1   0   17.88   12.82
 -25  -1   0  560.15   57.82
 -25   1   0  562.78   58.66
 -26   1   0   20.57   14.00
 -26  -1   0   -2.27    6.56
 -27   1   0  377.70   49.91
 -27  -1   0  391.02   50.91
 -28  -1   0   29.38   17.77
 -28   1   0   36.83   16.19
 -29   1   0  249.64   41.58
 -29  -1   0  189.32   37.17
 -30   1   0    3.10    7.25
 -30  -1   0   15.47   15.21
 -31   1   0  164.94   35.22
 -31  -1   0  206.50   40.69
  -3  -2   0    8.45    3.38
   3  -2   0    7.10    2.02
   4  -2   0  348.36   12.72
  -4  -2   0  356.62   19.68
  -5  -2   0    7.77    5.27
  -6  -2   0  119.28   14.19
  -7  -2   0    1.68    3.71
  -8  -2   0  391.25   27.15
  -9  -2   0    9.55   13.86
 -10  -2   0  354.08   28.63
 -11  -2   0   -2.35    4.65
 -11   2   0   -5.51    7.37
 -12  -2   0 1189.72   56.67
 -12   2   0 1217.29   55.74
 -13   2   0    7.40    4.69
 -13  -2   0    5.12    5.65
 -14  -2   0  546.71   41.85
 -14   2   0  510.38   39.83
 -15   2   0   -2.12    4.49
 -15  -2   0   -1.42    6.96
 -16   2   0  612.05   46.20
 -16  -2   0  652.85   49.08
  16   2   0  587.41   46.07
 -17   2   0   -1.49    6.09
 -17  -2   0    5.27    4.80
  17   2   0    1.08    5.07
 -18  -2   0  480.14   44.58
 -18   2   0  497.41   44.65
  18   2   0  446.76   42.34
 -19   2   0    1.40    6.30
 -19  -2   0    0.73    5.88
  19   2   0    6.41    7.78
 -20  -2   0  344.08   40.19
  20   2   0  355.71   39.93
 -20   2   0  369.41   41.10
 -21  -2   0    1.57    6.99
  21   2   0    8.58    7.84
 -21   2   0    1.16    6.63
 -22  -2   0  288.61   38.63
 -22   2   0  296.77   39.11
 -23   2   0   13.59   13.22
 -23  -2   0    2.58    7.70
 -24  -2   0  335.80   43.48
 -24   2   0  362.13   45.70
 -25   2   0    9.30   11.85
 -25  -2   0   17.42   11.25
 -26   2   0  261.84   40.46
 -26  -2   0  167.57   31.75
 -27  -2   0   -4.51    6.09
 -27   2   0   -3.59   11.81
 -28  -2   0  136.18   29.64
 -28   2   0  156.19   32.30
 -29   2   0    3.07    8.80
 -29  -2   0   -3.69    9.96
 -30   2   0  136.70   30.58
 -30  -2   0  124.03   29.87
 -31   2   0   -5.05   11.44
 -31  -2   0    8.67    8.34
   0  -3   0    2.51    1.86
  -1  -3   0   71.47    7.16
   1  -3   0   81.62    6.40
   2  -3   0   -0.29    1.58
  -2  -3   0    4.56    3.52
  -3  -3   0 3854.03   60.79
   3  -3   0 3845.10   45.44
  -4  -3   0    4.27    4.17
   4  -3   0    2.82    2.23
   5  -3   0    7.78    2.52
  -5  -3   0    9.59    6.16
  -6  -3   0   -2.15    5.09
   6  -3   0    6.15    2.69
  -7  -3   0  211.49   19.59
  -8  -3   0    2.32    4.71
  -9  -3   0  206.82   21.49
 -10  -3   0   11.22    7.45
 -11  -3   0  711.70   43.06
 -11   3   0  710.37   28.18
 -12   3   0    0.55    1.90
 -12  -3   0    4.73    4.77
 -13   3   0   54.32    8.46
 -13  -3   0   46.81   12.64
 -14   3   0    1.17    2.00
 -14   3   0    0.31    5.30
 -14  -3   0    1.08    4.16
 -15  -3   0   63.79   15.90
 -15   3   0   61.14   14.82
 -15   3   0   44.01    8.53
 -16  -3   0   11.94    9.37
 -16   3   0   -1.68    4.95
 -16   3   0   -0.33    2.08
  16   3   0    9.89   10.02
 -17   3   0  103.13   20.17
  17   3   0  116.93   22.31
 -17  -3   0   75.32   17.85
 -17   3   0   96.94   13.06
 -18   3   0    6.13    4.78
 -18  -3   0   12.40   11.81
 -18   3   0    1.73    4.82
  18   3   0    1.33    5.37
 -19   3   0   65.54   17.72
 -19   3   0   68.47   11.77
 -19  -3   0   59.38   18.56
  19   3   0   66.10   17.31
 -20   3   0   -3.76    2.36
 -20  -3   0   10.94   11.68
  20   3   0    2.94    8.05
 -20   3   0   11.30    7.20
 -21   3   0   52.02   16.88
 -21  -3   0   35.25   14.93
 -22   3   0   -3.33    8.45
 -22  -3   0    9.45    8.07
 -23   3   0   60.35   19.71
 -23  -3   0   46.60   17.55
 -24  -3   0    4.02    6.22
 -24   3   0    1.17    8.36
 -25  -3   0   90.88   23.51
 -25   3   0   70.22   20.62
 -26  -3   0    1.75    6.33
 -26   3   0   16.06   12.56
 -27  -3   0   61.08   20.56
 -27   3   0   61.61   21.48
 -28  -3   0    6.14   12.92
 -28   3   0   15.81   11.08
 -29  -3   0   47.94   20.25
 -29   3   0   66.91   23.79
 -30   3   0   -0.07    8.35
 -30  -3   0    5.43    9.12
 -31  -3   0   45.54   19.28
 -31   3   0   36.02   18.70
   0  -4   0  356.00   15.84
   0   4   0  370.15   17.24
   1  -4   0    1.65    2.31
  -1  -4   0   -1.50    2.49
  -1   4   0    4.02    2.13
   1   4   0   -2.39    2.66
  -2   4   0  898.99   25.12
   2  -4   0  905.08   24.37
   2   4   0  878.84   30.72
  -2  -4   0  894.85   28.62
  -3  -4   0   25.18    4.90
  -3   4   0   29.02    4.85
   3  -4   0   24.08    4.37
   4  -4   0  475.20   18.39
  -4  -4   0  523.07   26.00
  -4   4   0  494.22   19.59
  -5   4   0    3.07    2.46
  -5  -4   0    1.59    4.14
  -5  -4   0    9.31    6.23
   5  -4   0   -0.19    2.02
   6  -4   0  105.55    9.29
  -6   4   0   97.50    9.32
  -6  -4   0  101.08   13.37
   7  -4   0   12.54    3.81
  -7   4   0    8.84    3.50
  -7  -4   0    6.98    5.56
  -8   4   0   17.58    4.57
  -8  -4   0   15.81    6.72
  -9  -4   0   25.15    9.37
  -9   4   0   18.50    4.74
 -10  -4   0  120.59   17.57
 -10   4   0  128.20   12.22
 -11  -4   0   15.97    7.49
 -11   4   0   19.31    5.49
 -12  -4   0   36.32   11.22
 -12   4   0   40.13    7.76
 -13  -4   0    1.23    5.46
 -13   4   0    0.99    1.78
 -14  -4   0   36.02   12.58
 -14   4   0   31.47    7.05
 -15  -4   0    3.11    4.87
 -15   4   0    4.69    3.16
 -16  -4   0   45.72   13.60
 -16   4   0   39.33    8.73
  16   4   0   33.27   12.17
 -17   4   0    5.95    6.08
 -17  -4   0   -3.66    6.02
 -17   4   0    6.27    4.41
  17   4   0   -2.43    5.95
  18   4   0   20.77   10.92
 -18   4   0   19.25   11.43
 -18   4   0   12.51    5.80
 -18  -4   0    1.82    5.27
 -19   4   0    3.30    4.91
 -19   4   0    2.12    3.12
 -19  -4   0   -1.03    6.75
  19   4   0   -3.25    5.37
 -20   4   0   22.74    7.73
 -20   4   0    6.30    6.05
 -20  -4   0    7.52    7.98
 -21   4   0    2.21    5.71
 -21  -4   0    1.40    6.40
 -22  -4   0   18.23   12.58
 -22   4   0   10.78    9.82
 -23   4   0   -6.10    8.66
 -23  -4   0    1.64   10.74
 -24  -4   0   27.75   14.01
 -24   4   0    7.65    6.36
 -25   4   0   -5.23   10.48
 -25  -4   0   18.45   12.93
 -26   4   0   11.97    8.72
 -26  -4   0    3.79    7.45
 -27   4   0    4.10    7.12
 -27  -4   0   13.74    9.90
 -28  -4   0  -15.22   13.48
 -28   4   0   -3.31    6.55
 -29   4   0   -2.43    7.03
 -29  -4   0    6.13    7.22
 -30  -4   0  -19.71   13.53
 -30   4   0    6.04   13.32
 -31   4   0   -5.42   12.23
   0   5   0    2.19    2.88
   0  -5   0    4.96    3.51
  -1   5   0  486.43   21.72
   1   5   0  481.64   23.73
  -1  -5   0  490.03   21.29
   1  -5   0  496.03   19.99
  -2  -5   0   26.29    6.56
  -2   5   0   20.57    5.12
   2   5   0   27.67    7.20
   2  -5   0   25.98    5.49
  -3  -5   0  674.45   28.88
  -3   5   0  675.96   24.77
   3   5   0  657.18   30.66
   3  -5   0  678.29   23.36
   4  -5   0   40.55    6.12
  -4   5   0   49.51    7.05
  -4  -5   0   46.45    8.47
  -5   5   0   78.08    8.93
   5  -5   0   87.91    9.03
  -5  -5   0   78.35   11.51
  -6  -5   0   22.71    6.95
   6  -5   0   25.68    5.37
  -6   5   0   26.15    5.52
  -7   5   0   87.91   10.01
  -7  -5   0   94.14   13.39
  -7  -5   0  102.01   15.70
   7  -5   0   86.54    9.30
  -8   5   0    2.60    3.17
  -8  -5   0    7.63    6.26
   8  -5   0    1.51    2.89
  -9   5   0   21.81    5.73
  -9  -5   0   24.17    8.71
 -10  -5   0    1.44    3.78
 -10   5   0    5.19    2.90
 -11  -5   0  350.69   31.40
 -11   5   0  363.94   22.12
 -12   5   0    8.98    4.21
 -12  -5   0   -4.39    6.67
 -13  -5   0  166.97   23.24
 -13   5   0  176.59   16.42
 -14  -5   0    1.12    5.97
 -14   5   0   -7.90    3.97
 -15  -5   0  183.52   25.45
  15   5   0  184.94   28.40
 -15   5   0  193.23   18.24
 -16   5   0    5.61    4.42
  16   5   0    3.03   10.60
 -16  -5   0   14.68    8.97
 -17   5   0  151.25   17.42
  17   5   0  134.37   26.42
 -17  -5   0  137.29   24.09
 -18   5   0   11.63    5.24
  18   5   0    5.63    4.90
 -18  -5   0    6.39    7.54
 -19   5   0  120.38   23.61
 -19  -5   0  111.60   22.70
 -19   5   0  126.88   16.61
 -20  -5   0    2.73    7.33
 -20   5   0   13.28   10.88
 -21  -5   0   85.62   20.60
 -21   5   0   86.75   21.23
 -22   5   0    8.25    7.29
 -22  -5   0    1.32    5.82
 -23  -5   0  102.32   25.37
 -23   5   0  111.17   24.75
 -24  -5   0    8.96    9.03
 -24   5   0   -4.78   11.70
 -25   5   0   93.31   25.00
 -25  -5   0   93.65   25.28
 -26  -5   0   11.40   12.34
 -26   5   0   14.37   11.23
 -27   5   0   53.67   19.72
 -27  -5   0   35.36   16.18
 -28   5   0   22.86   14.45
 -28  -5   0   14.60   12.44
 -29   5   0   42.95   19.29
 -29  -5   0    5.74   10.26
 -30   5   0    6.26    9.35
 -31   5   0    6.44    8.06
   0   6   0  639.80   28.57
   0  -6   0  619.05   25.13
  -1  -6   0    8.76    4.41
   1  -6   0   14.01    4.84
   1   6   0    6.41    5.21
  -1   6   0    2.89    2.86
   2  -6   0  656.75   25.08
   2   6   0  656.11   31.86
  -2  -6   0  640.97   27.45
  -2   6   0  671.47   27.46
   3   6   0   23.94    7.56
  -3   6   0   27.88    5.86
  -3  -6   0   32.00    7.54
   3  -6   0   26.91    5.71
  -4  -6   0  657.40   31.26
   4  -6   0  675.63   25.64
  -4   6   0  650.51   26.78
  -5  -6   0   31.58    8.31
   5  -6   0   25.14    5.60
  -5   6   0   24.13    5.65
  -6   6   0  357.86   20.73
   6  -6   0  360.49   19.26
  -6  -6   0  353.23   25.78
  -7  -6   0   22.64    8.18
   7  -6   0   17.60    5.37
  -7   6   0   17.15    5.68
  -8  -6   0  185.29   20.24
  -8   6   0  158.95   14.30
   8  -6   0  180.99   14.27
   9  -6   0    8.95    4.64
  -9  -6   0   10.93    7.96
  -9  -6   0    3.96    5.20
  -9   6   0    4.53    3.79
 -10   6   0  322.50   21.42
 -10  -6   0  334.61   31.14
 -11   6   0    6.54    3.55
 -11  -6   0    5.86    5.34
 -12   6   0  355.13   23.80
 -12  -6   0  356.46   33.64
 -13  -6   0   15.41    9.97
 -13   6   0   12.02    4.88
  14   6   0  185.54   28.70
 -14  -6   0  185.82   26.15
 -14   6   0  195.88   18.56
  15   6   0   10.17    8.50
 -15  -6   0    9.47    7.11
 -15   6   0   11.03    5.15
  16   6   0  192.52   30.97
 -16  -6   0  177.20   26.94
 -16   6   0  175.17   18.60
  17   6   0   -3.05    8.78
 -17   6   0    2.36    2.42
 -17  -6   0    3.58    6.33
 -18   6   0  207.10   21.12
 -18  -6   0  169.51   27.59
 -19   6   0    2.66    3.28
 -19  -6   0   10.02    9.02
 -20   6   0  144.05   27.30
 -20  -6   0  158.01   28.68
 -21   6   0    1.06    5.65
 -21  -6   0  -11.49   10.35
 -22  -6   0  195.54   32.33
 -22   6   0  151.22   29.02
 -23  -6   0    1.01    5.71
 -23   6   0    6.52    7.27
 -24   6   0  141.64   30.07
 -24  -6   0  115.01   25.80
 -25   6   0   15.37   11.93
 -25  -6   0   -8.50   10.85
 -26   6   0  122.19   30.32
 -26  -6   0  109.22   27.02
 -27  -6   0   -5.13   11.67
 -27   6   0   -6.28   12.08
 -28  -6   0   82.10   24.13
 -28   6   0   79.36   23.99
 -29  -6   0   -5.56   10.43
 -29   6   0    8.71   11.72
 -30   6   0   39.00   16.33
   0   7   0   14.49    5.71
   0  -7   0   16.29    5.67
  -1   7   0  266.26   19.47
   1   7   0  234.11   20.05
   1  -7   0  251.68   17.06
  -1  -7   0  253.58   17.74
   2   7   0    5.59    4.53
   2  -7   0   17.81    5.69
  -2  -7   0   18.97    5.72
  -2   7   0   18.49    5.88
   3  -7   0  579.95   25.56
   3   7   0  533.14   32.14
  -3   7   0  563.34   27.37
  -3  -7   0  553.88   28.26
  -4   7   0   15.52    5.77
   4  -7   0   19.21    5.68
  -4  -7   0   22.96    7.40
  -5  -7   0  448.29   28.27
   5  -7   0  474.78   23.33
  -5   7   0  454.64   24.68
  -6   7   0   10.00    3.48
   6  -7   0    8.72    4.10
  -6  -7   0    5.50    3.76
  -7   7   0  195.25   16.57
   7  -7   0  187.45   15.00
  -7  -7   0  184.19   20.43
   8  -7   0   10.66    4.89
  -8   7   0   16.24    5.44
  -8  -7   0    3.79    3.96
  -9   7   0  336.26   22.52
   9  -7   0  359.35   21.59
  -9  -7   0  369.06   30.46
 -10   7   0   11.18    5.13
  10  -7   0   14.59    6.07
 -10  -7   0    5.18    7.00
 -11   7   0  207.01   18.56
 -11  -7   0  210.59   26.63
 -11  -7   0  182.23   22.96
 -12  -7   0    6.93    6.62
 -12   7   0    6.03    2.83
 -12  -7   0    3.50    4.86
  13   7   0  207.29   30.14
 -13  -7   0  197.37   26.92
 -13   7   0  212.33   19.56
  14   7   0   14.86   10.51
 -14   7   0    7.35    3.96
 -14  -7   0   28.31   12.42
 -15   7   0   90.99   13.64
  15   7   0   99.83   22.87
 -15  -7   0  116.69   21.88
  16   7   0    7.36    8.22
 -16  -7   0    3.82    4.79
 -16   7   0    5.99    3.97
 -17   7   0  140.48   17.66
 -17  -7   0  151.35   26.03
 -18  -7   0   13.00   10.24
 -18   7   0    5.70    3.70
 -19  -7   0  141.00   26.45
 -20  -7   0   10.56   10.25
 -21  -7   0  149.54   29.08
 -22  -7   0    9.99    7.92
 -22   7   0   11.04    9.74
 -23  -7   0  111.40   25.71
 -23   7   0  125.46   27.51
 -24  -7   0    0.84    6.99
 -24   7   0   24.69   12.03
 -25  -7   0   88.82   25.87
 -25   7   0  106.43   27.15
 -26  -7   0   -6.80   14.07
 -26   7   0   -6.81   10.02
 -27   7   0  111.60   28.32
 -27  -7   0   96.38   26.42
 -28   7   0    0.51    8.12
 -28  -7   0   -0.22    9.58
 -29   7   0   36.60   19.25
 -30   7   0  -28.16   16.31
   0   8   0   33.60    8.40
   0  -8   0   39.77    7.70
   1  -8   0   14.63    5.41
  -1   8   0    9.02    5.49
  -1  -8   0   16.43    5.59
   1   8   0   12.69    6.47
   2  -8   0  176.18   15.00
   2   8   0  179.54   19.61
  -2  -8   0  163.02   15.51
  -2   8   0  179.41   17.29
   3   8   0    3.35    5.35
   3  -8   0   14.98    5.36
  -3   8   0    8.95    4.40
  -3  -8   0    7.63    4.84
  -4  -8   0  194.48   18.64
   4  -8   0  214.02   16.62
  -4   8   0  216.01   18.22
   5  -8   0    8.77    4.02
  -5  -8   0   12.57    5.57
  -5   8   0   11.66    5.61
  -6   8   0  146.65   15.29
  -6  -8   0  128.63   16.69
   6  -8   0  141.55   13.79
  -7  -8   0   -1.91    3.46
  -7   8   0    6.01    4.23
   8  -8   0  252.38   18.80
  -8   8   0  235.30   19.68
  -8  -8   0  214.03   22.86
  -9   8   0   13.48    5.59
   9  -8   0   14.15    5.75
  -9  -8   0    3.81    5.12
  10  -8   0  126.18   13.61
 -10  -8   0  109.72   17.84
 -10   8   0  124.83   14.94
  11   8   0   -3.42    6.49
 -11   8   0    3.38    4.09
  11  -8   0    6.36    4.57
 -11  -8   0   -2.18    5.11
  12   8   0   71.73   18.77
 -12   8   0   77.30   12.29
 -12  -8   0   66.94   15.85
 -13  -8   0   11.58    9.36
 -13  -8   0   13.68    9.20
  13   8   0    6.67    4.50
 -13   8   0   17.35    7.14
 -14  -8   0   77.64   19.93
  14   8   0   85.33   20.79
 -14   8   0   69.19   11.93
 -14  -8   0   76.83   17.62
 -15   8   0    0.91    2.28
 -15  -8   0    3.25    7.78
 -15  -8   0    2.55    6.38
 -16  -8   0   81.06   18.80
 -16   8   0   79.70   13.42
 -16  -8   0  102.62   21.40
 -17  -8   0    6.78   10.42
 -17   8   0    8.54    6.16
 -18  -8   0  101.15   22.62
 -19  -8   0    5.11    9.11
 -20  -8   0   74.16   20.79
 -21  -8   0   11.49    8.79
 -22  -8   0   71.78   20.51
 -23  -8   0   18.22   11.56
 -23   8   0    3.73    6.00
 -24  -8   0   67.98   21.09
 -24   8   0   73.61   22.30
 -25   8   0   26.47   17.79
 -25  -8   0    8.40   15.93
 -26   8   0   39.41   15.89
 -26  -8   0   22.68   13.34
 -27  -8   0   -3.73    6.21
 -27   8   0    0.50   14.97
 -28   8   0   50.24   20.73
 -29   8   0  -20.93   17.29
   0   9   0    5.27    4.73
   0  -9   0    5.50    3.87
   1   9   0   43.84   10.54
   1  -9   0   59.82    9.38
  -1  -9   0   45.68    8.79
  -1   9   0   36.30    8.82
  -2   9   0    9.42    6.25
   2  -9   0   22.71    6.42
  -2  -9   0    7.39    4.31
   2   9   0   16.57    7.74
  -3   9   0   25.46    7.41
   3   9   0   51.29   13.38
  -3  -9   0   32.52    7.62
   3   9   0   21.94    8.05
   3  -9   0   31.94    6.84
   4   9   0   13.72    8.04
   4  -9   0   15.41    5.84
  -4   9   0    3.76    4.02
  -4  -9   0    9.21    5.06
  -5   9   0   31.34    7.33
  -5  -9   0   31.04    8.44
   5  -9   0   40.00    7.73
   5   9   0   49.95   12.58
  -6  -9   0    8.42    5.75
   6  -9   0    3.53    3.71
  -6   9   0    7.06    4.91
   6   9   0    5.19    7.09
   7  -9   0   44.29    8.40
   7   9   0   38.75   12.51
  -7  -9   0   29.41    8.79
  -7   9   0   45.26    9.18
  -8   9   0    5.08    4.08
   8   9   0   13.03    6.22
   8  -9   0   11.45    5.09
  -8  -9   0    5.80    6.12
  -9   9   0   47.51    9.62
  -9  -9   0   67.21   14.05
   9   9   0   53.27   15.72
   9  -9   0   60.73    9.73
 -10   9   0   11.55    6.09
  10   9   0   16.97   10.03
 -10  -9   0   -2.65    3.77
  10  -9   0    9.45    4.84
  11   9   0   50.86   16.99
 -11   9   0   33.63    8.56
 -11  -9   0   24.92    9.04
  11  -9   0   20.05    6.17
 -12   9   0    3.91    2.72
  12   9   0   15.42    8.22
 -12  -9   0   10.76    6.66
  12  -9   0   11.75    4.81
 -13   9   0   10.67    5.29
 -13  -9   0   22.93    9.61
 -14  -9   0    9.72    6.36
 -14   9   0    1.91    2.90
 -15  -9   0   49.60   14.55
 -15   9   0   60.82   12.35
 -16   9   0    6.24    4.07
 -16  -9   0   -3.25    5.98
 -17  -9   0    6.43    9.61
 -17  -9   0   23.12   10.78
 -18  -9   0    8.21    7.27
 -18  -9   0    0.46    7.48
 -19  -9   0   20.48   11.83
 -19  -9   0   34.02   13.21
 -20  -9   0   -4.64    9.90
 -20  -9   0   -4.53    9.04
 -21  -9   0    7.72    8.74
 -21  -9   0   28.72   15.38
 -22  -9   0   -9.46   10.87
 -22  -9   0   -0.89    6.05
 -23  -9   0   28.88   17.70
 -23  -9   0   17.32   11.77
 -24  -9   0   -7.39    8.39
 -24  -9   0   -5.77    9.40
 -25   9   0   31.58   17.30
 -25  -9   0   39.82   18.64
 -26   9   0    1.78    7.18
 -26  -9   0   -3.07    6.36
 -27   9   0   38.46   18.55
 -28   9   0    3.18   11.11
   0  10   0   58.49   12.43
   0 -10   0   49.24    9.40
  -1 -10   0    0.41    2.77
   1  10   0    1.19    3.60
  -1  10   0    2.29    3.35
   1 -10   0    3.24    2.95
  -2 -10   0   -5.58    4.67
   2 -10   0    9.90    4.72
  -2  10   0   -0.82    3.69
   3  10   0   -1.59    7.06
   3  10   0    2.55    4.77
   3 -10   0    8.34    4.28
  -3  10   0   -5.13    4.95
  -3 -10   0   -2.02    3.62
   4 -10   0    2.64    3.58
  -4  10   0    0.11    3.92
  -4 -10   0   -0.78    2.55
   5  10   0   -6.91    7.63
   5 -10   0    0.78    3.11
  -5 -10   0    7.35    5.04
  -5  10   0    6.38    5.33
   6  10   0   19.05   10.39
  -6  10   0    2.41    3.12
  -6 -10   0   12.60    5.69
   6 -10   0    5.65    4.09
   7  10   0    6.43    6.94
  -7 -10   0   -0.32    3.53
   7 -10   0    0.33    2.60
  -7  10   0    4.54    5.05
   8 -10   0    6.71    4.29
  -8  10   0    0.78    3.11
  -8 -10   0    4.08    4.97
   8  10   0   -0.53    5.41
  -9 -10   0   -0.98    3.82
   9 -10   0    7.24    4.03
   9  10   0   -5.73    9.13
  -9  10   0    5.90    4.56
 -10  10   0    1.09    2.94
 -10 -10   0   12.18    7.12
  10 -10   0    9.60    4.84
 -11 -10   0    8.33    7.68
 -11  10   0   12.83    5.87
  11 -10   0    9.77    4.87
  12 -10   0    0.46    2.67
 -12 -10   0    4.13    6.72
 -12  10   0    1.55    2.88
 -13 -10   0    9.73    7.42
 -13  10   0    2.08    3.29
 -14  10   0   -3.41    3.21
 -14 -10   0    3.95    6.51
 -15 -10   0   -0.05    6.07
 -15  10   0    5.17    4.97
 -16 -10   0    8.37    9.62
 -17 -10   0    1.23    6.62
 -18 -10   0   -1.97    5.57
 -19 -10   0   -0.53    5.28
 -20 -10   0   -2.96    8.46
 -21 -10   0   -7.25    7.55
 -22 -10   0    8.23   11.56
 -22 -10   0  -13.61   13.74
 -23 -10   0    4.08    9.02
 -23 -10   0   14.49   12.00
 -24 -10   0    3.96    8.25
 -24 -10   0  -20.20   12.13
 -25 -10   0    2.31    7.86
 -26  10   0   -2.06    8.03
 -27  10   0   13.67    7.56
   0 -11   0   -4.86    4.29
   0  11   0    7.12    6.32
  -1 -11   0    0.10    3.09
  -1  11   0    3.93    4.36
   1 -11   0    4.87    5.22
   1  11   0   -2.67    3.32
  -2 -11   0   -0.32    3.30
   2  11   0   -0.67    4.38
  -2  11   0    1.22    7.31
   2 -11   0   -0.26    2.90
  -3 -11   0    5.51    4.74
  -3  11   0    8.39    5.32
   3 -11   0    3.18    2.93
   3  11   0    2.90    5.64
   3  11   0   11.38    8.42
  -4  11   0    0.69    4.14
   4  11   0   -1.90    5.30
   4 -11   0    3.54    3.38
  -4 -11   0   -5.24    4.78
  -5 -11   0    1.45    2.84
   5  11   0    1.35    4.39
   5 -11   0    6.88    4.54
  -5  11   0    9.06    5.55
   6 -11   0   -0.12    2.70
  -6 -11   0    5.23    7.93
  -6  11   0    0.89    3.54
   6  11   0    0.98    5.04
  -7 -11   0   -2.70    4.25
  -7  11   0   -2.90    4.37
   7 -11   0    7.61    5.23
  -8  11   0    0.01    2.85
  -8 -11   0   12.53    7.31
   8 -11   0    1.82    3.02
   9 -11   0   12.66    5.17
  -9  11   0    4.19    2.86
  -9 -11   0   10.65    7.23
 -10  11   0    6.84    4.34
 -10 -11   0   -2.21    5.07
  10 -11   0   -1.08    3.47
 -11  11   0   10.47    5.22
  11 -11   0    7.34    4.00
 -11 -11   0   17.07    8.38
 -12  11   0   10.63    6.53
  12 -11   0    0.56    2.45
 -12 -11   0    1.69    4.51
 -13  11   0  -13.04    6.20
 -13 -11   0    1.78    5.45
 -14  11   0    3.30    3.26
 -14 -11   0   -0.75    4.58
 -15 -11   0  -22.85   10.31
 -16 -11   0  -28.87   11.79
 -17 -11   0    1.69    7.49
 -18 -11   0    0.80    6.82
 -19 -11   0    2.35    7.26
 -20 -11   0    9.97    9.67
 -21 -11   0   -2.33   10.81
 -22 -11   0    1.91    9.20
 -23 -11   0  -10.26    9.25
 -24 -11   0  -12.55    9.98
 -26  11   0    0.84   10.98
   0  12   0    0.47    5.69
   0 -12   0    3.20    4.59
   1  12   0    3.23    6.21
  -1 -12   0    2.59    3.25
   1 -12   0   -6.52    5.18
  -1  12   0   12.33    8.01
  -2  12   0   -0.44    3.88
   2 -12   0    2.00    3.06
  -2 -12   0    1.23    4.12
   3 -12   0    4.16    3.85
  -3  12   0   -1.57    4.20
  -3 -12   0   -4.59    4.48
   3  12   0   -0.21    4.54
  -4 -12   0    1.50    3.17
   4 -12   0    2.82    2.90
  -4  12   0   13.28    6.18
  -5 -12   0   -7.49    3.81
   5 -12   0    4.51    4.05
  -5  12   0   -1.69    4.91
  -6  12   0    7.95    4.16
  -6 -12   0   -0.03    4.35
   6 -12   0    9.44    5.22
  -7 -12   0    3.39    3.93
  -7  12   0    7.07    4.55
   7 -12   0    5.29    4.54
  -8  12   0   13.45    6.99
   8 -12   0   12.91    5.39
  -8 -12   0    8.38    6.06
  -9 -12   0    4.67    5.96
   9 -12   0    4.65    4.62
  -9  12   0    6.04    4.47
 -10 -12   0   19.58    8.51
  10 -12   0    1.15    3.54
 -10  12   0    6.90    5.13
 -11  12   0    7.13    5.90
  11 -12   0   16.13    7.06
 -11 -12   0    2.47    4.43
 -12 -12   0    4.75    7.39
 -12  12   0    9.44    6.66
  12 -12   0    4.94    3.72
  13 -12   0    1.53    2.88
 -13 -12   0    2.96    6.22
 -14 -12   0   12.28    8.48
 -15 -12   0    9.05    9.04
 -16 -12   0   -3.96    7.84
 -17 -12   0    4.32    4.55
 -18 -12   0   -1.69    5.06
 -19 -12   0   -8.84    7.95
 -20 -12   0    0.70    5.60
 -21 -12   0    5.54    9.08
 -22 -12   0    0.08    6.44
 -23 -12   0    3.25    7.57
   0  13   0   -3.18    4.86
   0 -13   0   14.20    6.55
   1 -13   0    4.02    3.27
  -1 -13   0   -3.03    4.49
   1  13   0    3.63    4.20
  -1  13   0    4.20    4.98
  -2 -13   0   10.48    5.99
  -2  13   0    4.33    6.01
   2 -13   0    5.66    5.76
   2  13   0    1.28    4.96
   3 -13   0   -2.41    4.88
  -3 -13   0    3.72    4.89
  -3  13   0   -2.63    4.97
   4 -13   0    3.46    5.00
  -4 -13   0   -0.91    3.27
  -4  13   0   12.04    8.07
  -5 -13   0   -2.17    4.02
  -5  13   0    6.16    5.59
   5 -13   0   -1.88    3.74
   6 -13   0    5.58    4.52
  -6 -13   0    8.82    6.51
  -6  13   0    0.03    4.56
  -7 -13   0    1.08    3.93
  -7  13   0   -7.10    5.46
   7 -13   0   -3.90    5.17
  -8  13   0    4.71    6.16
   8 -13   0    6.40    4.17
  -8 -13   0   -0.37    4.39
  -9 -13   0    0.46    4.57
   9 -13   0   -0.98    4.44
  -9  13   0   -3.61    4.84
 -10  13   0   -1.35    3.97
 -10 -13   0   10.66    7.65
  10 -13   0    2.01    3.63
 -11 -13   0    0.49    4.94
  11 -13   0   -5.80    3.64
  12 -13   0    5.78    5.32
 -12 -13   0    5.55    6.81
 -13 -13   0  -17.82    8.98
  13 -13   0   -6.37    5.50
 -14 -13   0    5.22    5.03
 -15 -13   0    6.30    5.57
 -16 -13   0    8.18    5.73
 -17 -13   0    2.77    6.11
 -18 -13   0    2.12    5.65
 -19 -13   0    1.62    6.31
 -20 -13   0    2.31    5.98
 -21 -13   0   -1.94    6.17
 -22 -13   0   -9.73    9.39
   0 -14   0    2.36    3.03
   0  14   0   10.31    8.40
   1  14   0   37.97   14.15
  -1  14   0    8.84    7.27
  -1 -14   0    8.92    5.26
   1 -14   0   14.19    7.24
   2 -14   0    1.67    3.34
  -2  14   0   12.31    9.35
   2  14   0    5.50    8.26
  -2 -14   0    1.32    3.30
  -3 -14   0    0.96    4.39
   3 -14   0    9.27    5.44
  -3  14   0   -0.43    5.09
   4 -14   0   -4.09    5.30
  -4 -14   0   -3.61    5.17
  -4  14   0   -0.20    4.84
  -5 -14   0   -0.09    4.16
  -5  14   0   -2.52    5.20
   5 -14   0    8.33    6.70
  -6  14   0  -19.24    9.16
   6 -14   0    7.98    5.89
  -6 -14   0   -8.98    5.76
  -7 -14   0   -0.36    4.99
   7 -14   0    5.81    5.03
  -8 -14   0   -0.71    3.99
   8 -14   0    6.59    5.01
   9 -14   0    3.31    4.35
  -9 -14   0    7.57    5.18
 -10 -14   0    2.02    4.48
  10 -14   0   -5.00    5.31
  11 -14   0    8.31    4.41
 -11 -14   0    4.28    5.97
 -12 -14   0    9.43    7.56
  12 -14   0    0.59    4.57
  13 -14   0   -5.39    5.13
 -13 -14   0   11.75    8.84
 -14 -14   0    5.06    6.90
 -15 -14   0    7.04    7.70
 -16 -14   0    9.19    5.63
 -17 -14   0    2.53    5.87
 -18 -14   0    1.19    6.27
 -19 -14   0   -0.66    7.52
 -20 -14   0    4.85    9.86
   0 -15   0   -4.92    4.23
   1 -15   0   -5.28    5.23
  -1 -15   0   -6.55    5.85
  -2 -15   0    3.98    3.89
   2 -15   0    9.03    5.47
   3 -15   0   -3.50    4.66
  -3 -15   0   -1.25    4.77
   4 -15   0    2.56    4.04
  -4 -15   0    1.06    4.07
   5 -15   0   -1.65    4.59
  -5 -15   0    6.00    5.60
  -6 -15   0    0.28    4.26
   6 -15   0   -1.05    3.42
   7 -15   0    1.56    3.60
  -7 -15   0    0.95    4.71
  -8 -15   0   -0.45    4.07
   8 -15   0   -0.29    4.12
  -9 -15   0    0.32    3.31
   9 -15   0   18.42    6.83
 -10 -15   0    6.36    5.77
  10 -15   0   -1.43    4.83
 -11 -15   0   -7.93    6.18
  11 -15   0    2.77    3.00
 -12 -15   0    3.74    6.55
  12 -15   0   -7.70    5.50
 -13 -15   0    2.56    6.86
  13 -15   0    1.87    3.28
 -14 -15   0   -0.30    6.06
 -15 -15   0    3.21    6.34
 -16 -15   0   -8.94    7.59
 -17 -15   0    4.25    7.13
 -18 -15   0  -34.82   13.85
 -19 -15   0   -0.43    6.49
   0 -16   0    9.08    7.31
  -1 -16   0   -3.85    5.57
   1 -16   0    1.07    4.52
   2 -16   0   -2.80    6.05
  -2 -16   0    9.67    6.94
  -3 -16   0    6.19    4.82
   3 -16   0    6.04    3.74
   4 -16   0   -8.67    5.94
  -4 -16   0    0.92    4.18
  -5 -16   0   -0.88    3.67
   5 -16   0   -0.47    3.58
  -6 -16   0    2.35    5.03
   6 -16   0   -4.31    4.91
   7 -16   0    6.28    5.71
  -7 -16   0   21.27    9.63
   8 -16   0    5.96    4.99
  -8 -16   0   -9.05    6.32
   9 -16   0  -10.70    6.58
  -9 -16   0  -10.97    6.93
  10 -16   0  -13.33    7.01
 -10 -16   0    6.34    7.11
  11 -16   0    4.56    4.93
 -11 -16   0   -2.81    3.76
 -12 -16   0  -13.45    7.85
  12 -16   0    3.81    4.94
 -13 -16   0    5.01    4.11
  13 -16   0    2.29    4.07
 -14 -16   0  -11.43    7.79
 -15 -16   0  -10.04    7.44
 -16 -16   0  -17.76    9.76
 -17 -16   0    1.49    7.38
   0 -17   0    3.75    6.02
   1 -17   0    0.77    5.42
  -1 -17   0  -16.15    7.85
  -2 -17   0  -13.61    7.41
   2 -17   0    1.18    4.90
   3 -17   0   12.35    8.44
  -3 -17   0    6.62    6.20
  -4 -17   0   -9.52    6.39
   4 -17   0  -20.11    8.58
  -5 -17   0    7.85    6.03
   5 -17   0    1.04    3.50
   6 -17   0   -4.09    4.79
  -6 -17   0    3.23    3.54
  -7 -17   0   -8.51    6.16
   7 -17   0    2.73    4.90
  -8 -17   0   -6.31    5.78
   8 -17   0    3.45    4.88
   9 -17   0   -6.23    5.53
  -9 -17   0    1.12    3.98
 -10 -17   0   15.42    9.10
  10 -17   0   10.55    8.40
 -11 -17   0   -3.40    4.97
 -12 -17   0    3.79    4.72
 -13 -17   0    9.24    6.75
 -14 -17   0    4.32    8.22
 -31   0   1    0.44   13.11
 -30   0   1   -4.61    9.69
 -29   0   1  -16.41   14.64
 -28   0   1   10.34   10.89
 -27   0   1   11.38    8.22
 -26   0   1   -1.28    6.15
 -25   0   1   -2.17    6.23
 -24   0   1   17.53    8.80
 -23   0   1    0.53    7.30
 -22   0   1   10.07    9.02
 -21   0   1    6.35    7.15
 -20   0   1   -6.36    9.26
 -19   0   1   -4.95    8.04
 -18   0   1   -2.10    5.35
 -17   0   1    6.64    5.82
 -16   0   1    2.03    4.60
 -15   0   1    1.32    5.98
 -14   0   1   -3.72    7.38
 -13   0   1   -3.09    5.35
 -12   0   1   -0.64    5.08
 -11   0   1   -4.98    5.52
 -10   0   1   -3.59    5.26
  -9   0   1   -4.48    6.86
  -8   0   1    1.33    4.67
  -7   0   1    1.27    3.66
  -6   0   1   -2.29    3.86
  -5   0   1    1.84    3.75
  -4   0  -1    1.01    3.04
  -5   0  -1    0.69    2.90
  -6   0  -1    0.53    3.52
  -7   0  -1    1.31    4.29
  -8   0  -1   -3.27    5.05
  -9   0  -1    3.42    4.13
  10   0   1   -1.72    3.79
 -10   0  -1   -1.82    4.14
 -11   0  -1   -5.83    7.00
  11   0   1    0.47    3.52
 -12   0  -1    2.88    4.97
  12   0   1    4.54    3.62
  13   0   1    0.37    3.65
 -13   0  -1   -1.50    5.66
 -14   0  -1    4.52    6.16
 -15   0  -1   -0.53    4.85
 -16   0  -1    6.70    6.56
 -17   0  -1   -2.35    7.31
 -18   0  -1   -0.86    4.41
 -19   0  -1   -2.73    6.34
 -20   0  -1   -5.13    4.94
 -21   0  -1   -2.89    7.28
 -22   0  -1   -0.07    8.24
 -23   0  -1   -6.65    8.95
 -24   0  -1   15.33   12.84
 -25   0  -1    6.47   10.62
 -26   0  -1    2.56    6.53
 -27   0  -1   -1.76    9.16
 -28   0  -1    2.47    8.60
 -29   0  -1   -5.42    7.99
 -30   0  -1    1.05    7.17
 -31   0  -1   -2.95   12.15
 -31  -1   1   22.45   15.02
 -31   1   1   29.68   17.38
 -30   1   1   17.28   15.45
 -30  -1   1   13.08   11.56
 -29   1   1   36.01   19.36
 -29  -1   1   20.41   10.88
 -28  -1   1   12.70   14.07
 -28   1   1    1.86    8.16
 -27  -1   1   24.77   13.29
 -27   1   1   29.75   16.41
 -26  -1   1  -11.76   10.43
 -26   1   1   -2.64   12.21
 -25  -1   1   45.17   16.91
 -25   1   1   76.42   22.79
 -24   1   1   11.25    7.60
 -24  -1   1   -2.74    6.10
 -23  -1   1   37.06   15.56
 -23   1   1   57.00   18.71
 -22  -1   1   -4.92    9.93
 -22   1   1   -1.70    9.38
 -21  -1   1   19.75   10.91
 -21   1   1   16.39   10.47
 -20   1   1   11.93    7.49
 -20  -1   1    1.00    6.44
 -19  -1   1   66.48   17.51
 -19   1   1   69.70   18.44
 -18   1   1   -5.12    6.76
 -18  -1   1    7.09    7.26
  18   1  -1    0.18    3.75
  17   1  -1   97.51   19.62
 -17  -1   1  153.99   25.70
 -17   1   1  101.59   20.04
 -16  -1   1   25.00    9.72
 -16   1   1    1.90    5.61
 -15   1   1   90.78   17.95
 -15  -1   1  106.10   19.95
 -14   1   1    9.08    7.02
 -14  -1   1   17.74    9.28
 -13   1   1  804.35   48.38
 -13  -1   1  834.36   49.99
 -12   1   1   26.15    7.85
 -12  -1   1   26.30    8.95
 -11   1   1  237.15   24.21
 -11  -1   1  245.19   25.16
 -10   1   1   14.53    6.14
 -10  -1   1   12.67    5.67
  -9  -1   1  207.74   21.34
  -9   1   1  191.87   19.38
  -8  -1   1   12.65    5.82
  -8   1   1   18.53    7.17
  -7  -1   1   77.93   11.95
  -6  -1   1   25.46    6.04
  -5  -1   1  226.29   16.51
  -4  -1   1    2.88    3.01
  -4  -1  -1   75.03    8.42
  -5  -1  -1   67.87    9.39
  -6  -1  -1   57.94   11.12
  -6   1  -1   47.86    7.99
  -7  -1  -1  105.84   12.99
  -7   1  -1  106.96   12.34
  -8  -1  -1   37.79    7.81
  -8   1  -1   54.45    9.98
  -9  -1  -1   74.60   11.98
  -9   1  -1   98.56   13.83
 -10   1  -1    4.52    4.16
 -10  -1  -1    0.01    5.76
 -11   1  -1   52.69   11.45
 -11  -1  -1   52.68   12.02
 -12   1  -1    8.47    4.64
 -12  -1  -1   10.97    6.28
  12   1   1   11.92    5.80
 -13   1  -1  125.32   18.52
 -13  -1  -1  123.75   18.79
  13   1   1  128.39   19.01
 -14  -1  -1   42.46   11.41
 -14   1  -1   33.69   11.32
 -15  -1  -1   19.30    7.64
 -15   1  -1   22.72    9.65
  16   1   1    2.60    4.70
 -16   1  -1    6.06    6.43
 -16  -1  -1   -1.53    6.87
 -17  -1  -1   59.49   15.11
 -17   1  -1   60.57   15.83
  17   1   1   86.26   18.10
 -18   1  -1   -6.69    8.99
  18   1   1   -0.75    3.75
 -18  -1  -1   -7.16    5.79
  19   1   1   28.25   11.01
 -19  -1  -1   25.50   11.52
 -19   1  -1    6.36    7.70
 -20  -1  -1    6.51    6.71
 -20   1  -1   12.50   10.93
 -21   1  -1  192.12   29.97
 -21  -1  -1  174.33   28.75
 -22  -1  -1   30.23   11.86
 -22   1  -1    8.97    7.44
 -23  -1  -1    7.21    9.11
 -23   1  -1    6.34    5.79
 -24   1  -1   -3.65    9.42
 -24  -1  -1   11.09   11.03
 -25  -1  -1   17.66   10.82
 -25   1  -1   12.73   11.01
 -26  -1  -1   -1.77    9.92
 -26   1  -1   -6.29    6.80
 -27   1  -1   15.51    7.80
 -27  -1  -1   16.75   12.31
 -28   1  -1    7.52    8.63
 -28  -1  -1   10.80    9.49
 -29   1  -1   -2.69   10.06
 -29  -1  -1   12.32    7.24
 -30  -1  -1    1.34    8.44
 -30   1  -1  -12.98   12.64
 -31  -1  -1   21.12   13.21
 -31   1  -1   -6.57   12.11
 -32   1  -1   -9.49   13.22
 -31  -2   1   -0.54    9.48
 -31   2   1  -10.28    7.39
 -30   2   1   93.11   28.87
 -30  -2   1   74.57   24.24
 -29  -2   1    6.50    6.62
 -29   2   1   11.92   11.53
 -28  -2   1  117.43   28.86
 -28   2   1   59.95   20.77
 -27   2   1   25.19   15.41
 -27  -2   1   43.73   19.44
 -26   2   1  106.29   26.43
 -26  -2   1  103.02   25.90
 -25  -2   1   18.30   13.56
 -25   2   1   -8.81   10.75
 -24  -2   1  163.43   31.18
 -24   2   1  135.93   28.96
 -23  -2   1   -5.68   10.54
 -23   2   1   14.27   11.69
 -22  -2   1  139.61   28.08
 -22   2   1  123.32   26.41
 -21   2   1   18.13    9.77
 -21  -2   1    6.14    9.76
 -20  -2   1  106.22   23.18
  20   2  -1   99.56   21.91
 -20   2   1   73.85   18.62
 -19  -2   1    0.26    7.93
  19   2  -1    3.55    3.78
 -19   2   1   -2.33    6.39
  18   2  -1  238.43   30.94
 -18  -2   1  241.73   32.72
 -18   2   1  233.42   31.56
 -17  -2   1   10.51    6.33
  17   2  -1   19.47    8.49
 -17   2   1   19.73   11.05
 -16  -2   1  220.26   28.62
 -16   2   1  218.47   28.23
 -15  -2   1   22.25    9.48
 -15   2   1   36.40   11.38
 -14  -2   1  429.68   37.42
 -14   2   1  443.68   37.11
 -13  -2   1   16.73    6.64
 -13   2   1   14.63    7.00
 -12   2   1  810.33   45.41
 -12  -2   1  805.35   47.82
 -11  -2   1   15.66    7.46
 -10  -2   1  340.26   28.32
  -9  -2   1    4.92    3.74
  -8  -2   1  396.86   27.65
  -7  -2   1    8.61    5.50
  -6  -2   1  149.00   15.46
   6  -2  -1  162.41   10.66
   5  -2  -1    3.68    2.72
  -5  -2   1    2.30    3.87
  -4  -2   1  368.63   20.13
   4  -2  -1  385.96   14.69
  -3  -2   1    0.39    2.57
   3  -2  -1    0.24    1.58
  -2  -2   1  786.44   24.18
   2  -2  -1  747.40   18.86
   2  -2   1  468.01   10.98
  -2  -2  -1  458.28   18.93
  -3  -2  -1    3.87    3.06
  -3  -2  -1    4.44    3.72
  -4  -2  -1  879.29   30.68
  -5  -2  -1    0.22    3.29
  -6  -2  -1  180.74   16.30
  -7  -2  -1    5.51    4.75
  -8  -2  -1  292.43   23.04
  -9  -2  -1   56.42   11.61
 -10  -2  -1  202.90   21.41
 -10   2  -1  197.99   20.28
 -11  -2  -1   29.83   10.03
 -11   2  -1   13.97    6.21
 -12  -2  -1  404.56   32.68
 -12   2  -1  415.98   32.07
 -13   2  -1    4.45    5.29
 -13  -2  -1   10.86    7.31
 -14  -2  -1  165.07   22.98
 -14   2  -1  171.57   22.67
  15   2   1    9.06    8.40
 -15   2  -1    3.82    4.25
 -15  -2  -1    5.03    5.73
 -16  -2  -1  177.30   24.96
  16   2   1  172.01   25.23
 -16   2  -1  170.77   24.41
 -17  -2  -1   24.42   10.59
  17   2   1   13.02    9.24
 -17   2  -1   19.25    8.77
 -18   2  -1  105.12   19.33
 -18  -2  -1  135.81   23.62
  18   2   1   87.66   19.01
 -19  -2  -1   -0.02    6.74
 -19   2  -1   12.28   10.73
  19   2   1    6.86    7.86
 -20  -2  -1  252.21   33.79
 -20   2  -1  278.07   35.00
  20   2   1  284.98   35.77
 -21   2  -1   18.83   10.83
  21   2   1   18.11    8.11
 -21  -2  -1   14.14    9.63
 -22   2  -1  247.76   35.41
 -22  -2  -1  216.88   33.21
 -23  -2  -1    6.62    8.10
 -23   2  -1   10.31    8.86
 -24   2  -1   58.73   16.87
 -24  -2  -1   38.17   13.94
 -25   2  -1   -7.36    9.87
 -25  -2  -1   -3.08    6.25
 -26  -2  -1   40.98   17.32
 -26   2  -1   56.50   18.85
 -27   2  -1  -13.06    9.74
 -27  -2  -1    3.64    6.14
 -28  -2  -1   39.89   18.28
 -28   2  -1   35.76   13.08
 -29  -2  -1   18.41   13.83
 -29   2  -1   17.15   12.56
 -30  -2  -1    7.64    9.84
 -30   2  -1   41.86   18.89
 -31  -2  -1   29.36   15.00
 -31   2  -1    5.61   10.71
 -32   2  -1   16.45   14.03
 -31   3   1   80.03   25.41
 -30   3   1   14.71   14.38
 -30  -3   1   14.89   13.74
 -29   3   1  141.69   33.65
 -29  -3   1  107.39   27.48
 -28  -3   1   21.78   13.40
 -28   3   1   23.15   16.02
 -27  -3   1  172.38   33.67
 -27   3   1  175.85   34.80
 -26   3   1   17.73   10.84
 -26  -3   1   18.69   12.56
 -25   3   1  147.43   30.77
 -25  -3   1  162.18   31.60
 -24  -3   1   32.13   16.80
 -24   3   1   14.72   11.86
 -23  -3   1  171.73   31.95
 -23   3   1  180.96   32.30
 -22  -3   1   28.33   12.54
 -22   3   1   30.54   13.01
 -21   3   1  157.66   28.57
 -21  -3   1  163.22   29.15
 -20   3   1   29.65    8.35
 -20   3   1   28.60   13.10
 -20  -3   1   33.07   14.34
  20   3  -1   10.36    6.53
  19   3  -1  178.33   28.42
 -19   3   1  196.53   30.25
 -19  -3   1  166.47   27.77
 -19   3   1  198.65   20.33
 -18  -3   1   26.37   11.52
 -18   3   1   17.48    7.13
  18   3  -1   31.37   14.48
 -18   3   1   20.77    6.71
 -17   3   1  241.20   30.55
 -17  -3   1  290.11   34.31
 -17   3   1  262.57   21.63
  17   3  -1  222.49   30.59
 -16   3   1   43.07   12.35
 -16  -3   1   36.20   12.30
 -16   3   1   47.90    9.43
 -15   3   1  485.44   40.36
 -15  -3   1  459.16   40.21
 -14  -3   1   46.93   13.20
 -13  -3   1  314.03   31.65
 -12  -3   1   14.57    5.67
 -11  -3   1  605.18   40.25
 -10  -3   1   47.84   11.33
  -9  -3   1  119.64   16.74
  -8  -3   1   11.07    5.79
   7  -3  -1   70.36    7.84
  -7  -3   1   65.55   11.09
   6  -3  -1    6.54    2.56
  -6  -3   1    1.87    3.83
   5  -3  -1  152.97   10.71
  -5  -3   1  138.32   14.18
  -4  -3   1    8.24    4.75
   4  -3  -1   12.36    3.58
  -3  -3   1  671.64   27.75
   3  -3  -1  621.83   20.21
  -2  -3   1  218.81   12.28
   2  -3  -1  207.60   11.49
   1   3  -1  644.23   19.28
   1  -3  -1  653.09   20.22
  -1  -3   1  645.14   17.60
   0  -3  -1   85.42    7.76
   0  -3   1   96.28    6.02
   0   3  -1   95.05    6.58
   1  -3   1  597.12   14.68
  -1   3  -1  577.38   15.00
  -1  -3  -1  564.19   20.92
  -2   3  -1   18.51    3.01
   2  -3   1   18.56    2.90
  -2  -3  -1   13.90    3.72
   3  -3   1  788.11   18.46
  -3   3  -1  775.99   19.09
  -3  -3  -1  737.74   28.61
   4  -3   1  148.14    8.53
  -4   3  -1  155.64    9.00
  -4  -3  -1  151.41   14.59
  -4  -3  -1  152.71   14.38
  -5  -3  -1  416.53   24.35
  -5   3  -1  392.20   15.16
  -6   3  -1   85.79    7.57
  -6  -3  -1   68.59   11.40
  -7  -3  -1  472.24   28.87
  -7   3  -1  473.75   18.77
  -8   3  -1   12.58    4.01
  -8  -3  -1   20.05    6.81
  -9   3  -1  568.67   22.67
  -9  -3  -1  558.43   34.05
 -10  -3  -1   48.38   10.92
 -10   3  -1   53.84    7.51
 -11  -3  -1  672.61   41.18
 -12  -3  -1   56.08   13.26
 -13  -3  -1  259.26   27.64
 -13   3  -1  227.14   25.22
 -14   3  -1   74.49   14.83
 -14  -3  -1   73.72   15.43
  14   3   1   79.22   17.27
 -15  -3  -1  200.79   26.19
 -15   3  -1  213.73   26.65
  15   3   1  205.13   27.64
 -16   3  -1   14.65    8.67
  16   3   1   25.21    9.92
 -16  -3  -1   13.74    8.84
 -17   3  -1  153.14   23.59
 -17  -3  -1  139.93   23.43
  17   3   1  129.06   23.15
 -18   3  -1   89.09   20.01
 -18  -3  -1   67.56   17.13
  18   3   1   64.66   17.00
 -19  -3  -1  289.20   35.15
  19   3   1  276.47   35.27
 -19   3  -1  250.96   32.73
 -20   3  -1   27.22   10.65
  20   3   1   43.09   14.02
 -20  -3  -1   33.12   14.40
 -21  -3  -1  199.38   30.68
 -21   3  -1  219.08   32.19
 -22   3  -1   21.43   10.78
 -22  -3  -1   10.58    9.68
 -23  -3  -1  192.60   31.96
 -23   3  -1  189.28   31.61
 -24   3  -1   21.05   11.03
 -24  -3  -1   37.52   13.56
 -25   3  -1   78.34   21.86
 -25  -3  -1   64.92   19.09
 -26   3  -1   10.17    9.72
 -26  -3  -1    3.37    5.96
 -27   3  -1   67.76   21.64
 -27  -3  -1   49.82   19.07
 -28   3  -1   -1.30    7.71
 -28  -3  -1   -5.41    8.86
 -29  -3  -1   45.07   17.00
 -29   3  -1   26.25   15.31
 -30  -3  -1   15.51   14.30
 -30   3  -1   -2.12    8.34
 -31  -3  -1   15.91   13.93
 -31   3  -1   35.23   17.83
 -31   4   1   63.74   23.88
 -30  -4   1   54.73   21.58
 -30   4   1   89.71   26.44
 -29   4   1   17.91   14.13
 -29  -4   1   50.48   19.83
 -28   4   1   99.18   26.14
 -28  -4   1  113.03   30.60
 -27  -4   1   28.47   15.51
 -27   4   1   23.42   14.38
 -26   4   1  130.24   29.14
 -26  -4   1  135.62   30.23
 -25  -4   1   73.03   22.24
 -25   4   1   68.07   19.92
 -24  -4   1  116.58   26.50
 -24   4   1   91.37   23.79
 -23  -4   1   53.69   18.16
 -23   4   1   67.41   20.00
 -22   4   1   99.93   23.18
 -22  -4   1   93.74   22.81
 -21   4   1   57.42   17.48
 -21  -4   1   51.84   16.62
 -20   4   1  199.33   31.23
 -20   4   1  192.55   21.27
 -20  -4   1  172.91   28.41
 -19   4   1   96.96   21.03
 -19  -4   1   64.09   17.20
  19   4  -1  114.96   23.61
 -19   4   1  103.00   14.98
 -18   4   1  151.31   24.72
 -18  -4   1  176.41   27.85
 -18   4   1  166.08   18.53
  18   4  -1  141.74   25.79
 -17   4   1   62.43   16.12
 -17   4   1   77.40   12.36
 -17  -4   1   56.25   14.64
  17   4  -1   59.64   15.99
 -16   4   1  298.77   22.95
 -16  -4   1  274.77   32.61
 -15  -4   1   90.84   18.50
 -15   4   1  102.85   13.53
 -14  -4   1  174.46   24.51
 -14   4   1  197.58   17.87
 -13  -4   1   79.30   15.82
 -13   4   1   83.29   11.29
 -12   4   1  153.91   14.71
 -12  -4   1  143.70   20.65
 -11  -4   1   91.92   16.07
 -11   4   1   85.48   10.46
 -10  -4   1  366.48   30.46
   9  -4  -1  155.85   13.07
  -9  -4   1  144.66   18.72
   8  -4  -1  330.08   18.25
  -8  -4   1  317.43   26.11
  -7  -4   1  101.44   14.56
   7  -4  -1   95.83    9.82
  -6  -4   1  465.31   28.80
   6  -4  -1  466.67   20.51
  -5  -4   1  142.53   15.84
   5  -4  -1  136.56   11.00
  -4  -4   1 1132.66   41.63
  -4  -4   1 1012.41   34.03
   4  -4  -1 1071.43   29.76
  -3  -4   1  312.74   17.46
   3  -4  -1  324.66   16.25
  -2  -4   1  432.57   18.45
   2  -4  -1  438.84   18.49
   2   4  -1  415.59   19.86
   1  -4  -1   31.75    5.19
  -1  -4   1   48.46    5.84
   1   4  -1   36.68    5.75
   0  -4   1   10.32    3.00
   0  -4  -1    7.09    2.73
   0   4  -1    9.16    3.10
  -1   4  -1  206.33   11.01
   1  -4   1  210.92   10.51
  -1  -4  -1  208.99   14.14
  -2   4  -1    7.54    2.36
  -2  -4  -1    6.84    3.61
   2  -4   1    5.09    1.86
   3  -4   1   20.24    3.60
  -3  -4  -1   23.15    5.99
  -3   4  -1   30.93    4.78
   4  -4   1  170.92   10.44
  -4  -4  -1  170.50   16.14
  -4   4  -1  161.50   10.53
   5  -4   1   15.04    3.85
  -5   4  -1    9.53    3.38
  -5  -4  -1    2.94    4.47
  -6  -4  -1  431.97   28.38
  -6   4  -1  463.56   18.90
  -6  -4  -1  422.70   27.19
  -7   4  -1   66.11    7.51
  -7  -4  -1   59.10   11.15
  -8   4  -1  537.02   22.20
  -8  -4  -1  557.12   33.86
  -9   4  -1   44.12    6.95
  -9  -4  -1   47.98   10.86
 -10  -4  -1  968.81   48.34
 -10   4  -1  985.96   33.03
 -11  -4  -1  141.94   19.52
 -11   4  -1  133.83   12.70
 -12   4  -1  201.97   16.17
 -12  -4  -1  224.25   25.05
 -13   4  -1   78.88   10.76
 -13  -4  -1   77.21   16.61
  14   4   1   96.76   19.44
 -14   4  -1  145.80   14.76
 -14  -4  -1   94.19   17.90
  15   4   1  105.76   20.95
 -15  -4  -1   97.86   18.68
 -15   4  -1  117.03   13.64
  16   4   1   80.38   18.63
 -16   4  -1   72.80   11.22
 -16   4  -1   71.97   15.88
 -16  -4  -1   83.85   17.99
 -17   4  -1   73.86   16.74
  17   4   1   85.32   19.34
 -17  -4  -1   68.25   17.10
 -17   4  -1   72.42   11.70
 -18   4  -1   97.30   20.27
 -18  -4  -1  101.25   20.29
 -18   4  -1  111.91   15.07
  18   4   1   99.54   21.31
 -19   4  -1   38.17    9.55
 -19  -4  -1   32.39   13.65
  19   4   1   31.10   12.39
 -19   4  -1   24.98   11.21
 -20  -4  -1  104.21   22.04
 -20   4  -1  101.37   15.09
 -20   4  -1  107.46   22.69
 -21   4  -1   27.20   10.63
 -21  -4  -1   38.46   14.20
 -22   4  -1  130.14   26.80
 -22  -4  -1  116.29   24.91
 -23   4  -1   17.67    9.66
 -23  -4  -1   48.27   17.41
 -24   4  -1  103.21   25.05
 -24  -4  -1   79.11   21.27
 -25  -4  -1   19.34   12.26
 -25   4  -1   34.63   12.99
 -26  -4  -1   32.42   15.16
 -26   4  -1   53.86   18.44
 -27   4  -1   15.37   11.85
 -27  -4  -1   40.57   17.92
 -28   4  -1   53.79   22.39
 -28  -4  -1   33.41   14.66
 -29   4  -1   26.89   16.99
 -29  -4  -1   27.14   12.54
 -30   4  -1    1.78    7.00
 -30  -4  -1   26.85   14.54
 -31   4  -1   20.04   12.04
 -30   5   1   65.83   22.37
 -29   5   1   49.73   20.39
 -29  -5   1   40.61   18.27
 -28  -5   1   43.49   19.53
 -28   5   1   73.79   23.79
 -27   5   1   33.55   14.55
 -27  -5   1   37.50   17.99
 -26   5   1   65.80   21.76
 -26  -5   1   47.82   18.93
 -25  -5   1   17.59   12.13
 -25   5   1   49.21   19.05
 -24   5   1  128.02   27.41
 -24  -5   1  126.27   27.83
 -23   5   1   38.18   15.52
 -23  -5   1   21.61   13.73
 -22   5   1   98.70   22.91
 -22  -5   1  102.35   24.13
 -21  -5   1   54.66   17.64
 -21   5   1   67.30   20.15
 -20   5   1  188.63   32.06
 -20  -5   1  129.31   25.37
 -19  -5   1   95.25   22.30
 -19   5   1   89.24   14.31
 -19   5   1   71.50   18.68
  18   5  -1  147.65   26.63
 -18   5   1  169.67   18.96
 -18  -5   1  158.82   26.47
 -17   5   1  108.44   14.98
 -17  -5   1   98.53   20.04
  17   5  -1   99.48   21.77
  16   5  -1  100.33   21.50
 -16   5   1   92.02   13.55
 -16  -5   1   92.47   19.33
 -15   5   1   57.28   10.21
 -15  -5   1   53.68   14.41
 -14   5   1  136.96   15.20
 -14  -5   1  115.48   19.90
 -13  -5   1   59.79   13.86
 -13   5   1   52.74    9.49
 -12   5   1  181.79   16.63
 -12  -5   1  186.80   24.38
 -11  -5   1   61.92   14.05
 -11   5   1   54.56    9.07
 -10   5   1  168.77   15.57
  10  -5  -1  160.51   14.09
 -10  -5   1  132.96   19.18
   9  -5  -1  242.83   16.87
  -9   5   1  257.61   18.45
  -9  -5   1  221.40   23.98
  -8  -5   1  154.38   19.22
  -8   5   1  169.79   14.75
   8  -5  -1  171.07   14.07
  -7   5   1  512.44   24.58
  -7  -5   1  494.15   32.59
   7  -5  -1  485.09   22.69
  -6  -5   1  328.89   23.20
  -6   5   1  309.55   18.95
  -6  -5   1  313.02   25.38
   6  -5  -1  318.91   18.18
  -5  -5   1  523.51   27.63
  -5   5   1  548.87   24.87
   5  -5  -1  557.61   23.61
  -4   5   1  325.21   18.70
   4  -5  -1  331.21   18.21
  -4  -5   1  318.88   20.29
   3  -5  -1   89.45    9.80
  -3   5   1   82.65    9.61
  -3  -5   1   76.19    9.91
   2   5  -1  267.57   17.71
  -2   5   1  276.51   17.28
  -2  -5   1  264.68   15.93
   2  -5  -1  273.19   16.15
  -1   5   1    2.17    3.12
  -1  -5   1    2.29    2.90
   1  -5  -1   10.45    4.83
   1   5  -1    2.44    2.77
   0  -5   1  214.40   12.58
   0   5  -1  224.93   14.46
   0  -5  -1  217.35   15.04
   0   5   1  213.96   16.12
  -1  -5  -1   12.57    5.15
  -1   5  -1   10.83    3.48
   1  -5   1   12.15    3.46
   1   5   1    4.05    4.21
   2   5   1  258.17   19.88
  -2   5  -1  283.79   14.79
  -2  -5  -1  291.60   18.87
   2  -5   1  282.41   14.01
  -3   5  -1   47.92    6.27
   3   5   1   44.33    8.94
  -3  -5  -1   52.05    8.99
   3  -5   1   48.02    6.08
  -4   5  -1   96.77    9.12
   4  -5   1  106.17    8.84
  -4  -5  -1   95.94   12.62
   5  -5   1   66.47    7.24
  -5  -5  -1   62.56   10.74
  -5   5  -1   61.70    7.40
  -6   5  -1   98.12    9.54
  -6  -5  -1  115.06   14.98
   6  -5   1   96.77    8.96
   7  -5   1  260.20   15.07
  -7   5  -1  251.12   15.70
  -7  -5  -1  270.49   23.88
  -8  -5  -1   55.93   12.24
  -8  -5  -1   69.85   13.36
  -8   5  -1   63.60    8.29
  -9  -5  -1  504.00   35.08
  -9   5  -1  492.47   23.38
 -10   5  -1  133.45   12.67
 -10  -5  -1  119.62   18.11
 -11  -5  -1  124.76   18.85
 -11   5  -1  108.46   11.92
 -12   5  -1  112.76   12.43
 -12  -5  -1  118.82   19.00
 -13  -5  -1   37.21   10.87
 -13   5  -1   38.61    7.77
 -14   5  -1  102.88   12.84
  14   5   1   89.88   19.19
 -14  -5  -1   89.20   17.74
 -15  -5  -1   15.34    8.78
 -15   5  -1   15.44    4.84
  15   5   1    5.77    7.14
 -16  -5  -1  141.32   23.70
  16   5   1  115.67   23.66
 -16   5  -1  135.79   15.76
  17   5   1   14.97   10.18
 -17   5  -1    9.13    4.66
 -17  -5  -1   13.45    8.64
 -18   5  -1    9.19    5.57
 -18  -5  -1    3.96    4.87
  18   5   1    7.32    5.36
 -18   5  -1    8.58    4.79
 -19  -5  -1   11.38   10.00
 -19   5  -1   10.42    5.27
 -19   5  -1   11.83    8.68
 -20  -5  -1   35.44   13.83
 -20   5  -1   47.71   10.74
 -20   5  -1   30.61   13.81
 -21  -5  -1    9.40    7.47
 -21   5  -1   -6.46   10.79
 -22   5  -1   13.33   10.41
 -22  -5  -1   51.73   17.42
 -23  -5  -1   25.16   13.91
 -23   5  -1    2.43    6.84
 -24   5  -1   38.20   15.58
 -24  -5  -1   36.99   15.74
 -25  -5  -1   14.17   11.14
 -25   5  -1   26.79   13.82
 -26  -5  -1   71.48   21.55
 -26   5  -1   69.95   21.46
 -27   5  -1   15.07   10.23
 -27  -5  -1   -4.95   10.86
 -28   5  -1   48.98   19.48
 -28  -5  -1   65.39   24.55
 -29   5  -1  -17.89   14.39
 -29  -5  -1   14.55   15.40
 -30   5  -1   38.70   18.91
 -31   5  -1   11.14   10.97
 -30   6   1   -9.10   10.81
 -29  -6   1   85.71   25.14
 -29   6   1  102.52   26.71
 -28   6   1    7.01   10.79
 -28  -6   1    0.97   10.21
 -27  -6   1   51.28   21.17
 -27   6   1   66.25   21.74
 -26   6   1   18.75   11.07
 -26  -6   1   -4.09    7.23
 -25   6   1   75.64   22.67
 -25  -6   1   88.12   24.00
 -24  -6   1    8.82    9.75
 -24   6   1    3.42    9.13
 -23  -6   1  149.92   30.43
 -23   6   1  148.49   29.57
 -22  -6   1    7.88    8.88
 -22   6   1   12.70   10.23
 -21   6   1   83.31   22.04
 -21  -6   1  110.14   24.44
 -20  -6   1   -4.80    8.19
 -19  -6   1  145.31   27.83
 -19   6   1  149.32   18.58
 -18   6   1   22.25    6.53
 -18  -6   1   13.13    8.33
 -17   6   1  172.22   19.14
 -17  -6   1  160.68   26.42
  17   6  -1  196.67   31.50
  16   6  -1   16.22    9.59
 -16   6   1    6.96    5.41
 -16  -6   1   26.79   11.86
 -15  -6   1  104.20   20.04
  15   6  -1   95.90   21.78
 -15   6   1  108.49   14.55
 -14  -6   1    6.03    4.65
 -14   6   1    1.09    2.17
 -13   6   1  179.87   18.06
 -13  -6   1  165.86   24.00
 -12   6   1    3.68    3.20
 -12  -6   1   -3.74    7.49
  11  -6  -1  136.85   14.06
 -11   6   1  128.04   14.40
 -11  -6   1  146.74   21.72
 -10   6   1    4.57    3.29
  10  -6  -1    4.32    3.28
 -10  -6   1   13.25    8.12
  -9  -6   1  114.37   17.97
   9  -6  -1  113.96   12.35
  -9   6   1  100.18   12.53
  -8  -6   1   88.10   13.65
   8  -6  -1  103.97   11.49
  -8   6   1  100.26   11.98
  -8  -6   1   83.78   14.63
  -7  -6   1  257.26   22.06
  -7   6   1  232.17   17.93
   7  -6  -1  290.90   18.62
  -6   6   1  107.05   12.13
  -6  -6   1  113.68   14.26
   6  -6  -1  122.02   12.05
  -5  -6   1  315.94   22.19
  -5   6   1  325.73   20.48
   5  -6  -1  317.18   19.22
   4  -6  -1   70.12    9.39
  -4   6   1   61.05    9.14
  -4  -6   1   61.20    9.47
  -3  -6   1  316.92   19.37
   3  -6  -1  315.22   18.63
  -3   6   1  339.84   20.65
   2   6  -1    7.94    5.31
  -2  -6   1    5.13    3.69
  -2   6   1   12.11    4.97
   2  -6  -1    9.02    4.77
   1   6  -1  374.71   21.91
   1  -6  -1  382.61   20.65
  -1   6   1  421.77   23.80
  -1  -6   1  389.35   18.98
   0   6  -1   49.13    7.90
   0  -6   1   57.41    7.17
   0   6   1   39.20    7.90
   0  -6  -1   57.31    8.68
   1  -6   1  266.05   15.02
  -1  -6  -1  257.85   17.88
  -1   6  -1  262.63   16.57
   1   6   1  269.60   20.62
  -2   6  -1  210.29   14.43
   2   6   1  210.83   18.94
   2  -6   1  210.81   13.45
  -2  -6  -1  205.63   16.58
   3   6   1  295.21   23.29
  -3  -6  -1  261.52   19.76
  -3   6  -1  255.41   15.73
   3  -6   1  268.54   15.17
   4  -6   1   50.44    6.97
  -4  -6  -1   47.51    9.57
  -4   6  -1   49.59    7.19
   4   6   1   47.64    9.75
  -5   6  -1  252.12   16.01
  -5  -6  -1  240.47   21.23
   5  -6   1  266.95   15.50
   6  -6   1   11.62    3.78
  -6   6  -1   14.77    4.79
  -6  -6  -1   18.58    7.18
  -7  -6  -1  192.06   20.84
   7  -6   1  177.53   13.57
  -7   6  -1  202.13   15.12
  -8  -6  -1   65.82   12.33
   8  -6   1   78.89    9.00
  -8   6  -1   82.34    9.91
  -9   6  -1  215.67   16.47
  -9  -6  -1  252.23   24.94
 -10  -6  -1   -5.81    6.55
 -10   6  -1    8.41    3.79
 -10  -6  -1    5.34    5.57
 -11   6  -1  134.85   14.22
 -11  -6  -1  143.59   20.42
 -11  -6  -1  139.81   20.92
 -12   6  -1    5.01    3.31
 -12  -6  -1    6.74    4.64
 -13  -6  -1  106.33   19.71
  13   6   1  102.61   20.77
 -13   6  -1  106.73   12.95
 -14  -6  -1    3.34    5.49
 -14   6  -1   -3.66    4.48
  14   6   1    3.83    7.96
 -15  -6  -1  159.01   25.07
 -15   6  -1  167.50   17.49
  15   6   1  154.20   27.04
 -16   6  -1   10.58    5.76
 -16  -6  -1    3.31    6.21
  16   6   1    4.60    6.69
  17   6   1   12.46   10.01
 -17  -6  -1   32.74   12.78
 -17   6  -1   27.48    8.00
 -18   6  -1   12.91    5.57
 -18  -6  -1    2.79    5.19
 -19   6  -1   74.40   13.21
 -19  -6  -1   66.16   19.21
 -20   6  -1   14.47   11.61
 -20  -6  -1    7.50    8.42
 -21  -6  -1   80.12   23.15
 -21   6  -1   51.73   16.76
 -22  -6  -1    1.47    5.89
 -22   6  -1   23.39   12.24
 -23   6  -1   69.85   20.26
 -23  -6  -1   30.59   13.54
 -24  -6  -1   -2.89    5.89
 -24   6  -1    0.72    6.82
 -25  -6  -1   60.13   21.51
 -25   6  -1   68.97   21.79
 -26  -6  -1   -4.04   10.59
 -26   6  -1    1.73    6.46
 -27   6  -1   56.13   19.76
 -27  -6  -1   68.25   20.76
 -28  -6  -1    7.50   10.74
 -28   6  -1  -11.37   12.09
 -29   6  -1   45.06   19.93
 -29  -6  -1   51.39   20.00
 -30   6  -1   -2.14    7.68
 -29   7   1   17.57   11.83
 -28  -7   1   93.28   27.41
 -28   7   1   55.26   20.04
 -27   7   1   -0.30    7.94
 -27  -7   1   -1.87    8.87
 -26   7   1   41.71   17.77
 -26  -7   1   63.02   21.08
 -25   7   1   -0.03   10.93
 -25  -7   1   28.85   17.58
 -24   7   1  156.04   29.83
 -24  -7   1  101.02   27.07
 -23  -7   1   21.90   14.75
 -23   7   1   -1.44    6.23
 -22  -7   1  166.40   30.64
 -21  -7   1   28.74   14.01
 -20  -7   1   97.46   22.21
 -19  -7   1    7.17    7.38
 -18   7   1  133.92   17.89
 -18  -7   1  128.54   24.53
 -17   7   1   21.23    8.04
 -17  -7   1   10.28   10.88
 -16   7   1  130.08   16.93
  16   7  -1  152.29   28.62
 -16  -7   1  132.71   24.32
 -15   7   1   14.20    6.26
 -15  -7   1    9.68    7.70
  15   7  -1   17.65    9.15
 -14  -7   1   68.66   17.11
  14   7  -1  126.09   23.57
 -14   7   1   83.50   13.30
 -13   7   1   65.45   11.13
 -13  -7   1   68.26   15.88
  13   7  -1   80.76   19.64
 -12  -7   1   89.50   17.29
  12  -7  -1   93.71   12.41
 -12   7   1   91.05   13.17
 -11  -7   1  106.40   17.48
 -11   7   1  110.88   14.20
 -11  -7   1  112.64   19.27
  11  -7  -1  112.91   13.21
 -10  -7   1   70.98   13.49
  10  -7  -1   90.74   11.85
 -10   7   1   84.58   12.38
 -10  -7   1   82.48   16.73
  -9  -7   1   28.70    9.73
   9  -7  -1   19.89    6.39
  -9   7   1   22.98    6.63
  -8  -7   1  163.31   19.43
  -8   7   1  151.92   15.78
   8  -7  -1  154.28   14.70
  -7   7   1   -8.87    4.14
  -7  -7   1    2.85    3.24
   7  -7  -1    2.16    3.16
  -6   7   1  261.20   19.76
  -6  -7   1  244.81   21.07
   6  -7  -1  254.89   18.27
  -5  -7   1    9.18    4.32
   5  -7  -1    6.93    3.38
  -5   7   1    6.09    3.55
  -4  -7   1  199.87   17.06
   4  -7  -1  209.33   16.39
  -4   7   1  196.19   16.93
  -3  -7   1   74.80   10.06
  -3   7   1   76.89   10.88
   3   7  -1   84.15   12.58
   3  -7  -1   84.43   10.64
  -2   7   1  228.76   18.76
   2   7  -1  228.89   19.35
  -2  -7   1  225.81   16.32
   2  -7  -1  237.38   17.27
  -1   7   1   78.37   11.57
   1  -7  -1   86.86   10.62
  -1  -7   1   75.77    9.35
   1   7  -1   82.06   11.41
   0  -7   1  264.57   16.55
   0  -7  -1  254.81   18.35
   0   7  -1  255.10   19.17
   0   7   1  243.19   20.47
  -1   7  -1  243.66   17.71
   1   7   1  226.29   20.75
   1  -7   1  240.58   15.56
  -1  -7  -1  245.63   18.44
   2  -7   1  263.61   16.28
  -2  -7  -1  249.19   19.15
   2   7   1  233.64   21.44
  -2   7  -1  235.24   16.99
   3  -7   1  212.81   14.65
  -3  -7  -1  184.64   17.40
  -3   7  -1  196.49   15.22
   3   7   1  219.34   21.71
   4   7   1  345.11   27.81
  -4   7  -1  339.36   20.07
  -4  -7  -1  311.27   23.34
   4  -7   1  368.83   19.38
  -5   7  -1   69.92    9.22
   5  -7   1   79.92    9.28
  -5  -7  -1   64.68   11.55
  -6  -7  -1  197.06   20.31
   6  -7   1  198.05   14.64
  -6   7  -1  182.73   15.11
  -7  -7  -1    4.23    4.32
   7  -7   1    5.81    2.56
  -7   7  -1    5.53    3.43
  -8  -7  -1  229.65   23.93
  -8   7  -1  236.92   17.98
   8  -7   1  220.99   15.97
  -9   7  -1   51.28    8.83
   9  -7   1   65.65    8.93
  -9  -7  -1   55.60   12.57
 -10   7  -1  126.49   13.83
 -10  -7  -1  109.71   17.58
 -11   7  -1   28.53    6.54
 -11  -7  -1   25.44    8.69
 -12   7  -1  117.79   14.02
 -12  -7  -1   98.63   18.10
  12   7   1  119.82   22.42
 -12  -7  -1  129.52   21.26
  13   7   1   14.56   10.50
 -13  -7  -1   10.02    6.53
 -13  -7  -1    4.42    4.89
 -13   7  -1   13.10    5.29
 -14  -7  -1  137.45   22.97
  14   7   1  122.47   23.61
 -14   7  -1  137.64   15.96
 -14  -7  -1  134.09   22.30
  15   7   1   46.00   15.12
 -15  -7  -1   40.14   12.36
 -15   7  -1   54.09   10.52
 -16  -7  -1   28.18   11.96
  16   7   1   16.66   10.63
 -16   7  -1   16.92    6.16
 -17   7  -1   21.89    7.35
 -17  -7  -1   32.22   12.06
 -18  -7  -1  126.21   24.83
 -18   7  -1  147.47   18.58
 -19  -7  -1    9.87    6.40
 -19   7  -1   24.92    8.15
 -20  -7  -1  101.66   23.01
 -21   7  -1   23.28   11.26
 -21  -7  -1   26.19   11.99
 -22   7  -1   95.07   23.86
 -22  -7  -1   91.70   23.37
 -23  -7  -1   41.72   15.95
 -23   7  -1   49.14   16.86
 -24   7  -1   85.40   23.69
 -24  -7  -1   63.27   20.48
 -25   7  -1   28.56   12.38
 -25  -7  -1   24.74   13.83
 -26   7  -1   83.98   26.54
 -26  -7  -1   66.96   22.03
 -27  -7  -1   18.30   13.22
 -27   7  -1   27.66   14.96
 -28   7  -1   49.00   16.80
 -28  -7  -1   60.79   20.36
 -29   7  -1    4.38   12.55
 -30   7  -1    4.63    7.97
 -28   8   1  -20.23   13.60
 -27   8   1   27.70   15.73
 -27  -8   1   58.38   21.60
 -26   8   1   39.95   17.19
 -26  -8   1   40.36   17.77
 -25  -8   1   28.91   14.86
 -25   8   1   15.58   10.86
 -24  -8   1    7.60   10.87
 -24   8   1   25.02   15.08
 -23  -8   1   61.11   20.73
 -22  -8   1   22.65   12.70
 -21  -8   1  100.32   24.24
 -20  -8   1   26.71   10.39
 -19  -8   1   79.79   20.83
 -18  -8   1   51.37   16.56
 -17   8   1  105.06   15.97
 -17  -8   1  106.74   22.31
 -16   8   1   56.68   12.18
 -16  -8   1   57.33   18.01
 -15  -8   1  123.54   23.62
 -15   8   1  112.48   16.15
 -14  -8   1   17.86   11.02
 -14  -8   1   45.38   13.38
 -14   8   1   34.34    9.06
  14   8  -1   37.05   14.21
 -13  -8   1   39.31   12.74
 -13  -8   1   48.05   13.94
  13   8  -1   51.86   16.83
 -13   8   1   63.02   12.08
  12  -8  -1  153.73   16.02
  12   8  -1  122.75   23.61
 -12  -8   1  139.74   23.03
 -12  -8   1  131.57   20.35
 -12   8   1  143.77   17.14
  11  -8  -1   39.12    8.41
 -11   8   1   38.27    9.54
  11   8  -1   52.41   14.76
 -11  -8   1   17.75    7.81
 -10   8   1   69.71   11.71
 -10  -8   1   84.94   15.17
  10   8  -1   66.89   16.64
  10  -8  -1   74.60   11.17
  -9   8   1   90.34   12.95
   9  -8  -1  103.45   13.02
  -9  -8   1   94.63   15.63
  -8   8   1   80.69   12.14
   8  -8  -1   96.11   12.32
  -8  -8   1   78.33   14.12
  -7   8   1  115.23   14.33
   7  -8  -1   89.24   11.57
  -7  -8   1  104.24   14.71
  -6  -8   1   91.00   13.36
   6  -8  -1   91.91   11.80
  -6   8   1   82.35   12.02
  -5  -8   1  101.05   13.57
   5  -8  -1  100.00   12.19
  -5   8   1  111.81   13.85
   4  -8  -1   99.35   12.08
  -4   8   1   98.23   13.09
  -4  -8   1   97.67   12.62
   4   8  -1   77.13   15.56
  -3  -8   1  191.67   16.40
   3   8  -1  172.80   18.77
   3   8  -1  188.96   22.92
  -3   8   1  164.66   16.87
   3  -8  -1  184.86   16.21
   2  -8  -1  132.03   13.95
  -2   8   1  133.59   15.57
   2   8  -1  138.48   16.47
  -2  -8   1  142.90   13.89
   1  -8  -1  120.75   13.68
   1   8  -1  116.38   14.58
  -1   8   1  127.90   15.73
  -1  -8   1  133.65   12.83
   0   8  -1   77.78   11.63
   0  -8  -1   73.49   10.49
   0  -8   1   74.78    9.70
   0   8   1   78.83   12.40
   1   8   1  129.73   16.79
  -1  -8  -1  134.11   14.57
   1  -8   1  133.93   12.56
  -1   8  -1  148.00   15.49
  -2  -8  -1   27.97    7.15
  -2   8  -1   25.97    6.54
   2   8   1   30.12    8.76
   2  -8   1   28.80    6.33
   3   8   1   96.67   15.59
  -3  -8  -1   98.66   13.12
  -3   8  -1  105.67   12.25
   3  -8   1   99.81   10.75
  -4   8  -1   87.63   11.16
   4  -8   1   97.35   10.76
   4   8   1  100.45   16.21
  -4  -8  -1  106.19   14.41
  -5  -8  -1  122.22   16.04
  -5   8  -1  138.88   14.05
   5  -8   1  130.36   12.44
  -6  -8  -1   56.83   11.39
   6  -8   1   61.43    8.86
  -6   8  -1   52.09    8.53
  -7   8  -1  152.06   15.08
   7  -8   1  175.40   14.76
  -7  -8  -1  155.37   19.56
   8  -8   1  148.92   13.86
  -8   8  -1  125.86   14.35
  -8  -8  -1  123.31   18.06
   9  -8   1   71.33   10.35
  -9   8  -1   53.06    9.28
  -9  -8  -1   67.25   13.46
  10   8   1   88.30   18.67
 -10   8  -1  112.58   13.58
 -10  -8  -1  105.98   17.84
  10  -8   1  116.00   12.85
  11   8   1   68.85   17.05
 -11  -8  -1   60.57   14.12
 -11   8  -1   57.21   10.05
 -12   8  -1   61.47   10.58
  12   8   1   50.59   15.30
 -12  -8  -1   63.72   15.39
  13   8   1   70.85   18.87
 -13   8  -1   58.05   10.42
 -13  -8  -1   68.74   16.12
  14   8   1   79.88   19.42
 -14   8  -1   69.61   12.21
 -14  -8  -1   65.98   16.56
 -15   8  -1    3.66    3.27
 -15  -8  -1   24.20    9.93
 -15  -8  -1   20.51   10.46
 -16   8  -1   30.70    8.71
 -16  -8  -1   50.15   16.75
 -16  -8  -1   44.89   15.07
 -17  -8  -1   75.85   18.61
 -17   8  -1   94.43   14.76
 -17  -8  -1   93.54   21.23
 -18  -8  -1   30.54   13.50
 -18   8  -1   27.82    8.80
 -18  -8  -1   35.62   24.69
 -19  -8  -1   65.57   18.62
 -19  -8  -1   91.58   23.27
 -20  -8  -1   32.67   13.71
 -21  -8  -1   76.30   20.33
 -22  -8  -1   17.81   12.58
 -23  -8  -1   99.80   27.01
 -23   8  -1   81.28   23.08
 -24   8  -1   48.81   17.09
 -24  -8  -1   52.43   19.15
 -25  -8  -1   52.48   20.98
 -25   8  -1   74.81   25.15
 -26   8  -1    6.47   10.50
 -26  -8  -1   32.46   14.18
 -27  -8  -1   59.29   19.42
 -27   8  -1   14.76   13.48
 -28   8  -1   -0.03   10.96
 -29   8  -1   -3.71    6.43
 -28   9   1   16.52   11.82
 -27   9   1    6.94    8.76
 -26  -9   1   18.03   21.48
 -26   9   1   12.62   12.17
 -25  -9   1   25.85   17.61
 -25   9   1   19.73   13.65
 -24  -9   1   12.86   11.97
 -23  -9   1   34.50   17.35
 -22  -9   1    8.39    9.85
 -21  -9   1   38.37   16.16
 -20  -9   1   61.42   20.69
 -20  -9   1   25.56   12.76
 -19  -9   1   55.06   16.78
 -19  -9   1   20.00   10.94
 -18  -9   1   11.33   10.39
 -18  -9   1   42.01   16.08
 -17  -9   1   50.89   16.37
 -17  -9   1   29.46   12.91
 -16   9   1   48.35   11.11
 -16  -9   1   40.45   15.84
 -16  -9   1   40.13   13.65
 -15   9   1   88.59   15.40
 -15  -9   1   60.25   17.15
 -14   9   1   49.82   11.95
 -14  -9   1   23.31   10.40
 -13   9   1   14.33    5.89
  13  -9  -1   30.15    7.87
  12   9  -1    7.22    5.80
 -12   9   1   11.21    5.14
 -12  -9   1   -6.06    6.58
  12  -9  -1   18.92    6.35
 -11  -9   1   42.12   11.56
  11  -9  -1   50.93    9.70
  11   9  -1   48.83   15.23
 -11   9   1   48.02   10.45
  10  -9  -1   24.99    6.58
 -10  -9   1   14.12    7.40
  10   9  -1   22.31    9.91
 -10   9   1   15.69    5.55
  -9   9   1   68.62   11.78
   9   9  -1   76.63   19.14
  -9  -9   1   70.28   13.58
   9  -9  -1   77.65   11.83
  -8   9   1   21.26    6.78
   8  -9  -1   21.36    6.74
   8   9  -1   30.38   12.86
  -8  -9   1   17.77    7.42
   7   9  -1   74.68   16.63
   7  -9  -1  106.25   13.35
  -7   9   1  111.42   15.01
  -7  -9   1  102.57   15.10
  -6   9   1   39.26    9.37
  -6  -9   1   42.18    9.14
   6  -9  -1   31.85    7.34
   6   9  -1   35.89   11.68
   5  -9  -1  118.58   13.63
  -5   9   1   93.56   13.60
   5   9  -1   85.31   17.43
  -5  -9   1   90.17   13.05
   4  -9  -1   61.65    9.91
  -4   9   1   72.51   12.05
   4   9  -1   65.51   15.07
  -4  -9   1   73.85   11.42
   3   9  -1  108.53   18.03
   3   9  -1   76.57   13.65
  -3   9   1   95.25   14.26
  -3  -9   1   94.54   12.37
   3  -9  -1   80.89   11.58
  -2   9   1   70.40   12.29
   2  -9  -1   61.19    9.98
   2   9  -1   42.61   10.07
  -2  -9   1   55.60    9.20
   1  -9  -1   61.99   10.40
  -1  -9   1   62.01    9.60
   1   9  -1   54.58   11.06
  -1   9   1   50.59   11.11
   0  -9  -1   58.25    9.96
   0   9  -1   58.30   11.29
   0   9   1   64.23   12.51
   0  -9   1   55.39    9.03
   1  -9   1   16.21    4.75
   1   9   1   31.89    9.30
  -1  -9  -1   25.48    7.45
  -1   9  -1   18.51    6.10
  -2  -9  -1   76.27   11.98
   2  -9   1   68.65    9.66
  -2   9  -1   75.51   11.70
   2   9   1   63.64   12.98
  -3  -9  -1   50.49   10.16
   3  -9   1   54.03    8.72
   3   9   1   51.41   12.53
  -3   9  -1   42.79    8.77
   4   9   1   41.29   10.91
  -4   9  -1   42.71    8.50
  -4  -9  -1   33.09    8.59
   4  -9   1   36.42    7.08
  -5   9  -1   38.03    8.33
   5  -9   1   54.25    8.40
  -5  -9  -1   52.94   10.63
   6  -9   1   51.71    8.49
  -6   9  -1   56.69    9.98
   6   9   1   42.25   12.08
  -6  -9  -1   56.24   11.48
   7  -9   1  125.85   13.36
  -7  -9  -1  119.84   17.14
   7   9   1  111.24   20.47
  -7   9  -1  111.56   13.92
   8  -9   1   61.94    9.31
  -8  -9  -1   52.22   12.26
   8   9   1   43.12   13.36
  -8   9  -1   42.06    8.85
   9   9   1  122.39   22.71
   9  -9   1  115.93   13.12
  -9   9  -1  119.26   14.82
  -9  -9  -1  119.26   18.86
 -10   9  -1   47.66    9.43
  10  -9   1   51.44    8.76
  10   9   1   60.52   16.94
 -10  -9  -1   49.22   12.36
 -11   9  -1   66.02   11.39
 -11  -9  -1   88.50   17.14
  11   9   1   75.48   18.34
  12   9   1   25.93   12.03
 -12   9  -1   25.67    7.00
 -12  -9  -1   24.12    9.13
 -13  -9  -1   56.44   15.16
 -13   9  -1   67.22   11.94
 -14  -9  -1   15.25    8.76
 -14   9  -1    9.40    5.52
 -15   9  -1   37.14    9.88
 -15  -9  -1   38.41   12.90
 -16   9  -1   36.97    9.44
 -16  -9  -1   38.80   14.13
 -17  -9  -1   40.12   14.04
 -17   9  -1   24.40    7.37
 -18  -9  -1   47.09   15.69
 -18  -9  -1   35.33   15.50
 -19  -9  -1   38.35   14.93
 -19  -9  -1   45.19   16.35
 -20  -9  -1   20.85   14.38
 -20  -9  -1   43.69   16.79
 -21  -9  -1   11.00   11.04
 -21  -9  -1   11.11    8.35
 -22  -9  -1   31.73   14.20
 -22  -9  -1   20.95   14.19
 -23  -9  -1   16.88   13.05
 -23  -9  -1    6.27    9.24
 -24   9  -1   47.00   19.59
 -24  -9  -1   43.50   18.12
 -24  -9  -1   42.70   16.58
 -25  -9  -1   39.56   19.42
 -25  -9  -1   29.02   15.90
 -25   9  -1   52.43   18.91
 -26   9  -1   30.15   15.63
 -26  -9  -1   35.39   14.15
 -27   9  -1   -3.76    8.14
 -28   9  -1    3.94   11.26
 -26  10   1    3.77   10.73
 -26 -10   1    5.51   12.38
 -25 -10   1   19.78   13.02
 -24 -10   1   32.72   18.24
 -24 -10   1   -9.65    9.48
 -23 -10   1  -22.70   12.49
 -23 -10   1   -4.57   10.02
 -22 -10   1   28.34   15.68
 -22 -10   1   25.43   11.28
 -21 -10   1   -9.84    6.31
 -21 -10   1   -7.96    8.25
 -20 -10   1   24.68   13.89
 -20 -10   1    7.87    9.31
 -19 -10   1   11.17   11.99
 -18 -10   1    8.16    9.29
 -17 -10   1    5.80    7.57
 -16 -10   1   20.18   10.53
 -15  10   1   -3.95    4.03
 -15 -10   1  -17.54    9.11
 -14  10   1   82.51   14.62
 -14 -10   1   60.70   16.66
 -13  10   1    7.73    5.27
  13 -10  -1    3.53    4.03
 -13 -10   1    0.42    5.13
 -12 -10   1    7.65    6.06
  12 -10  -1    0.77    3.30
 -12  10   1    5.02    4.74
 -11 -10   1    3.54    4.74
  11 -10  -1    3.78    3.49
 -11  10   1   -0.72    3.84
  10  10  -1   22.22   10.52
 -10 -10   1   16.40    6.80
  10 -10  -1   29.82    7.66
 -10  10   1   25.57    8.12
  -9  10   1   -2.34    2.76
  -9 -10   1    3.33    4.83
   9 -10  -1    4.88    3.39
   9  10  -1   11.19    9.39
  -8  10   1   42.75   10.30
   8  10  -1   20.72    9.08
  -8 -10   1   34.15   10.07
   8 -10  -1   42.20    8.91
  -7  10   1    7.38    4.59
  -7 -10   1   -7.07    5.89
   7 -10  -1    2.96    2.53
   7  10  -1    1.04    5.45
  -6 -10   1   50.35   10.59
  -6  10   1   40.25    9.80
   6 -10  -1   49.37    9.56
   6  10  -1   25.92   11.55
   5 -10  -1   13.01    5.02
  -5 -10   1   17.68    6.75
  -5  10   1   11.29    5.69
   5  10  -1   14.17    9.09
   4  10  -1   54.27   14.44
  -4 -10   1   67.97   11.21
   4 -10  -1   71.22   11.44
  -4  10   1   54.66   11.51
   3  10  -1   23.07    9.91
  -3  10   1    8.74    5.16
   3 -10  -1    9.38    4.65
  -3 -10   1   14.41    5.66
   3  10  -1    8.55    5.90
  -2 -10   1   48.11    9.24
  -2  10   1   39.69   10.55
   2 -10  -1   41.94    9.05
   2  10  -1   42.63   11.45
  -1  10   1   10.84    6.25
   1  10  -1   10.83    5.19
  -1 -10   1   16.64    5.73
   1 -10  -1   14.24    5.33
   0  10  -1   44.87   10.32
   0 -10   1   51.65    9.27
   0 -10  -1   57.95   10.42
   0  10   1   45.66   11.82
  -1  10  -1    5.59    4.31
   1 -10   1    8.72    4.01
   1  10   1    1.23    4.70
  -1 -10  -1    5.86    3.82
   2  10   1   17.58    7.16
  -2  10  -1   24.63    7.49
  -2 -10  -1   31.64    8.92
   2 -10   1   22.07    6.49
  -3  10  -1    7.88    4.28
   3 -10   1    3.57    3.29
  -3 -10  -1   10.87    4.83
   3  10   1   -2.02    4.18
   4  10   1   11.12    6.95
   4 -10   1   12.60    4.63
  -4 -10  -1    4.94    4.24
  -4  10  -1   16.12    6.27
   4  10   1   12.29    7.14
   5 -10   1   10.29    4.63
   5  10   1    3.65    6.12
  -5 -10  -1    8.31    5.61
  -5  10  -1    6.15    4.88
  -6  10  -1   59.56   10.81
   6 -10   1   54.11    9.04
   6  10   1   53.05   16.78
  -6 -10  -1   65.75   13.39
   7  10   1    9.06    8.54
  -7  10  -1   12.13    5.66
  -7 -10  -1   11.05    6.20
   7 -10   1   11.81    5.00
  -8 -10  -1   43.19   11.28
   8 -10   1   41.45    8.23
  -8  10  -1   44.95    9.35
   8  10   1   55.17   15.80
  -9  10  -1   12.19    5.81
   9 -10   1   14.12    5.07
  -9 -10  -1   16.48    7.54
   9  10   1    3.01    5.24
 -10 -10  -1   37.64   11.47
 -10  10  -1   35.26    8.61
  10 -10   1   37.12    7.84
  11 -10   1   22.07    6.24
 -11 -10  -1   19.28    8.42
 -11  10  -1   17.17    5.96
 -12 -10  -1   46.05   12.85
 -12  10  -1   57.72   11.65
 -13 -10  -1    9.60    9.03
 -13  10  -1   16.38    6.44
 -14 -10  -1   28.55   12.75
 -14  10  -1   28.97    8.88
 -15  10  -1   17.75    6.43
 -15 -10  -1   24.85   12.31
 -16 -10  -1    7.05    7.20
 -16  10  -1   24.97    8.00
 -17 -10  -1   13.45   10.57
 -18 -10  -1   11.56   10.05
 -19 -10  -1   19.14   12.54
 -20 -10  -1   -1.21    5.57
 -21 -10  -1   12.85   12.03
 -22 -10  -1   -1.59    7.04
 -23 -10  -1   27.17   14.40
 -24 -10  -1   -0.17   10.87
 -24 -10  -1   12.79   11.48
 -25 -10  -1   -2.85    7.16
 -25  10  -1   32.30   17.42
 -26  10  -1   -8.23   14.01
 -27  10  -1   -8.78   10.75
 -25 -11   1    0.03   14.19
 -24 -11   1    2.87    8.44
 -23 -11   1   -1.02    7.97
 -22 -11   1    3.11    9.51
 -21 -11   1    0.54    9.05
 -20 -11   1    2.61    7.65
 -19 -11   1   -5.51    6.85
 -18 -11   1   -5.10    6.25
 -17 -11   1    0.88    5.20
 -16 -11   1    0.06    6.69
 -15 -11   1    8.44    8.97
 -14 -11   1    5.38    5.78
  14 -11  -1   13.10    6.43
 -13 -11   1    6.00    6.69
  13 -11  -1   14.78    6.16
 -13  11   1   16.29    7.76
 -12  11   1   -6.94    4.71
 -12 -11   1    4.00    5.57
  12 -11  -1   10.57    5.83
  11 -11  -1    2.11    3.49
 -11  11   1   -3.36    3.11
 -11 -11   1   -3.58    5.55
 -10 -11   1   11.18    6.48
  10 -11  -1    4.55    3.36
 -10  11   1    6.06    4.24
  -9 -11   1    2.51    4.80
   9 -11  -1    7.08    4.71
  -9  11   1    3.63    3.56
   8 -11  -1    8.90    4.51
  -8  11   1   -0.01    4.15
  -8 -11   1    1.25    4.84
  -7  11   1   13.38    6.69
   7 -11  -1    9.92    4.91
  -7 -11   1   11.44    6.31
  -6 -11   1    9.89    5.37
  -6  11   1   -2.67    3.70
   6 -11  -1    8.99    4.82
   6  11  -1   18.43   10.87
   5  11  -1   10.68    8.35
  -5  11   1   10.53    6.85
   5 -11  -1   24.43    7.07
  -5 -11   1   10.19    5.15
  -4  11   1    5.30    4.62
   4 -11  -1    6.43    3.63
   4  11  -1    1.02    6.16
  -4 -11   1   -2.38    2.79
  -3  11   1   14.05    6.73
  -3 -11   1    3.91    3.94
   3 -11  -1    5.72    3.17
   3  11  -1    7.35    8.15
   2 -11  -1    2.47    2.73
  -2  11   1    1.74    3.78
  -2 -11   1    0.59    2.78
   2  11  -1    0.13    5.02
   2  11  -1    8.93    5.50
   1 -11  -1   14.56    5.74
  -1  11   1   11.21    6.11
  -1 -11   1   17.43    5.98
   1  11  -1    8.52    5.16
   0  11  -1   -2.22    5.28
   0 -11  -1    9.11    6.22
   0 -11   1    1.21    3.58
   0  11   1    2.20    4.73
  -1 -11  -1   15.80    6.47
  -1  11  -1    4.61    4.41
   1 -11   1   25.09    6.72
   1  11   1   11.36    7.06
  -2 -11  -1    0.55    3.95
  -2  11  -1    1.45    4.26
   2  11   1   15.15    6.68
   2 -11   1    9.15    5.08
  -3 -11  -1    6.22    4.62
   3 -11   1    2.47    2.64
  -3  11  -1    0.58    4.27
   3  11   1   15.41   10.39
   3  11   1   -3.47    6.19
   4  11   1    1.18    5.72
  -4  11  -1    4.21    3.70
   4 -11   1    3.69    3.76
  -4 -11  -1   -3.62    3.56
   4  11   1  -10.38   10.60
  -5  11  -1   -5.09    5.36
  -5 -11  -1   -1.13    3.77
   5  11   1   -6.15    7.56
   5 -11   1    0.42    2.25
  -6 -11  -1   -4.00    5.64
  -6  11  -1    7.55    4.98
   6 -11   1    8.42    4.46
   7 -11   1   10.01    4.49
  -7 -11  -1    3.18    5.01
  -7  11  -1    7.70    4.22
  -8  11  -1    0.78    3.97
   8 -11   1    8.36    4.87
  -8 -11  -1    1.87    4.45
  -9  11  -1    3.70    3.61
  -9 -11  -1    3.81    5.31
   9 -11   1    7.68    4.24
 -10 -11  -1   14.90    8.62
  10 -11   1    7.17    3.09
 -10  11  -1   -4.35    4.55
  11 -11   1    8.49    4.79
 -11  11  -1    8.96    6.13
 -11 -11  -1    5.65    5.71
 -12 -11  -1   -2.03    5.36
 -12  11  -1    5.06    4.39
 -13 -11  -1    5.66    5.92
 -13  11  -1   15.77    6.68
 -14  11  -1    4.48    6.45
 -14 -11  -1    2.79    5.50
 -15 -11  -1   20.15   10.77
 -15  11  -1   15.64    7.23
 -16 -11  -1   -5.62    6.79
 -17 -11  -1    8.94    8.88
 -18 -11  -1    7.56    9.28
 -19 -11  -1   -0.63    5.39
 -20 -11  -1  -10.35    8.82
 -21 -11  -1   -1.91    5.71
 -22 -11  -1  -13.95   10.22
 -23 -11  -1  -10.74    9.56
 -24 -11  -1   40.43   18.76
 -26  11  -1    6.31   10.58
 -24 -12   1    1.63    8.29
 -23 -12   1   23.08   15.70
 -22 -12   1   13.51   12.13
 -21 -12   1    1.62    6.09
 -20 -12   1   -0.71    5.41
 -19 -12   1   19.55   11.09
 -18 -12   1   12.72   10.49
 -17 -12   1   10.66    8.34
 -16 -12   1  -10.20    7.81
 -15 -12   1    9.03    7.08
  14 -12  -1    1.08    3.09
 -14 -12   1    2.55    6.49
 -13 -12   1    8.66    7.04
  13 -12  -1   15.06    5.85
  12 -12  -1    8.74    5.78
 -12 -12   1   -0.50    5.11
  11 -12  -1   21.66    7.68
 -11  12   1   14.03    6.87
 -11 -12   1    5.18    5.46
  10 -12  -1    6.59    4.86
 -10 -12   1    3.63    5.42
 -10  12   1   -5.71    5.80
   9 -12  -1   16.20    6.45
  -9  12   1    4.34    5.41
  -9 -12   1    6.14    4.65
   8 -12  -1    5.53    4.67
  -8  12   1    0.26    4.70
  -8 -12   1   -1.20    4.33
  -7 -12   1   18.41    7.88
   7 -12  -1    8.66    4.91
  -7  12   1   -4.02    5.90
   6 -12  -1    3.55    4.65
  -6  12   1   -4.94    5.11
  -6 -12   1   -0.90    3.74
   5 -12  -1   10.64    5.40
  -5  12   1    4.39    5.49
  -5 -12   1    9.23    6.14
  -4 -12   1   -3.60    2.85
   4 -12  -1    1.34    3.18
  -4  12   1   -9.55    5.68
   3 -12  -1    7.25    4.87
  -3 -12   1    0.65    3.25
  -3  12   1    5.82    5.53
  -2  12   1   -1.73    4.47
   2  12  -1    5.28    5.54
  -2 -12   1    0.60    3.43
   2 -12  -1   -5.30    5.34
  -1  12   1   19.38    8.61
   1  12  -1    4.64    3.96
  -1 -12   1    7.29    4.16
   1 -12  -1    9.65    5.76
   0  12   1   -0.34    4.26
   0  12  -1   -5.20    8.43
   0 -12   1    4.86    4.66
   0 -12  -1    1.64    4.55
  -1 -12  -1   18.09    7.48
   1  12   1    8.94    6.25
   1 -12   1   16.32    5.63
  -1  12  -1   17.74    8.78
  -2 -12  -1   -2.00    3.84
  -2  12  -1    3.30    5.47
   2  12   1   -9.80    9.04
   2 -12   1    0.16    2.66
  -3 -12  -1   16.02    7.39
  -3  12  -1   12.26    6.15
   3  12   1   17.01   10.89
   3 -12   1   20.28    7.07
  -4  12  -1   -4.95    6.58
  -4 -12  -1   -0.01    4.10
   4 -12   1   -4.28    4.25
  -5  12  -1   17.36    7.13
   5 -12   1   13.30    5.89
  -5 -12  -1    1.91    4.73
   6 -12   1   12.18    5.13
  -6 -12  -1   12.75    6.17
  -6  12  -1    6.12    5.89
  -7 -12  -1   -2.81    5.57
   7 -12   1    8.82    4.81
  -7  12  -1    6.42    5.80
  -8  12  -1    1.95    3.34
   8 -12   1    3.29    3.37
  -8 -12  -1    3.58    4.63
  -9  12  -1    5.63    5.49
   9 -12   1   12.88    5.95
  -9 -12  -1   -3.96    5.13
  10 -12   1   -2.30    3.56
 -10  12  -1   -5.80    4.22
 -10 -12  -1    2.80    6.06
 -11  12  -1   -4.00    4.23
  11 -12   1    7.74    5.18
 -11 -12  -1   13.07    8.56
 -12 -12  -1    1.71    5.18
 -12  12  -1   13.06    7.32
 -13  12  -1   -1.68    4.00
 -13 -12  -1   -1.03    4.07
 -14 -12  -1    1.99    7.16
 -15 -12  -1    8.91    6.92
 -16 -12  -1    3.36    6.11
 -17 -12  -1    4.68    6.03
 -18 -12  -1    8.44    7.87
 -19 -12  -1    5.40    8.62
 -20 -12  -1    3.51    7.15
 -21 -12  -1    4.84    8.45
 -22 -12  -1    8.34    8.75
 -23 -12  -1   12.01   11.27
 -23 -13   1   21.39   14.21
 -22 -13   1   14.77    8.91
 -21 -13   1    0.63    8.38
 -20 -13   1   17.45   12.44
 -19 -13   1   -5.14    6.66
 -18 -13   1   19.99   11.88
 -17 -13   1    0.97    5.03
 -16 -13   1   11.01    8.18
 -15 -13   1    0.99    5.94
 -14 -13   1   13.14    9.12
  14 -13  -1    0.70    3.74
  13 -13  -1   -3.34    3.90
 -13 -13   1    5.19    6.60
 -12 -13   1    9.91    7.04
  12 -13  -1    8.40    5.14
  11 -13  -1   -0.35    3.16
 -11 -13   1    9.02    7.63
  10 -13  -1   19.20    7.44
 -10 -13   1   11.55    6.96
  -9 -13   1    1.60    4.29
   9 -13  -1   -0.61    3.93
  -8  13   1    3.75    3.50
   8 -13  -1    9.15    5.78
  -8 -13   1   -0.25    3.99
  -7 -13   1    4.89    5.26
   7 -13  -1    4.07    5.34
  -6 -13   1    9.50    6.13
   6 -13  -1   10.46    4.93
  -6  13   1   11.91    7.58
   5 -13  -1   12.27    5.90
  -5  13   1    3.62    4.01
  -5 -13   1   11.08    5.67
  -4  13   1   10.66    5.81
  -4 -13   1   22.08    7.82
   4 -13  -1   23.53    7.92
  -3  13   1    7.42    7.83
   3 -13  -1    9.49    5.93
  -3 -13   1    6.77    4.51
  -2  13   1   24.72   11.55
   2 -13  -1   24.29    8.30
  -2 -13   1   24.72    8.13
   2  13  -1   44.17   14.68
  -1 -13   1   -3.18    4.12
   1  13  -1   11.52    8.89
   1 -13  -1    1.16    4.50
   0  13   1   58.50   20.56
   0 -13  -1   34.77   10.36
   0  13  -1   27.08   10.85
   0 -13   1   42.60    9.60
   1  13   1    5.81    6.09
   1 -13   1    1.51    4.43
  -1 -13  -1    5.98    4.89
  -1  13  -1   -2.79    5.69
   2  13   1   21.38    8.93
   2 -13   1   28.61    8.19
  -2  13  -1    1.83    6.01
  -2 -13  -1   46.01   10.76
  -3  13  -1   -4.94    5.47
   3 -13   1   14.66    5.73
   3  13   1   14.23    7.76
  -3 -13  -1   11.38    5.72
  -4  13  -1   17.78    7.73
  -4 -13  -1   23.05    8.12
   4 -13   1   39.38    9.37
  -5  13  -1   16.84    8.41
  -5 -13  -1   12.64    7.40
   5 -13   1   11.44    5.45
  -6 -13  -1   10.12    5.53
  -6  13  -1   25.44    9.33
   6 -13   1   26.62    7.80
   7 -13   1   17.76    7.10
  -7 -13  -1   17.54    7.63
  -7  13  -1   16.60    7.78
  -8 -13  -1   15.33    7.74
  -8  13  -1   15.35    7.40
   8 -13   1   22.89    7.52
   9 -13   1   13.99    5.97
  -9 -13  -1    5.86    6.84
  -9  13  -1   14.61    7.20
 -10 -13  -1    2.57    4.24
  10 -13   1   18.07    7.09
 -10  13  -1    2.92    6.12
 -11 -13  -1    3.74    6.51
 -11  13  -1    5.58    4.81
  11 -13   1   -0.15    3.22
 -12 -13  -1    5.27    4.86
  12 -13   1   14.15    6.27
 -13 -13  -1   -0.62    4.34
 -14 -13  -1    8.25    8.29
 -15 -13  -1    2.65    8.04
 -16 -13  -1    2.67    8.15
 -17 -13  -1   14.19   10.57
 -18 -13  -1   16.06   12.40
 -19 -13  -1   -9.18    8.51
 -20 -13  -1   34.59   15.12
 -21 -13  -1   -0.39    8.45
 -21 -14   1    2.13    4.99
 -20 -14   1  -11.97    8.97
 -19 -14   1    1.77    6.40
 -18 -14   1    4.23    5.43
 -17 -14   1   10.40   10.14
 -16 -14   1   -1.00    4.94
 -15 -14   1    8.77    7.39
  14 -14  -1    5.91    5.14
 -14 -14   1    2.26    4.04
  13 -14  -1    0.14    5.06
 -13 -14   1   11.03    8.58
  12 -14  -1    9.15    5.80
 -12 -14   1    2.83    5.99
  11 -14  -1    9.86    6.06
 -11 -14   1    8.22    6.02
  10 -14  -1    5.76    5.79
 -10 -14   1  -11.11    6.65
   9 -14  -1    9.04    5.43
  -9 -14   1   20.34    9.03
  -8 -14   1    5.52    6.07
   8 -14  -1    3.92    3.05
  -7 -14   1    0.23    4.80
   7 -14  -1    4.55    4.85
  -6 -14   1    7.82    4.76
   6 -14  -1    5.00    5.16
   5 -14  -1   21.92    7.71
  -5 -14   1   20.23    7.84
   4 -14  -1    2.46    4.13
  -4 -14   1   -0.32    3.54
   3 -14  -1   18.73    7.33
  -3 -14   1   32.98    9.73
  -2 -14   1    4.76    3.74
   2 -14  -1   17.90    7.76
  -1 -14   1   20.82    7.77
   1  14  -1   13.08    8.57
   1 -14  -1   14.04    7.00
   0 -14   1    4.54    3.49
   0  14  -1   24.54   12.19
   0 -14  -1    6.74    5.11
  -1  14  -1   43.47   14.70
   1 -14   1   35.31    9.44
  -1 -14  -1   16.80    7.14
  -2  14  -1    9.92   10.49
  -2 -14  -1    3.59    4.29
   2 -14   1   13.09    6.74
   3 -14   1   19.44    7.56
  -3 -14  -1    8.64    6.32
  -3  14  -1   43.66   14.49
  -4  14  -1    0.05    4.94
   4 -14   1    8.81    5.67
  -4 -14  -1   10.18    6.55
  -5 -14  -1    5.22    4.28
   5 -14   1   10.40    5.68
  -5  14  -1   14.88    7.68
  -6 -14  -1    4.68    3.82
   6 -14   1   -5.55    4.71
  -7  14  -1   13.50    8.82
  -7 -14  -1    8.27    6.58
   7 -14   1    7.36    4.48
   8 -14   1    6.71    5.58
  -8  14  -1    9.98    8.21
   9 -14   1   12.67    6.40
  -9 -14  -1   16.87    7.82
  -9  14  -1    0.05    3.20
 -10 -14  -1    0.94    4.07
  10 -14   1    2.32    4.13
  11 -14   1   15.78    6.94
 -11 -14  -1    8.49    5.67
 -12 -14  -1    1.62    5.83
  12 -14   1    0.23    5.02
 -13 -14  -1    6.00    7.08
 -14 -14  -1    9.25    6.55
 -15 -14  -1   23.27   11.55
 -16 -14  -1    2.49    6.83
 -17 -14  -1    9.96   10.75
 -18 -14  -1   11.99   11.98
 -19 -14  -1    9.21    8.94
 -20 -14  -1    6.20    6.27
 -20 -15   1    1.50    4.92
 -19 -15   1    9.87    9.91
 -18 -15   1    1.63    4.94
 -17 -15   1    0.02    5.18
 -16 -15   1   17.28   12.08
 -15 -15   1  -18.45    9.44
 -14 -15   1   -0.40    5.13
  14 -15  -1   -0.69    3.75
  13 -15  -1    0.64    5.61
 -13 -15   1    1.06    4.14
 -12 -15   1   41.76   10.42
  12 -15  -1    1.65    4.23
  11 -15  -1   -0.17    4.35
 -11 -15   1  -12.49    7.33
 -10 -15   1    2.04    4.79
  10 -15  -1    6.96    5.24
   9 -15  -1    8.67    6.21
  -9 -15   1    0.19    4.83
   8 -15  -1    8.93    6.63
  -8 -15   1    3.27    3.28
  -7 -15   1    4.51    4.82
   7 -15  -1   18.20    8.47
  -6 -15   1    3.46    4.41
   6 -15  -1    3.71    5.47
   5 -15  -1    1.83    4.19
  -5 -15   1   -1.90    4.78
   4 -15  -1   10.89    6.77
  -4 -15   1    7.92    5.47
   3 -15  -1    3.71    5.26
  -3 -15   1    8.80    5.84
  -2 -15   1   14.26    6.92
   2 -15  -1    5.67    4.08
  -1 -15   1   10.76    5.44
   1 -15  -1   -3.87    5.68
   0 -15  -1    8.83    5.98
   0 -15   1    9.46    5.38
   1 -15   1    5.94    5.42
  -1 -15  -1   11.58    7.72
   2 -15   1   12.77    6.90
  -2 -15  -1    5.10    3.48
  -3 -15  -1    3.23    4.89
   3 -15   1   19.84    8.00
   4 -15   1    0.41    3.53
  -4 -15  -1   10.50    6.87
  -5 -15  -1    7.78    6.84
   5 -15   1   -4.24    4.79
  -6 -15  -1   -0.87    4.86
   6 -15   1    5.59    4.32
   7 -15   1   17.66    6.85
  -7 -15  -1    6.40    5.49
  -8 -15  -1    5.58    6.59
   8 -15   1   12.17    7.17
  -9 -15  -1   -6.99    5.88
   9 -15   1    8.03    5.75
 -10 -15  -1    5.33    5.86
  10 -15   1    7.16    4.87
 -11 -15  -1   -0.85    4.85
  11 -15   1   -8.13    5.30
 -12 -15  -1   13.32    9.41
 -13 -15  -1    3.83    6.15
 -14 -15  -1  -18.99    9.73
 -15 -15  -1  -13.01    8.42
 -16 -15  -1   -9.21    8.15
 -17 -15  -1   13.55    9.20
 -18 -15  -1    3.47    9.75
 -18 -16   1    1.11    6.19
 -17 -16   1    8.95   11.31
 -16 -16   1    6.69    9.06
 -15 -16   1    5.38    5.85
 -14 -16   1    4.88    5.80
  14 -16  -1   -8.46    5.95
 -13 -16   1  -27.32   10.67
  13 -16  -1    5.62    5.74
 -12 -16   1   -3.95    4.91
  12 -16  -1    1.61    4.59
  11 -16  -1    6.85    5.97
 -11 -16   1    7.14    7.65
 -10 -16   1   10.13    7.57
  10 -16  -1   -0.32    6.23
  -9 -16   1    7.18    4.59
   9 -16  -1   -0.57    5.75
   8 -16  -1   16.05    8.02
  -8 -16   1   -1.57    3.80
  -7 -16   1   -5.31    5.26
   7 -16  -1   -3.23    5.95
  -6 -16   1   10.98    6.60
   6 -16  -1    3.34    3.71
  -5 -16   1    3.49    4.70
   5 -16  -1   -0.38    3.99
  -4 -16   1    1.29    5.21
   4 -16  -1    0.10    4.71
   3 -16  -1    9.42    6.50
  -3 -16   1  -22.42    8.62
   2 -16  -1  -10.62    6.47
  -2 -16   1  -15.71    7.46
   1 -16  -1    5.97    4.43
  -1 -16   1    4.12    5.85
   0 -16   1   10.87    6.98
   0 -16  -1    2.17    3.66
   1 -16   1  -10.68    6.35
  -1 -16  -1   -3.00    4.32
   2 -16   1    9.94    7.23
  -2 -16  -1    5.21    4.33
   3 -16   1    5.47    5.14
  -3 -16  -1   18.23    8.18
  -4 -16  -1    6.67    6.58
   4 -16   1    4.79    3.85
   5 -16   1    4.44    5.99
  -5 -16  -1    1.39    5.28
   6 -16   1   -4.90    4.81
  -6 -16  -1    1.91    4.39
   7 -16   1   13.99    7.74
  -7 -16  -1   13.56    8.62
  -8 -16  -1   -4.61    5.39
   8 -16   1    6.91    5.92
   9 -16   1    1.64    4.63
  -9 -16  -1    2.84    4.38
 -10 -16  -1  -32.23   11.47
  10 -16   1   -1.01    3.46
  11 -16   1    4.84    4.75
 -11 -16  -1  -12.47    7.87
 -12 -16  -1    2.19    7.02
 -13 -16  -1    1.05    4.64
 -14 -16  -1   10.39    8.61
 -15 -16  -1    7.78    7.00
 -16 -16  -1    3.00    5.92
 -14 -17   1   -0.40    4.09
  13 -17  -1   -0.19    3.87
 -13 -17   1    4.25    5.24
 -12 -17   1   -1.64    4.24
  12 -17  -1  -20.40    9.12
 -11 -17   1    0.78    6.13
  11 -17  -1  -24.23    9.54
  10 -17  -1   -1.10    4.03
 -10 -17   1  -35.22   11.82
  -9 -17   1  -16.90    8.51
   9 -17  -1    4.17    4.85
  -8 -17   1  -20.42    9.01
   8 -17  -1    0.37    4.80
  -7 -17   1   -9.14    6.50
   7 -17  -1    5.31    5.00
  -6 -17   1   11.05    7.91
   6 -17  -1    8.40    7.62
   5 -17  -1   -8.16    6.15
  -5 -17   1   -4.53    7.04
   4 -17  -1   -1.81    3.68
  -4 -17   1   -1.99    3.79
   3 -17  -1   -1.30    3.87
  -3 -17   1   -3.07    6.57
   2 -17  -1   -6.67    5.91
  -2 -17   1  -12.66    7.06
   1 -17  -1    1.23    3.58
  -1 -17   1  -11.15    6.64
   0 -17   1    1.37    5.54
   0 -17  -1    5.76    4.47
  -1 -17  -1    4.15    3.65
   1 -17   1  -16.05    7.76
  -2 -17  -1   11.47    5.14
   2 -17   1    0.21    3.45
   3 -17   1   -8.31    7.18
  -3 -17  -1   -9.58    6.51
   4 -17   1    0.75    3.49
  -4 -17  -1   23.15    9.79
   5 -17   1  -15.15    7.52
  -5 -17  -1  -13.98    7.90
  -6 -17  -1    3.20    4.42
  -7 -17  -1    3.19    5.43
  -8 -17  -1    2.75    5.34
  -9 -17  -1    4.09    5.88
 -10 -17  -1    5.06    6.40
 -11 -17  -1    0.32    4.30
 -12 -17  -1    1.29    4.39
 -13 -17  -1  -11.67    7.93
   6 -18  -1    1.00    3.82
   5 -18  -1    3.78    4.85
   4 -18  -1    8.13    7.09
   3 -18  -1    9.02    7.13
   2 -18  -1    3.44    6.56
   1 -18  -1    7.48    7.12
   0 -18  -1   -4.28    5.15
  -1 -18  -1    4.91    6.11
  -2 -18  -1  -26.33   10.21
  -3 -18  -1  -25.93   10.21
  -4 -18  -1    0.34    4.73
  -5 -18  -1    1.58    4.10
  -6 -18  -1   -8.23    6.79
  -7 -18  -1    4.06    6.45
  -8 -18  -1    4.73    4.65
 -31   0   2   16.00   13.68
 -30   0   2  -10.38   13.64
 -29   0   2   -1.30    7.59
 -28   0   2   -2.81    9.50
 -27   0   2   -0.16    7.09
 -26   0   2   27.07   18.68
 -25   0   2    9.55    8.21
 -24   0   2   -2.68    6.43
 -23   0   2   -1.29    6.43
 -22   0   2    3.14    7.00
 -21   0   2   13.62   11.84
 -20   0   2   32.30   12.37
 -19   0   2   14.35    8.90
 -18   0   2   -6.40    8.64
 -17   0   2   20.49   10.61
 -16   0   2   13.66    8.76
 -15   0   2  109.34   19.57
 -14   0   2   10.70    6.72
 -13   0   2  170.20   22.34
 -12   0   2   68.45   14.22
 -11   0   2   16.14    7.53
 -10   0   2   10.76    6.92
  -9   0   2   21.98    7.55
  -8   0   2   -3.50    4.94
  -7   0   2   62.35   10.84
  -6   0   2   10.73    4.75
  -5   0   2    3.88    3.34
  -4   0   2   47.28    6.94
  -3   0  -2   70.24    6.43
  -4   0  -2    4.80    3.14
  -5   0  -2   10.51    3.91
   6   0   2   29.88    6.01
  -6   0  -2   33.74    6.35
   7   0   2   63.96    9.65
  -7   0  -2   66.08    9.67
   8   0   2   14.58    5.86
  -8   0  -2   24.93    7.08
   9   0   2    3.88    4.67
  -9   0  -2    6.58    4.89
  10   0   2   25.73    7.97
 -10   0  -2   33.37    8.70
  11   0   2   88.35   13.77
 -11   0  -2   97.54   15.26
  12   0   2   31.41    8.52
 -12   0  -2   34.45    9.84
 -13   0  -2   -5.87    6.68
  13   0   2   -0.99    4.44
 -14   0  -2   16.00    9.41
 -15   0  -2  160.70   22.20
 -16   0  -2   31.30   10.05
 -17   0  -2   40.99   12.59
 -18   0  -2   23.30   10.58
 -19   0  -2    8.32    6.40
 -20   0  -2    9.53    9.13
 -21   0  -2   -2.42    5.69
 -22   0  -2   47.14   15.46
 -23   0  -2   36.16   13.59
 -24   0  -2   -9.91    7.60
 -25   0  -2   -3.72    6.07
 -26   0  -2   12.51    9.29
 -27   0  -2   26.64   16.12
 -28   0  -2    1.69    8.73
 -29   0  -2   23.78   13.60
 -30   0  -2   -1.66    7.60
 -31   0  -2   -1.89    6.75
 -32   0  -2    6.70   12.27
 -31  -1   2    0.04    8.28
 -31   1   2   11.34   13.46
 -30  -1   2    6.12    8.67
 -30   1   2    9.58    6.18
 -29  -1   2   12.24   10.70
 -29   1   2   -1.55    6.31
 -28   1   2   22.96   14.25
 -28  -1   2   21.46   15.60
 -27  -1   2    5.91   10.69
 -27   1   2   10.60    9.63
 -26  -1   2  -14.13   11.70
 -26   1   2   -3.40   10.45
 -25   1   2   -4.92   10.21
 -25  -1   2   17.24   13.59
 -24   1   2   -3.36    6.21
 -24  -1   2    7.95    8.04
 -23  -1   2    4.57    8.56
 -23   1   2   -1.23    9.68
 -22  -1   2    0.12    5.98
 -22   1   2   -7.23   10.95
 -21   1   2   11.84   10.28
 -21  -1   2   11.22    7.52
 -20  -1   2   10.88    7.81
 -20   1   2   20.85   10.95
 -19  -1   2   48.98   16.94
 -19   1   2   28.04   11.99
 -18   1   2   20.84   10.86
 -18  -1   2   13.49    9.00
 -17   1   2   20.79    9.83
 -17  -1   2   38.96   14.05
 -16  -1   2   32.10   12.17
 -16   1   2   34.79   13.09
 -15  -1   2   29.10    9.89
 -15   1   2   24.89    9.60
 -14  -1   2    3.79    4.73
 -14   1   2    3.31    5.64
 -13  -1   2    0.84    4.91
 -13   1   2    7.90    6.15
 -12   1   2  117.04   17.71
 -12  -1   2  114.78   18.27
 -11   1   2    1.61    4.84
 -11  -1   2    3.49    5.04
 -10  -1   2   57.14   12.12
 -10   1   2   46.94   10.88
  -9  -1   2   -4.18    4.89
  -9   1   2    1.65    4.84
  -8  -1   2    7.94    5.89
  -7  -1   2    4.65    3.72
  -6  -1   2    8.84    5.57
   5  -1  -2   16.37    3.75
  -5  -1   2   26.14    6.78
   4  -1  -2   87.12    6.89
  -4  -1   2   83.29    9.36
  -3  -1   2   39.95    6.19
   3  -1  -2   34.26    4.20
  -2  -1  -2    0.29    2.90
  -3  -1  -2   60.85    6.90
  -4  -1  -2   23.70    5.18
  -4   1  -2   23.63    4.60
  -5  -1  -2   14.12    4.69
  -5   1  -2   14.31    4.12
  -6   1  -2   -0.03    2.85
  -6  -1  -2    6.43    3.79
  -7  -1  -2   11.14    4.20
  -7   1  -2   10.89    4.92
   7   1   2   10.93    4.88
  -8   1  -2   54.24    9.48
   8   1   2   48.46    9.68
  -8  -1  -2   42.06    9.01
  -9  -1  -2   17.07    5.93
  -9   1  -2   29.65    8.03
   9   1   2   30.94    8.10
 -10   1  -2   -0.98    4.28
 -10  -1  -2    2.68    4.43
  10   1   2   11.05    6.43
 -11   1  -2    5.56    4.95
 -11  -1  -2   13.28    5.62
  11   1   2    8.44    5.59
 -12   1  -2    1.28    4.77
  12   1   2   -3.40    3.65
 -12  -1  -2    1.95    4.32
  13   1   2   26.76    8.54
 -13  -1  -2   31.69   10.24
 -13   1  -2   40.62   11.98
 -14  -1  -2    2.18    4.34
 -14   1  -2   18.53    9.46
 -15   1  -2   25.73    9.94
 -15  -1  -2   17.84    7.00
 -16   1  -2   27.14   10.63
  16   1   2   21.48    8.65
 -16  -1  -2   29.27   10.65
 -17   1  -2   28.23   10.31
 -17  -1  -2   30.67   10.36
  17   1   2   26.04   10.74
 -18   1  -2    3.83    5.60
 -18  -1  -2   14.25    9.64
  18   1   2    8.38    4.67
 -19  -1  -2   12.47    9.91
 -19   1  -2    2.96    4.81
  19   1   2   27.80   14.25
  20   1   2  -15.94    8.91
 -20  -1  -2   10.92    9.89
 -20   1  -2    0.94    7.58
 -21  -1  -2   25.56   12.67
 -21   1  -2    8.67    6.37
 -22  -1  -2    3.35    6.93
 -22   1  -2   12.53    8.98
 -23   1  -2   28.90   12.15
 -23  -1  -2   35.92   12.49
 -24  -1  -2   36.57   16.02
 -24   1  -2   10.79    6.53
 -25   1  -2   17.14    9.40
 -25  -1  -2   18.00   12.71
 -26  -1  -2   12.41    8.71
 -26   1  -2   16.26   12.01
 -27   1  -2    7.75   12.46
 -27  -1  -2   11.12   10.07
 -28   1  -2   25.70   13.41
 -28  -1  -2    8.22    7.16
 -29   1  -2    1.35    9.08
 -29  -1  -2    9.75    8.76
 -30  -1  -2    5.43   11.78
 -30   1  -2   -3.00    8.60
 -31   1  -2   37.99   18.67
 -31  -1  -2    6.75    7.54
 -32   1  -2   16.12   14.43
 -31   2   2   54.20   22.05
 -31  -2   2    9.97    8.30
 -30   2   2   23.39   14.95
 -30  -2   2   -7.95   10.06
 -29  -2   2   -5.69   10.06
 -29   2   2   40.57   19.39
 -28   2   2    6.21    7.59
 -28  -2   2    9.00   10.13
 -27  -2   2   36.77   16.82
 -27   2   2   30.55   16.33
 -26   2   2    4.97    9.78
 -26  -2   2    9.68   11.34
 -25   2   2    1.03   10.86
 -25  -2   2    9.77    9.92
 -24  -2   2   17.28   11.03
 -24   2   2   11.61   11.87
 -23   2   2   18.05   12.26
 -23  -2   2   32.91   15.10
 -22   2   2   46.09   17.55
 -22  -2   2   29.11   12.27
 -21   2   2    9.14    8.91
 -21  -2   2    7.20    8.19
 -20  -2   2   24.45   11.70
  20   2  -2   38.41   14.71
 -20   2   2   29.04    8.12
 -20   2   2   38.09   13.04
  19   2  -2   14.18    7.78
 -19   2   2   24.06   12.09
 -19   2   2   13.53    6.27
 -19  -2   2    9.95    6.96
 -18   2   2   86.10   19.57
 -18  -2   2   88.21   19.48
  18   2  -2   84.99   18.44
 -18   2   2   79.77   12.42
 -17   2   2    3.60    5.54
 -17  -2   2   11.22    6.52
 -16  -2   2   49.92   13.67
 -16   2   2   56.26   14.21
 -15   2   2   37.50   11.79
 -15  -2   2   23.32   10.18
 -14  -2   2   21.74    9.76
 -14   2   2   23.21   10.14
 -13  -2   2    9.99    7.21
 -13   2   2   -0.14    4.84
 -12  -2   2   64.64   13.77
 -11  -2   2  270.76   26.58
 -10  -2   2   20.17    7.63
  -9  -2   2  115.98   16.24
  -8  -2   2   18.16    6.03
  -7  -2   2  138.97   16.40
   7  -2  -2  126.59   10.60
  -6  -2   2    3.51    4.09
   6  -2  -2    4.32    2.60
   5  -2  -2   55.97    6.66
  -5  -2   2   47.92    9.18
  -4  -2   2   78.93    9.79
   4  -2  -2   96.23    8.13
  -3  -2   2   63.36    7.96
   3  -2  -2   62.59    6.50
  -2  -2   2   81.39    7.73
   2  -2  -2   80.36    7.19
   1  -2  -2   20.21    3.81
   0  -2  -2   64.01    6.53
  -1  -2  -2    3.47    2.81
  -2  -2  -2  100.48    9.67
  -3  -2  -2   60.66    8.26
  -4  -2  -2  103.11   11.88
  -4  -2  -2   99.55   10.53
  -5  -2  -2  195.01   15.55
  -6  -2  -2   44.08    8.49
  -7  -2  -2   27.05    6.95
  -8  -2  -2   15.20    6.61
   9   2   2   23.32    7.05
  -9  -2  -2   36.10    8.98
  -9   2  -2   31.12    7.31
 -10  -2  -2   45.01   10.65
 -10   2  -2   35.08    7.94
  10   2   2   44.83   10.72
 -11   2  -2   54.68   11.22
 -11  -2  -2   46.73   10.67
  11   2   2   50.77   11.47
 -12   2  -2   40.47   10.08
 -12  -2  -2   42.95   11.36
  12   2   2   30.18    9.27
 -13  -2  -2   14.66    7.10
 -13   2  -2    5.65    4.87
 -14   2  -2   30.51   10.19
 -14  -2  -2   26.33   10.06
 -15   2  -2   57.79   13.73
  15   2   2   45.85   12.93
 -15  -2  -2   71.65   15.18
  16   2   2   29.69   11.17
 -16   2  -2   30.63   11.19
 -16  -2  -2   43.84   14.68
 -17  -2  -2   -7.82    8.37
 -17   2  -2    1.39    5.41
  17   2   2   -0.99    7.72
 -18  -2  -2   16.27    9.67
  18   2   2   22.56    9.74
 -18   2  -2   31.21   12.22
 -19   2  -2    8.59    8.39
 -19  -2  -2   -2.35    4.71
 -20  -2  -2   91.51   21.07
 -20   2  -2   84.03   19.37
  20   2   2   93.43   20.22
 -21  -2  -2   17.00   10.47
 -21   2  -2   12.78   10.01
  21   2   2    7.92    7.67
 -22   2  -2   32.30   14.07
 -22  -2  -2    9.19   10.15
 -23  -2  -2    5.95    6.22
 -23   2  -2   -5.94    6.34
 -24  -2  -2   71.31   20.63
 -24   2  -2   68.58   18.69
 -25   2  -2   -1.18    5.39
 -25  -2  -2    5.22    6.29
 -26   2  -2   28.33   13.79
 -26  -2  -2   38.43   16.27
 -27   2  -2    2.12    7.79
 -27  -2  -2  -13.48   14.62
 -28  -2  -2    6.49    6.66
 -28   2  -2   11.75   13.92
 -29  -2  -2    9.99    9.21
 -29   2  -2    4.67    7.13
 -30   2  -2   17.49   14.20
 -30  -2  -2   17.53   12.43
 -31  -2  -2   14.86   12.58
 -31   2  -2    1.40    8.75
 -32   2  -2    8.19   13.25
 -31   3   2   -7.54   14.11
 -30   3   2   18.20   13.17
 -30  -3   2   22.04   14.51
 -29   3   2   24.48   15.76
 -29  -3   2   21.43   15.24
 -28  -3   2   26.72   13.21
 -28   3   2   41.82   20.19
 -27  -3   2   22.20   13.44
 -27   3   2   36.37   17.04
 -26   3   2   53.34   19.15
 -26  -3   2   90.71   26.42
 -25  -3   2   -0.31   10.04
 -25   3   2   12.09   13.07
 -24   3   2   48.90   17.59
 -24  -3   2   90.91   23.38
 -23  -3   2   64.71   20.24
 -23   3   2   19.47   10.52
 -22   3   2   18.41    8.15
 -22  -3   2   38.29   17.23
 -21  -3   2   59.88   18.61
 -21   3   2   67.82   18.98
 -20   3   2   29.75    8.61
 -20   3   2   16.53   10.04
  20   3  -2   29.74   12.61
 -20  -3   2   38.27   13.54
  19   3  -2   45.99   16.21
 -19  -3   2   28.15   12.30
 -19   3   2   50.73   10.28
 -19   3   2   48.29   15.88
 -18   3   2   -4.01    3.74
 -18  -3   2   -2.17    5.47
 -18   3   2    9.36    8.28
  18   3  -2   -3.98    6.97
  17   3  -2   96.55   19.93
 -17   3   2   73.19   17.52
 -17  -3   2   62.59   16.67
 -17   3   2   83.16   12.74
 -16  -3   2   65.01   16.59
 -16   3   2   68.80   17.01
 -15  -3   2   40.59   13.74
 -14  -3   2   47.17   13.07
 -13  -3   2   63.24   14.89
 -12  -3   2   34.52   10.30
 -11  -3   2  182.58   22.78
 -10  -3   2  322.97   28.95
  -9  -3   2   50.65   11.39
   9  -3  -2   58.30    8.22
  -8  -3   2  186.35   19.47
   8  -3  -2  192.72   13.82
   7  -3  -2  112.57   10.41
  -7  -3   2   97.32   13.57
   6  -3  -2   94.54    9.40
  -6  -3   2   75.93   11.41
   5  -3  -2  178.79   12.43
  -5  -3   2  193.63   17.07
  -4  -3   2   95.96   11.60
   4  -3  -2  104.69    9.54
  -3  -3   2  180.11   14.46
   3  -3  -2  178.26   11.94
   2  -3  -2  136.01   10.21
  -2  -3   2  153.04    9.08
   1  -3  -2  108.57    9.43
  -1  -3   2  105.78    6.05
   0   3  -2    9.35    2.14
   0  -3  -2    8.14    3.29
   0  -3   2   10.64    1.75
   1  -3   2   96.28    4.80
  -1   3  -2   92.03    4.96
  -1  -3  -2   85.22    9.12
  -2  -3  -2  458.21   21.98
  -2   3  -2  451.63   11.86
   2  -3   2  440.56   10.98
  -3  -3  -2  116.87   12.46
  -3   3  -2  117.22    6.66
  -4   3  -2   14.19    3.04
  -4  -3  -2   10.59    4.95
  -5  -3  -2  141.34   14.49
  -5  -3  -2  147.03   15.51
  -5   3  -2  123.01    8.02
  -6   3  -2   81.63    7.17
  -6  -3  -2   82.62   11.69
  -7  -3  -2  131.88   15.27
  -8  -3  -2   59.12   10.38
  -9  -3  -2  118.02   15.89
 -10  -3  -2   16.24    6.69
 -11  -3  -2  130.58   17.97
  11   3   2  152.87   21.08
 -12  -3  -2   62.45   13.63
 -12   3  -2   63.68   12.63
 -13   3  -2  110.24   17.33
 -13  -3  -2  101.66   17.72
 -14  -3  -2   98.81   18.22
 -14   3  -2   93.96   16.75
  14   3   2   75.27   16.75
 -15   3  -2   64.11   14.16
  15   3   2   77.90   16.71
 -15  -3  -2   77.90   16.86
 -16   3  -2  168.52   24.22
 -16  -3  -2  124.55   21.24
  16   3   2  152.97   24.52
 -17   3  -2   46.18   14.32
 -17  -3  -2   17.60    8.58
  17   3   2   43.22   14.06
 -18  -3  -2   68.60   16.97
  18   3   2   89.80   20.49
 -18   3  -2   61.68   16.45
  19   3   2  117.33   23.38
 -19  -3  -2  134.69   23.87
 -19   3  -2  122.09   22.85
  20   3   2   -4.97    4.87
 -20  -3  -2    0.59    7.75
 -20   3  -2    3.58    7.18
 -21  -3  -2  113.62   23.64
 -21   3  -2   96.03   21.03
 -22   3  -2    0.64    6.69
 -22  -3  -2    1.07    5.56
 -23  -3  -2   65.23   17.99
 -23   3  -2   55.28   17.89
 -24  -3  -2   -7.18   11.48
 -24   3  -2   11.90   10.66
 -25   3  -2   84.30   21.44
 -25  -3  -2   81.25   21.46
 -26   3  -2  -16.31   10.80
 -26  -3  -2   -7.34    9.09
 -27  -3  -2   20.92   12.05
 -27   3  -2   16.84    9.80
 -28  -3  -2    9.82    6.68
 -28   3  -2    4.48    6.59
 -29   3  -2   28.20   15.03
 -29  -3  -2   30.35   15.15
 -30  -3  -2   10.38    7.55
 -30   3  -2   29.10   13.69
 -31   3  -2   14.63   14.12
 -31  -3  -2   18.45   12.17
 -32   3  -2    2.54    6.54
 -31   4   2   42.13   20.20
 -30   4   2   26.95   16.13
 -30  -4   2   37.68   18.74
 -29   4   2   34.41   18.91
 -29  -4   2   50.95   19.26
 -28  -4   2   40.18   15.52
 -28   4   2   27.58   14.94
 -27  -4   2   29.29   15.32
 -27   4   2   20.54   13.59
 -26   4   2   71.71   22.78
 -26  -4   2   38.79   17.72
 -25   4   2  174.44   34.70
 -25  -4   2  159.23   31.86
 -24  -4   2    7.65   10.73
 -24   4   2   31.80   12.59
 -23   4   2   35.86   13.69
 -23  -4   2   47.45   18.30
 -22  -4   2   49.94   17.65
 -22   4   2   55.05   18.53
 -21   4   2   39.60   15.36
 -21  -4   2   66.46   19.67
 -20   4   2   43.43   15.58
 -20  -4   2   42.61   15.19
 -19  -4   2  130.50   24.70
 -19   4   2  155.55   27.42
 -19   4   2  142.98   17.69
  19   4  -2   93.42   20.93
 -18   4   2   24.61    7.87
 -18   4   2   45.30   14.60
  18   4  -2   18.46    8.56
 -18  -4   2    5.98    7.89
 -17   4   2   48.98   10.49
 -17  -4   2   28.13   11.69
  17   4  -2   40.76   13.16
 -16   4   2   38.01    8.89
 -16  -4   2   41.97   13.59
 -15   4   2  109.89   13.92
 -15  -4   2  101.40   19.66
 -14  -4   2   82.93   16.91
 -13  -4   2  119.81   19.67
 -12  -4   2  127.27   19.41
 -11  -4   2   68.53   13.80
 -10  -4   2  217.36   23.73
  10  -4  -2  215.81   16.57
  -9  -4   2  575.08   36.78
   9  -4  -2  553.70   25.48
   8  -4  -2  169.37   13.96
  -8  -4   2  161.13   18.94
   7  -4  -2  225.93   15.60
  -7  -4   2  212.97   20.90
   6  -4  -2  312.31   18.07
  -6  -4   2  296.15   22.95
   5  -4  -2   49.40    7.47
  -5  -4   2   41.59    9.82
  -4  -4   2  202.09   17.47
   4  -4  -2  202.24   14.00
   3  -4  -2  427.61   19.92
  -3  -4   2  473.30   19.89
  -2  -4   2  137.96    9.55
   2  -4  -2  146.56   11.81
   1   4  -2   15.31    3.76
  -1  -4   2   15.75    3.36
   1  -4  -2   17.31    5.10
   0  -4  -2   69.55    8.54
   0  -4   2   81.18    5.86
   0   4  -2   80.14    6.52
  -1   4  -2   87.06    6.28
   1  -4   2   78.80    5.67
  -1  -4  -2   72.25    9.06
  -2  -4  -2   52.25    8.40
   2  -4   2   63.11    5.17
  -2   4  -2   58.90    5.31
  -3   4  -2  955.71   22.00
   3  -4   2  976.96   20.92
  -3  -4  -2  937.39   35.55
   4  -4   2   88.61    6.72
  -4  -4  -2   88.67   12.46
  -4   4  -2   94.61    7.36
  -5   4  -2   20.56    4.09
  -5  -4  -2   15.96    6.25
  -6  -4  -2  149.52   17.14
  -6   4  -2  153.31   10.49
  -7   4  -2   23.85    5.05
  -7  -4  -2    9.95    5.76
  -7  -4  -2   27.62    9.06
  -8  -4  -2  288.46   24.64
  -8   4  -2  299.49   16.05
  -9  -4  -2   57.46   11.65
  -9   4  -2   57.33    7.54
 -10   4  -2  309.54   17.84
 -10  -4  -2  350.18   29.15
 -11  -4  -2   29.29   10.06
 -11   4  -2   24.20    5.70
 -12  -4  -2  161.00   21.55
 -12   4  -2  189.69   15.41
 -13  -4  -2   76.54   16.38
 -13   4  -2   86.73   10.77
  13   4   2   66.69   16.22
 -14  -4  -2   80.56   15.61
  14   4   2   98.60   19.77
 -14   4  -2   94.73   11.88
 -15   4  -2  116.36   19.72
 -15   4  -2  135.50   15.20
 -15  -4  -2  115.43   20.47
  15   4   2  124.08   22.82
 -16   4  -2   62.07   14.67
  16   4   2   66.40   18.02
 -16   4  -2   91.80   12.77
 -16  -4  -2   69.45   16.05
  17   4   2  231.68   32.66
 -17   4  -2  206.64   28.22
 -17   4  -2  218.18   20.03
 -17  -4  -2  208.65   28.45
 -18   4  -2   83.37   18.46
  18   4   2   90.72   20.61
 -18   4  -2  118.88   15.40
 -18  -4  -2   70.55   17.40
 -19  -4  -2   -0.49    7.14
 -19   4  -2   -2.01    5.41
  19   4   2   17.19   14.15
 -19   4  -2   15.71    6.00
 -20  -4  -2  105.48   21.61
 -20   4  -2  102.64   21.58
 -20   4  -2  110.41   15.70
 -21  -4  -2    8.96    7.25
 -21   4  -2    9.89    7.32
 -22  -4  -2   83.21   20.76
 -22   4  -2  127.56   25.75
 -23   4  -2   26.63   12.24
 -23  -4  -2    7.52    9.61
 -24   4  -2   78.46   21.82
 -24  -4  -2   69.60   20.08
 -25   4  -2   11.50    9.70
 -25  -4  -2   27.37   15.54
 -26   4  -2   29.61   14.86
 -26  -4  -2   42.39   15.55
 -27   4  -2   26.19   13.56
 -27  -4  -2   22.74   12.60
 -28   4  -2   56.92   20.49
 -28  -4  -2   41.55   16.42
 -29   4  -2   34.06   13.56
 -29  -4  -2   45.69   18.30
 -30  -4  -2   16.25   13.36
 -30   4  -2   26.71   15.47
 -31   4  -2   31.42   15.31
 -30   5   2   56.66   22.32
 -29   5   2   63.33   24.31
 -29  -5   2   27.65   11.24
 -28  -5   2   21.37   13.80
 -28   5   2   50.32   20.69
 -27  -5   2   28.55   15.92
 -27   5   2   51.16   20.58
 -26  -5   2   67.61   22.82
 -26   5   2   40.23   17.55
 -25  -5   2   56.81   18.11
 -25   5   2   48.06   19.32
 -24   5   2   80.08   25.77
 -24  -5   2   61.27   20.10
 -23  -5   2   55.82   18.83
 -23   5   2   53.90   18.72
 -22   5   2   60.78   19.46
 -22  -5   2   50.37   17.08
 -21  -5   2   28.27   13.00
 -21   5   2   25.34   14.20
 -20   5   2  105.92   22.91
 -20  -5   2   75.80   20.50
 -19  -5   2  124.51   23.45
 -19   5   2   34.08    9.01
 -18   5   2  207.82   21.06
  18   5  -2  211.61   32.11
 -18  -5   2  183.05   28.86
 -17  -5   2   33.17   13.02
  17   5  -2   19.16    9.92
 -17   5   2   29.49    8.04
  16   5  -2   59.30   16.50
 -16  -5   2   49.53   12.99
 -16   5   2   57.94   10.93
 -15  -5   2   53.36   14.60
 -15   5   2   46.94    9.48
 -14   5   2   98.53   13.27
 -14  -5   2  123.84   21.52
 -13  -5   2   53.18   13.67
 -13   5   2   78.59   12.01
 -12  -5   2  130.44   20.31
 -12   5   2  176.65   16.96
 -11  -5   2   70.48   14.50
  11  -5  -2   58.01    9.17
 -11   5   2   52.51    9.72
  10  -5  -2   94.61   11.67
 -10   5   2  111.58   12.86
 -10  -5   2   87.20   15.92
   9  -5  -2  252.59   18.17
  -9  -5   2  233.04   24.64
   8  -5  -2  345.33   20.57
  -8  -5   2  328.14   27.38
  -7  -5   2  437.55   30.29
   7  -5  -2  452.07   23.13
  -6  -5   2  301.89   24.60
   6  -5  -2  255.57   17.42
  -5  -5   2  214.81   16.89
   5  -5  -2  239.11   16.77
  -4  -5   2  330.10   19.45
   4  -5  -2  352.71   19.51
  -3  -5   2  150.14   12.06
   3  -5  -2  174.95   13.88
  -2  -5   2  185.57   11.92
   2   5  -2  198.23   18.04
   2  -5  -2  183.82   14.30
   1   5  -2   85.48    8.80
  -1  -5   2   97.54    7.83
   1  -5  -2   88.11   10.34
   0  -5   2  320.01   13.39
   0   5  -2  308.91   15.41
   0  -5  -2  314.57   19.13
  -1   5  -2   33.13    4.90
  -1  -5  -2   36.27    6.82
   1  -5   2   33.71    4.36
  -2  -5  -2  163.89   15.62
  -2   5  -2  152.72    9.99
   2  -5   2  162.13    9.65
  -3  -5  -2   41.30    8.93
   3  -5   2   40.68    4.83
  -3   5  -2   41.13    5.50
   4  -5   2  207.46   11.31
  -4   5  -2  205.85   12.05
  -4  -5  -2  228.56   19.86
   5  -5   2   77.47    7.30
  -5   5  -2   74.69    7.74
  -5  -5  -2   77.47   12.04
  -6   5  -2  219.79   13.64
  -6  -5  -2  206.32   20.51
  -7   5  -2  249.85   14.86
  -7  -5  -2  240.57   22.94
  -8   5  -2  144.09   11.93
  -8  -5  -2  141.64   18.98
  -9  -5  -2  405.53   32.03
  -9  -5  -2  397.84   31.71
  -9   5  -2  414.80   20.75
 -10   5  -2   39.94    6.82
 -10  -5  -2   44.81   11.73
 -10  -5  -2   59.75   13.25
 -11   5  -2  165.41   14.30
 -11  -5  -2  163.09   21.52
 -12   5  -2   38.73    7.64
 -12  -5  -2   27.62   10.05
  12   5   2   35.96   11.86
  13   5   2   96.96   19.29
 -13  -5  -2   98.62   17.58
 -13   5  -2   96.22   11.93
 -14   5  -2   79.78   11.26
  14   5   2   71.23   16.54
 -14  -5  -2   73.06   15.91
  15   5   2   34.03   12.04
 -15   5  -2   52.46    9.28
 -15  -5  -2   62.15   13.64
 -16  -5  -2  145.18   24.07
  16   5   2  203.18   31.01
 -16   5  -2  177.57   17.78
 -17  -5  -2   39.19   13.20
  17   5   2   47.75   16.00
 -17   5  -2   41.90    9.25
 -17   5  -2   27.37   10.93
 -18   5  -2   29.50   12.23
 -18   5  -2   54.30   10.58
 -18  -5  -2   32.12   11.82
  18   5   2   33.90   12.79
 -19   5  -2   35.59   13.39
 -19   5  -2   43.62   10.16
 -19  -5  -2   31.93   13.85
 -20   5  -2   74.61   13.20
 -20   5  -2   72.86   19.70
 -20  -5  -2   56.38   17.90
 -21  -5  -2   39.56   13.34
 -21   5  -2   60.07   18.18
 -22   5  -2   33.98   14.34
 -22  -5  -2   51.79   17.56
 -23   5  -2   51.98   16.76
 -23  -5  -2   69.96   21.58
 -24  -5  -2   45.56   18.05
 -24   5  -2   12.21   10.19
 -25   5  -2   30.24   15.93
 -25  -5  -2   19.17   10.91
 -26  -5  -2   45.40   16.97
 -26   5  -2   29.03   12.70
 -27  -5  -2   28.81   17.31
 -27   5  -2   19.66   12.81
 -28   5  -2   37.47   15.61
 -28  -5  -2   37.99   17.35
 -29  -5  -2    9.10    7.63
 -29   5  -2    6.45   10.66
 -30   5  -2   56.65   22.04
 -31   5  -2   21.34   14.91
 -30   6   2   29.05   17.17
 -29   6   2    2.25   11.84
 -29  -6   2    2.28    7.02
 -28  -6   2   28.84   18.60
 -28   6   2  -10.62   17.41
 -27   6   2    0.79    7.16
 -27  -6   2   21.81   12.67
 -26   6   2   20.65   13.37
 -26  -6   2    2.27    7.67
 -25   6   2  -12.79   13.65
 -25  -6   2    2.14    9.00
 -24   6   2   42.36   19.00
 -24  -6   2   43.70   15.73
 -23   6   2   95.92   25.91
 -23  -6   2   79.31   22.10
 -22  -6   2    4.85    6.93
 -22   6   2   13.98   10.14
 -21  -6   2   48.52   16.80
 -20  -6   2   32.64   15.23
 -19  -6   2   70.36   18.68
 -18   6   2   35.34    9.24
 -18  -6   2   37.67   14.67
 -17   6   2   97.83   14.64
  17   6  -2   94.83   21.02
 -17  -6   2   80.69   18.58
 -16   6   2   46.36   10.04
 -16  -6   2   51.93   15.96
  16   6  -2   43.55   14.68
  15   6  -2   58.40   16.87
 -15   6   2   34.36    8.48
 -15  -6   2   30.60   12.05
 -14   6   2   28.59    8.18
 -14  -6   2   31.47   11.91
  14   6  -2   28.09   11.87
 -13  -6   2   75.38   17.04
 -13   6   2   70.24   11.66
  12  -6  -2   42.33    8.46
 -12   6   2   21.99    6.15
 -12  -6   2   27.65   10.12
 -11  -6   2   44.17   12.94
 -11   6   2   57.48   10.19
  11  -6  -2   61.26    9.78
 -10   6   2   86.89   12.23
 -10  -6   2   73.57   14.74
  10  -6  -2   92.40   11.56
  -9   6   2   30.93    7.38
  -9  -6   2   18.09    7.35
   9  -6  -2   27.22    6.70
  -8   6   2  180.82   17.19
  -8  -6   2  183.53   21.89
   8  -6  -2  186.53   16.02
  -7  -6   2   43.04    8.94
  -7   6   2   40.36    8.41
   7  -6  -2   29.81    6.78
  -7  -6   2   45.69   11.52
  -6  -6   2  136.99   15.05
   6  -6  -2  142.66   13.57
  -6   6   2  162.78   15.49
  -5  -6   2  142.69   14.39
   5  -6  -2  146.07   13.32
  -5   6   2  146.80   14.31
  -4   6   2  168.22   15.39
   4   6  -2  162.81   19.05
  -4  -6   2  193.97   15.48
   4  -6  -2  169.46   14.74
   3  -6  -2  101.17   11.48
   3   6  -2   86.42   13.07
  -3   6   2   81.32   10.87
  -3  -6   2   91.98    9.66
  -2   6   2   48.61    8.51
   2  -6  -2   53.90    8.44
   2   6  -2   53.21   10.58
   2   6  -2   40.88    7.37
  -2  -6   2   58.86    7.24
  -1   6   2  200.28   17.35
   1  -6  -2  209.20   16.30
  -1  -6   2  222.15   13.13
   1   6  -2  203.31   15.19
   0   6  -2    6.02    3.02
   0  -6   2    2.71    1.81
   0   6   2    7.14    4.29
   0  -6  -2    3.18    3.19
  -1   6  -2  225.10   14.39
  -1  -6  -2  210.40   17.28
   1  -6   2  221.09   12.53
   1   6   2  205.99   18.78
   2   6   2    2.25    3.49
  -2  -6  -2   -0.40    2.62
   2  -6   2    2.25    1.93
  -2   6  -2   -0.09    1.87
   3   6   2  107.74   15.08
  -3   6  -2   94.91    8.94
  -3  -6  -2  106.31   13.93
   3  -6   2  103.58    8.66
  -4   6  -2   25.41    5.03
   4  -6   2   20.75    4.03
  -4  -6  -2    9.16    4.57
  -5  -6  -2  412.57   28.36
  -5   6  -2  413.27   19.33
   5  -6   2  414.49   18.02
   6  -6   2   66.52    7.84
  -6   6  -2   56.28    7.42
  -6  -6  -2   57.95   11.36
  -7  -6  -2  105.10   15.83
  -7   6  -2   88.62    9.75
  -8  -6  -2  194.15   22.35
  -8   6  -2  184.47   14.04
  -9   6  -2  117.09   11.87
  -9  -6  -2  108.81   17.36
 -10  -6  -2   96.99   16.86
 -10   6  -2  112.83   11.91
 -11  -6  -2   58.50   14.02
 -11  -6  -2   54.59   14.26
 -11   6  -2   57.89    8.98
 -12   6  -2   69.27    9.83
  12   6   2   70.86   17.36
 -12  -6  -2   57.47   14.36
 -12  -6  -2   56.13   14.85
 -13   6  -2   63.57   10.23
  13   6   2   50.50   15.18
 -13  -6  -2   50.87   14.74
 -14  -6  -2   29.10   10.34
  14   6   2   25.10   12.57
 -14   6  -2   32.94    7.33
 -15   6  -2  119.14   14.50
  15   6   2  104.58   22.63
 -15  -6  -2   88.50   19.28
  16   6   2    4.77    7.22
 -16   6  -2    0.44    2.40
 -16  -6  -2   -2.09    6.07
 -17  -6  -2    4.98    6.03
 -17   6  -2    9.78    4.78
  17   6   2    9.94    9.03
 -18   6  -2   13.24    5.24
 -18  -6  -2   -3.98    5.37
 -19  -6  -2   78.11   19.10
 -19   6  -2  104.61   15.64
 -19   6  -2  103.49   21.70
 -20   6  -2    1.33    5.11
 -20  -6  -2    1.98    5.71
 -21  -6  -2   46.08   15.53
 -21   6  -2   73.18   20.00
 -22   6  -2    6.37    9.25
 -22  -6  -2   -7.38    7.72
 -23  -6  -2   42.16   17.48
 -23   6  -2   26.18   12.30
 -24  -6  -2   12.95   12.60
 -24   6  -2   17.10   10.13
 -25   6  -2   31.96   15.60
 -25  -6  -2   28.65   13.34
 -26  -6  -2   -6.55    8.62
 -26   6  -2    5.81    8.87
 -27   6  -2    7.18    6.55
 -27  -6  -2   26.85   16.56
 -28   6  -2    9.52   10.39
 -28  -6  -2   12.17    9.88
 -29  -6  -2   27.80   16.47
 -29   6  -2   48.79   20.18
 -30   6  -2    0.73    6.77
 -31   6  -2   23.57   14.39
 -29   7   2   -7.09    9.81
 -28  -7   2   -2.87    8.23
 -28   7   2   -4.37    8.60
 -27   7   2  -27.16   12.68
 -27  -7   2   26.96   14.36
 -26   7   2    5.69    6.88
 -26  -7   2   -4.90    7.09
 -25  -7   2   11.45   11.39
 -25   7   2  -14.94   18.19
 -24   7   2   15.83   12.50
 -24  -7   2   -7.61   11.00
 -23  -7   2   -5.63    9.87
 -23   7   2   11.05    9.42
 -22  -7   2   35.03   13.61
 -21  -7   2   57.50   18.85
 -20  -7   2    7.85    8.94
 -19  -7   2   11.17    9.20
 -18  -7   2    0.89    6.41
 -17   7   2   13.75    6.66
 -17  -7   2   14.91    8.63
 -16   7   2   26.11    8.32
 -16  -7   2   31.33   12.46
  16   7  -2   29.93   12.78
  15   7  -2    8.52    6.39
 -15   7   2   13.62    6.17
 -15  -7   2   10.89    6.25
 -14   7   2    6.85    4.36
  14   7  -2    1.23    7.78
 -14  -7   2    5.99    7.44
 -13  -7   2   -1.47    6.55
  13   7  -2    2.82    6.89
 -13   7   2   -3.09    3.88
  13  -7  -2    0.43    2.72
  12   7  -2    5.88    6.14
  12  -7  -2   12.38    5.25
 -12  -7   2   18.04    9.00
 -12   7   2   12.57    5.59
 -11   7   2   -3.27    3.13
  11  -7  -2   -0.13    2.60
 -11  -7   2   -4.31    5.56
  10  -7  -2   -1.61    3.00
 -10  -7   2    3.95    5.15
 -10   7   2    0.81    2.25
 -10  -7   2    8.05    9.82
  -9  -7   2   23.83   10.09
   9  -7  -2   12.07    4.79
  -9  -7   2    9.90    5.73
  -9   7   2    9.87    4.73
  -8  -7   2   10.05    5.52
   8  -7  -2    1.89    2.68
  -8   7   2    8.86    4.64
  -7   7   2   17.65    5.50
   7  -7  -2   18.87    5.87
  -7  -7   2   18.05    6.17
  -6  -7   2   26.25    7.08
   6   7  -2   29.28    9.66
   6  -7  -2   26.62    6.32
  -6   7   2   28.37    7.26
  -5  -7   2   24.25    6.60
   5  -7  -2   24.17    6.20
   5   7  -2   25.85    9.06
  -5   7   2   23.46    6.72
   4   7  -2   -4.11    5.06
  -4  -7   2   -1.96    2.67
   4  -7  -2   -1.89    3.21
  -4   7   2    2.17    3.07
   3  -7  -2    0.83    2.91
  -3   7   2    2.32    2.60
  -3  -7   2   -0.42    2.41
   3   7  -2   -0.78    3.93
  -2  -7   2   14.66    4.15
   2   7  -2   14.57    4.84
   2  -7  -2   22.00    5.74
   2   7  -2   10.34    5.07
  -2   7   2   13.14    5.34
  -1  -7   2   13.35    3.88
   1  -7  -2    9.06    4.67
  -1   7   2   11.43    4.31
   1   7  -2   11.72    4.31
   0  -7  -2   73.56   10.38
   0   7   2   67.89   11.34
   0  -7   2   85.37    8.81
   0   7  -2   85.46   10.60
   1  -7   2    8.28    2.73
  -1   7  -2    6.50    3.79
   1   7   2    6.02    6.25
  -1  -7  -2    5.23    3.65
   2   7   2    2.92    3.05
  -2  -7  -2   -0.70    3.69
  -2   7  -2   10.68    4.10
   2  -7   2    4.85    2.49
  -3   7  -2   45.85    7.31
   3  -7   2   42.08    6.21
  -3  -7  -2   37.99    8.58
   3   7   2   41.67   10.26
  -4  -7  -2   47.46    9.88
   4  -7   2   56.57    7.11
  -4   7  -2   46.91    7.32
   4   7   2   59.42   11.99
   5  -7   2   -0.39    1.87
  -5  -7  -2   -3.68    5.39
  -5   7  -2    0.61    2.68
   6  -7   2  159.58   12.46
  -6  -7  -2  158.05   19.01
  -6   7  -2  159.08   13.37
   7  -7   2    5.15    2.32
  -7  -7  -2   11.58    6.73
  -7   7  -2    6.58    3.45
  -8   7  -2   44.29    7.72
  -8  -7  -2   40.32   11.59
  -9   7  -2   -3.42    2.74
  -9  -7  -2   -4.77    6.06
 -10  -7  -2   23.39    9.31
 -10   7  -2   21.95    5.56
 -11   7  -2    4.40    2.89
  11   7   2    1.42    5.07
 -11  -7  -2    2.82    4.50
 -12  -7  -2   25.13   10.28
  12   7   2   13.92    8.40
 -12   7  -2   31.35    7.19
  13   7   2    5.81    4.31
 -13   7  -2   -1.35    2.28
 -13  -7  -2    4.19    5.50
 -13  -7  -2    4.95    6.76
 -14  -7  -2   25.64   10.67
 -14  -7  -2   34.94   12.82
  14   7   2   33.64   13.44
 -14   7  -2   24.64    6.56
 -15   7  -2   11.14    4.34
 -15  -7  -2    9.15    5.18
 -15  -7  -2   13.83    7.40
  15   7   2   -1.04    7.22
  16   7   2    7.75    8.25
 -16   7  -2   -0.50    2.89
 -16  -7  -2    6.73    5.90
 -16  -7  -2   -4.60    5.02
 -17   7  -2    2.98    3.61
 -17  -7  -2   -3.19    9.07
 -18  -7  -2   18.56   10.83
 -18   7  -2   32.20    8.75
 -19   7  -2   -6.04    3.87
 -19  -7  -2    5.25    5.78
 -20  -7  -2   40.77   14.99
 -20   7  -2   34.76   13.90
 -21  -7  -2    3.92    8.41
 -21   7  -2   -3.99    7.77
 -22  -7  -2   37.02   16.22
 -22   7  -2   47.90   16.56
 -23  -7  -2  -24.59   12.62
 -23   7  -2   -9.29   11.42
 -24  -7  -2   54.75   19.04
 -24   7  -2   23.61   10.45
 -25  -7  -2    5.97    8.60
 -25   7  -2    3.71    8.30
 -26  -7  -2   26.38   16.11
 -26   7  -2    1.66    8.55
 -27  -7  -2   -5.06   17.75
 -27   7  -2   -8.18   11.32
 -28   7  -2    8.01    7.95
 -28  -7  -2   16.82   12.60
 -29   7  -2    2.23    6.21
 -30   7  -2    1.01    7.40
 -28   8   2   -6.08   10.48
 -27  -8   2   22.43   14.19
 -27   8   2    4.66   10.55
 -26   8   2  -10.56   12.08
 -26  -8   2   20.21    9.25
 -25   8   2    7.30    6.27
 -25  -8   2   -6.72    7.96
 -24   8   2    5.93    6.27
 -24  -8   2   21.55   11.98
 -23  -8   2    0.86    9.58
 -22  -8   2  -12.10   11.99
 -21  -8   2    1.91    5.97
 -20  -8   2   -7.38    9.96
 -19  -8   2   -1.47    5.84
 -18  -8   2   -2.32    6.84
 -17  -8   2   -4.57    7.29
 -16  -8   2    8.89    9.76
 -16   8   2   13.71    5.02
 -15  -8   2   -3.36    6.01
 -15   8   2    6.09    5.21
 -14  -8   2   24.24   10.34
 -14   8   2   17.73    7.06
  14   8  -2   22.53   11.02
  14  -8  -2   25.66    7.54
 -13   8   2   -5.18    5.62
  13   8  -2   11.09   10.47
 -13  -8   2    4.45    5.34
 -13  -8   2    8.16    7.54
  13  -8  -2    3.08    3.40
  12   8  -2    6.35    7.03
 -12  -8   2   12.86    7.73
 -12   8   2   18.60    6.59
  12  -8  -2   10.73    5.21
 -12  -8   2   10.12    7.25
  11   8  -2   15.41    9.66
  11  -8  -2   12.88    5.28
 -11   8   2   11.22    5.47
 -11  -8   2   10.30    5.22
 -10  -8   2   21.09    7.55
 -10   8   2   20.59    7.00
  10   8  -2   15.16    6.67
  10  -8  -2   22.24    6.13
   9   8  -2   24.11   10.33
   9  -8  -2   27.02    6.79
  -9   8   2   24.34    7.45
  -9  -8   2   23.72    8.04
   8  -8  -2   14.42    4.86
   8   8  -2   17.14    8.56
  -8   8   2   19.17    6.15
  -8  -8   2   21.18    7.58
  -7  -8   2   14.98    7.13
   7  -8  -2   14.68    5.55
  -7   8   2   11.52    5.89
   7   8  -2    6.83    6.35
  -6   8   2    3.44    3.78
   6   8  -2    2.61    4.38
  -6  -8   2    3.94    4.32
   6  -8  -2    4.37    3.21
  -5   8   2    6.17    3.63
   5  -8  -2    5.37    3.43
   5   8  -2   -0.80    4.81
  -5  -8   2    7.03    4.62
  -4   8   2    6.65    4.56
   4   8  -2    7.69    5.36
  -4  -8   2   18.71    5.43
   4  -8  -2    7.67    3.13
   3   8  -2   14.84    9.09
  -3   8   2    0.89    2.86
  -3  -8   2    0.61    2.10
   3  -8  -2    1.79    3.21
  -2   8   2   42.20    9.20
  -2  -8   2   43.61    7.41
   2  -8  -2   38.84    8.23
   2   8  -2   65.69   14.12
   2   8  -2   48.78    9.70
   1  -8  -2    3.32    2.68
  -1  -8   2    2.62    2.49
   1   8  -2    1.46    2.87
  -1   8   2    0.93    3.21
   0  -8  -2   45.45    8.69
   0  -8   2   46.20    7.13
   0   8   2   32.35    8.55
   0   8  -2   50.25    8.93
  -1   8  -2    8.54    4.37
   1   8   2    4.07    4.16
   1  -8   2   -0.52    2.61
  -1  -8  -2    5.24    3.80
   2   8   2   24.04    8.79
   2  -8   2   27.52    5.59
  -2   8  -2   22.27    5.44
  -2  -8  -2   22.64    6.27
   3   8   2   -2.93    4.09
  -3  -8  -2    7.04    3.66
  -3   8  -2    6.55    3.47
   3  -8   2    3.03    1.94
  -4   8  -2    6.03    2.80
   4   8   2    7.02    3.49
   4  -8   2   15.44    4.31
  -4  -8  -2    5.29    2.86
   5  -8   2    7.15    2.43
  -5  -8  -2    1.47    4.77
  -5   8  -2    7.44    3.64
   6  -8   2    6.06    2.98
  -6   8  -2    3.90    2.82
  -6  -8  -2    0.06    3.27
  -7   8  -2    1.33    2.25
   7  -8   2    5.57    3.62
  -7  -8  -2   10.78    6.08
  -8   8  -2   32.75    7.12
   8  -8   2   29.64    6.14
  -8  -8  -2   29.64    8.30
  -9  -8  -2    4.12    3.79
  -9   8  -2    1.87    2.68
   9   8   2    3.01    4.61
 -10  -8  -2   52.65   13.48
 -10   8  -2   40.09    7.98
  10   8   2   46.82   14.06
 -11  -8  -2   -3.39    6.04
  11   8   2   -1.69    4.39
 -11   8  -2   -1.43    1.93
 -12   8  -2   25.47    6.92
  12   8   2   22.92   11.55
 -12  -8  -2   27.14    9.72
 -13   8  -2   -0.07    3.34
  13   8   2   -2.20    5.07
 -14   8  -2   44.88    9.74
 -14  -8  -2   49.15   14.14
  14   8   2   75.51   19.73
 -15  -8  -2   24.83   11.15
 -15   8  -2   30.29    7.84
 -16   8  -2   11.14    5.29
 -16  -8  -2   14.95    8.11
 -16  -8  -2   40.47   14.32
 -17  -8  -2   -0.80    8.24
 -17  -8  -2   13.34    8.84
 -17   8  -2    3.98    3.39
 -18   8  -2    8.78    4.96
 -18  -8  -2    5.29    6.01
 -18  -8  -2   10.32    9.84
 -19  -8  -2   35.84   16.99
 -19  -8  -2    7.15    7.44
 -20  -8  -2    9.15    6.23
 -20  -8  -2   -2.68    6.62
 -21  -8  -2    1.94    6.39
 -21  -8  -2    1.42    4.97
 -22  -8  -2   20.72   13.35
 -22  -8  -2    7.62   11.70
 -22   8  -2   24.12   14.25
 -23   8  -2    2.05    9.43
 -23  -8  -2    3.62    5.76
 -23  -8  -2    5.80    9.33
 -24   8  -2   16.22    8.47
 -24  -8  -2   23.51   14.67
 -24  -8  -2   33.15   15.71
 -25   8  -2   -9.73    9.41
 -25  -8  -2   10.69   10.14
 -26  -8  -2   21.57   13.85
 -26   8  -2   27.89   17.22
 -27   8  -2    3.64   10.63
 -27  -8  -2    5.73    8.24
 -28   8  -2    7.60    9.11
 -29   8  -2   -9.00    9.95
 -27   9   2    7.93    7.68
 -26   9   2    0.59   12.61
 -26  -9   2   33.41   18.36
 -25  -9   2   50.64   18.74
 -24  -9   2   51.61   19.60
 -23  -9   2    8.21    8.99
 -22  -9   2   27.38   15.16
 -21  -9   2   16.55   10.34
 -20  -9   2   28.89   16.16
 -19  -9   2   10.52    6.68
 -18  -9   2   31.82   15.05
 -17  -9   2   34.34   13.93
 -17  -9   2   26.64   12.43
 -16  -9   2   30.97   14.34
 -16  -9   2   23.57   10.57
 -15  -9   2   51.62   16.57
 -15   9   2   58.52   12.26
 -15  -9   2   81.28   17.36
  14  -9  -2   29.59    8.29
 -14   9   2   24.88    7.65
 -14  -9   2   22.10   10.39
 -13  -9   2   32.80   12.35
  13   9  -2   31.71   13.64
 -13   9   2   16.86    7.24
  13  -9  -2   31.69    8.00
 -12  -9   2   24.44    9.62
  12  -9  -2   20.64    6.54
 -12   9   2   33.86    9.21
  12   9  -2   19.36   10.17
 -11  -9   2   55.72   13.15
  11  -9  -2   57.52   10.58
 -11   9   2   45.57   10.17
  11   9  -2   50.07   15.95
 -10   9   2   41.89   10.23
 -10  -9   2   37.33   10.69
  10  -9  -2   27.35    7.83
  10   9  -2   33.54   12.60
  -9  -9   2   83.58   14.63
   9  -9  -2   80.29   12.08
  -9   9   2   78.23   13.13
   9   9  -2   74.04   17.85
   8   9  -2   49.39   15.62
   8  -9  -2   38.40    8.32
  -8   9   2   26.04    7.34
  -8  -9   2   41.72    9.78
   7   9  -2   57.64   15.11
   7  -9  -2   57.59   10.15
  -7  -9   2   57.55   11.33
  -7   9   2   53.43   10.96
  -6  -9   2   56.47   10.83
   6   9  -2   20.82    9.50
  -6   9   2   37.46    9.36
   6  -9  -2   39.72    8.73
  -5   9   2   71.31   12.33
   5  -9  -2   77.34   11.81
   5   9  -2   70.07   15.35
  -5  -9   2   89.98   12.18
  -4  -9   2   25.48    6.54
   4   9  -2   16.06    7.72
  -4   9   2   16.32    6.26
   4  -9  -2   19.54    6.22
  -3  -9   2   68.87   10.02
   3   9  -2   59.99   14.28
  -3   9   2   60.84   11.58
   3  -9  -2   60.71   10.22
  -2   9   2   25.24    7.98
  -2  -9   2   22.27    5.49
   2   9  -2   15.45    6.94
   2  -9  -2   19.13    6.07
   2   9  -2   21.03    9.00
  -1   9   2   59.79   12.60
  -1  -9   2   69.46    9.55
   1  -9  -2   69.88   11.21
   1   9  -2   60.30   11.21
   0  -9  -2   24.22    6.88
   0   9   2   17.86    6.53
   0   9  -2   24.05    7.46
   0  -9   2   17.16    5.18
   1  -9   2   58.52    8.63
  -1   9  -2   60.32   10.59
  -1  -9  -2   48.45    9.79
   1   9   2   49.06   11.56
  -2   9  -2    7.74    4.43
  -2  -9  -2    3.25    2.60
   2  -9   2    5.35    2.98
   2   9   2    3.88    5.73
   3   9   2   12.35    6.94
  -3  -9  -2   15.14    5.93
   3  -9   2   25.70    5.99
  -3   9  -2   16.95    5.36
  -4   9  -2    9.58    5.02
   4   9   2   10.20    5.99
  -4  -9  -2    7.31    5.16
   4  -9   2   16.04    5.04
  -5   9  -2   39.63    8.11
   5  -9   2   43.78    7.46
  -5  -9  -2   41.87   10.11
   6  -9   2   31.27    6.70
  -6   9  -2   33.96    7.67
   6   9   2   36.63   13.03
  -6  -9  -2   32.81    9.41
   7   9   2   74.81   17.32
   7  -9   2   85.41   10.50
  -7  -9  -2   75.05   13.92
  -7   9  -2   75.46   11.08
   8   9   2   29.28   13.17
  -8   9  -2   26.49    6.57
  -8  -9  -2   21.10    8.24
   8  -9   2   30.84    6.41
   9   9   2  131.85   23.77
  -9   9  -2  122.95   14.22
  -9  -9  -2  119.46   19.52
   9  -9   2  150.62   14.13
  10   9   2   19.38   10.55
 -10  -9  -2   16.25    7.34
 -10   9  -2   21.27    6.12
 -11  -9  -2  117.94   20.07
 -11   9  -2  111.51   14.08
  11   9   2  126.79   24.19
 -12   9  -2    7.81    4.63
 -12  -9  -2    7.70    6.74
 -13   9  -2  127.22   15.81
 -13  -9  -2  143.81   23.44
 -14   9  -2   60.47   11.40
 -14  -9  -2   68.49   17.44
 -15   9  -2   40.23    9.49
 -15  -9  -2   32.05   11.59
 -16   9  -2    4.75    3.85
 -16  -9  -2    3.32    4.62
 -17  -9  -2   41.05   15.96
 -17   9  -2   36.61    9.60
 -18  -9  -2    4.72    7.60
 -19  -9  -2   63.23   19.71
 -20  -9  -2    5.26    6.78
 -21  -9  -2   28.48   15.54
 -21  -9  -2   21.91   12.83
 -22  -9  -2   -5.63    8.63
 -22  -9  -2  -14.13   11.77
 -23  -9  -2   57.12   20.13
 -23  -9  -2   67.40   21.58
 -23   9  -2   87.92   31.72
 -24   9  -2  -33.57   15.64
 -24  -9  -2   -5.97    9.06
 -24  -9  -2  -11.21   10.59
 -25   9  -2   44.23   19.22
 -25  -9  -2   43.65   17.73
 -25  -9  -2   58.10   21.90
 -26   9  -2   10.13   10.93
 -27   9  -2   59.60   22.80
 -28   9  -2   11.83   13.00
 -26 -10   2   20.79   13.94
 -25 -10   2  -12.98   10.59
 -24 -10   2    9.18    7.70
 -24 -10   2    1.21    8.03
 -23 -10   2   40.41   16.73
 -23 -10   2   34.06   16.61
 -22 -10   2   18.79   13.64
 -22 -10   2   20.89   11.14
 -21 -10   2   38.58   17.45
 -21 -10   2   32.44   14.51
 -20 -10   2   48.77   17.68
 -20 -10   2   26.40   14.61
 -19 -10   2   58.45   18.48
 -19 -10   2   27.20   11.63
 -18 -10   2   25.06   12.69
 -18 -10   2   39.76   15.94
 -17 -10   2   48.14   14.82
 -16 -10   2   39.98   14.19
 -15 -10   2   62.92   15.99
  15 -10  -2   71.54   12.94
 -14 -10   2   70.52   16.77
 -14  10   2   67.59   13.90
  14 -10  -2   83.68   13.86
 -13 -10   2   46.41   13.77
 -13  10   2   51.23   12.48
  13 -10  -2   57.66   11.48
  12 -10  -2   54.34   10.91
 -12 -10   2   65.57   14.15
 -12  10   2   71.01   13.50
  11 -10  -2   46.20    9.84
 -11  10   2   54.32   11.91
 -11 -10   2   38.56   11.89
 -10 -10   2   61.33   13.94
  10 -10  -2   71.34   12.00
 -10  10   2   55.89   11.66
  10  10  -2   53.68   17.05
   9  10  -2   48.07   14.75
  -9 -10   2   48.23   11.50
   9 -10  -2   37.20    9.18
  -9  10   2   66.71   13.26
   8 -10  -2   98.05   14.50
  -8  10   2   88.17   15.08
   8  10  -2   89.48   19.59
  -8 -10   2  100.15   15.55
   7  10  -2   48.56   14.79
   7 -10  -2   67.77   11.39
  -7 -10   2   63.85   11.96
  -7  10   2   46.34   10.61
   6  10  -2   89.02   18.50
  -6  10   2  104.98   16.07
  -6 -10   2  112.20   14.95
   6 -10  -2   98.19   14.03
   5 -10  -2   59.48   10.62
   5  10  -2   53.89   14.69
  -5  10   2   56.66   11.40
  -5 -10   2   56.26   10.19
   4 -10  -2  147.11   17.05
  -4  10   2  154.81   19.67
   4  10  -2  139.89   22.86
  -4 -10   2  134.82   15.18
  -3  10   2   52.87   11.72
   3 -10  -2   50.93   10.20
  -3 -10   2   42.31    8.44
   3  10  -2   47.67   12.34
   2  10  -2   98.68   18.45
   2  10  -2   89.85   14.97
   2 -10  -2   91.00   13.45
  -2  10   2   89.62   15.84
  -2 -10   2   99.42   12.48
   1  10  -2   58.00   11.63
   1 -10  -2   57.86   11.12
  -1  10   2   50.32   12.16
  -1 -10   2   72.16   10.56
   0 -10  -2   81.00   12.90
   0 -10   2   94.77   11.72
   0  10   2   70.78   14.57
   0  10  -2   67.64   12.60
   1  10   2   34.46   10.64
  -1  10  -2   22.61    7.02
   1 -10   2   25.81    7.20
  -1 -10  -2   28.96    7.85
  -2  10  -2   49.55   10.00
   2  10   2   68.50   15.48
  -2 -10  -2   62.72   12.16
   2 -10   2   53.30    8.76
  -3  10  -2   36.85    8.82
   3  10   2   40.21   11.58
   3 -10   2   35.58    7.39
  -3 -10  -2   28.33    8.71
   4  10   2   41.77   12.68
  -4  10  -2   54.21   10.23
   4 -10   2   49.59    8.54
   4  10   2   42.69   12.65
  -4 -10  -2   56.11   11.96
  -5  10  -2   63.01   10.91
   5  10   2   43.04   13.97
  -5 -10  -2   57.56   12.43
   5 -10   2   58.83    9.04
  -6 -10  -2  103.55   16.47
   6  10   2  122.92   22.66
  -6  10  -2  112.55   14.26
   6 -10   2  129.65   13.34
   7 -10   2   54.50    8.86
   7  10   2   47.52   14.57
  -7  10  -2   41.03    8.67
  -7 -10  -2   52.18   12.68
   8 -10   2  134.79   14.10
   8  10   2  110.28   22.00
  -8 -10  -2  133.94   19.96
  -8  10  -2  123.23   15.12
  -9  10  -2   52.05   10.03
   9 -10   2   37.85    7.44
  -9 -10  -2   34.80   11.12
 -10  10  -2  165.38   17.65
 -10 -10  -2  128.92   21.10
 -11 -10  -2   32.63   11.56
 -11  10  -2   36.11    9.03
 -12 -10  -2  185.89   26.47
 -12  10  -2  192.10   19.57
 -13 -10  -2   34.64   12.81
 -13  10  -2   39.24    9.48
 -14  10  -2   93.23   15.16
 -14 -10  -2   67.31   18.00
 -15  10  -2   24.24    7.50
 -15 -10  -2    6.28    7.54
 -16 -10  -2   90.14   20.86
 -16  10  -2   61.83   12.53
 -17  10  -2    6.64    4.89
 -17 -10  -2   24.16   12.82
 -18 -10  -2   24.37   14.14
 -19 -10  -2   -0.09    9.01
 -20 -10  -2   21.55   13.78
 -21 -10  -2   11.47   12.24
 -22 -10  -2   28.22   14.15
 -23 -10  -2    8.12   10.23
 -24 -10  -2   44.08   16.26
 -24  10  -2   88.87   26.46
 -25  10  -2   -5.59   10.20
 -26  10  -2   68.09   22.85
 -27  10  -2   10.92   10.74
 -25 -11   2    9.45   13.15
 -24 -11   2    5.75    8.16
 -23 -11   2   32.41   17.38
 -22 -11   2    0.96    8.78
 -21 -11   2   31.14   13.70
 -20 -11   2   26.27   14.14
 -19 -11   2   41.67   16.24
 -18 -11   2   38.27   15.34
 -17 -11   2   23.62   12.40
 -16 -11   2   44.15   14.29
  15 -11  -2   59.59   12.59
 -15 -11   2   59.93   16.10
  14 -11  -2   77.31   13.74
 -14 -11   2   48.26   14.36
  13 -11  -2   99.18   15.71
 -13 -11   2   99.26   18.53
 -12  11   2   76.74   14.78
 -12 -11   2   68.08   15.52
  12 -11  -2   75.90   13.24
 -11  11   2   66.82   14.05
 -11 -11   2   54.31   13.44
  11 -11  -2   54.48   11.14
 -10  11   2   42.44   11.32
 -10 -11   2   28.47   10.26
  10 -11  -2   34.55    8.66
  -9 -11   2   58.99   12.81
  -9  11   2   59.37   12.86
   9 -11  -2   65.40   11.85
  -8 -11   2   50.11   11.57
  -8  11   2   62.22   13.20
   8 -11  -2   68.83   12.30
  -7  11   2  119.63   18.10
   7  11  -2  117.46   23.91
  -7 -11   2  128.78   17.01
   7 -11  -2  131.11   16.68
   6 -11  -2   65.10   11.75
  -6 -11   2   65.54   12.14
  -6  11   2   86.65   15.52
   6  11  -2   61.86   17.23
   5  11  -2  135.02   24.39
   5 -11  -2  145.15   17.66
  -5 -11   2  122.47   15.62
  -5  11   2  148.25   20.22
  -4 -11   2   51.45   10.03
  -4  11   2   52.66   11.92
   4 -11  -2   47.12   10.15
   4  11  -2   34.67   12.56
  -3 -11   2  114.77   14.34
  -3  11   2  124.52   19.01
   3 -11  -2  113.32   15.29
   3  11  -2  108.55   20.94
  -2 -11   2   69.94   11.07
   2  11  -2   52.68   12.49
   2 -11  -2   53.85   10.90
   2  11  -2   67.38   17.68
  -2  11   2   56.03   14.54
  -1 -11   2   90.65   12.60
  -1  11   2   73.52   15.69
   1  11  -2   68.79   13.56
   1 -11  -2   90.85   14.13
   0  11   2   62.74   14.56
   0 -11   2   68.45   10.73
   0  11  -2   59.10   12.77
   0 -11  -2   61.52   11.76
   1 -11   2   75.01   10.93
  -1 -11  -2   57.67   11.50
  -1  11  -2   55.94   11.88
   1  11   2   55.00   13.83
  -2 -11  -2   62.78   12.61
   2 -11   2   66.06   10.15
  -2  11  -2   54.13   11.28
   2  11   2   37.74   12.94
   3 -11   2   60.22    9.68
  -3 -11  -2   53.52   11.24
   3  11   2   50.08   13.70
  -3  11  -2   53.57   11.47
  -4  11  -2   32.97    8.18
  -4 -11  -2   34.72    9.78
   4  11   2   40.20   11.82
   4 -11   2   38.74    7.94
  -5  11  -2   78.07   13.24
  -5 -11  -2   62.18   12.88
   5 -11   2   68.37   10.24
   6 -11   2   59.35    9.70
  -6  11  -2   46.84   10.17
  -6 -11  -2   48.99   11.89
  -7 -11  -2   98.78   17.08
  -7  11  -2   90.40   13.60
   7 -11   2  101.11   12.82
   8 -11   2   43.33    8.24
  -8  11  -2   36.72    8.92
  -8 -11  -2   38.55   11.82
   9 -11   2  111.11   13.72
  -9  11  -2   90.68   14.10
  -9 -11  -2   98.01   18.55
 -10 -11  -2   41.62   12.19
 -10  11  -2   51.87   10.95
  10 -11   2   73.78   11.36
 -11 -11  -2  127.85   21.26
 -11  11  -2  124.94   17.09
 -12  11  -2   53.25   11.03
 -12 -11  -2   39.67   13.33
 -13  11  -2   76.77   13.28
 -13 -11  -2   95.72   20.47
 -14  11  -2   12.05    5.95
 -14 -11  -2   13.80    9.49
 -15 -11  -2   45.95   16.30
 -15  11  -2   74.14   13.64
 -16 -11  -2    6.62   10.28
 -17 -11  -2   59.62   19.18
 -18 -11  -2    9.42   11.27
 -19 -11  -2   11.48   11.24
 -20 -11  -2   10.41    7.79
 -21 -11  -2   24.49   15.22
 -22 -11  -2    3.89    6.54
 -23 -11  -2   -2.07   10.24
 -25  11  -2   12.28   13.77
 -26  11  -2   24.82   15.41
 -24 -12   2  -22.95   13.04
 -23 -12   2    7.98    7.38
 -22 -12   2   13.66   13.52
 -21 -12   2   25.28   12.71
 -20 -12   2   30.68   15.21
 -19 -12   2    5.75    7.55
 -18 -12   2   23.05   10.37
 -17 -12   2    7.51    8.80
 -16 -12   2   30.06   11.79
  15 -12  -2   29.85    8.94
 -15 -12   2   29.80   11.08
 -14 -12   2   36.34   13.63
  14 -12  -2   37.57    9.75
 -13 -12   2   32.65   11.69
  13 -12  -2   49.29   11.46
  12 -12  -2   52.65   12.03
 -12 -12   2   39.67   12.50
  11 -12  -2   28.35    8.49
 -11 -12   2   24.66    9.99
 -10 -12   2   58.08   14.14
  10 -12  -2   57.39   11.23
  -9  12   2   16.95    7.03
  -9 -12   2   12.65    6.30
   9 -12  -2   36.18    9.11
  -8 -12   2   55.78   12.09
   8 -12  -2   48.34   10.88
  -8  12   2   48.08   12.28
   7 -12  -2   39.82    9.73
  -7 -12   2   32.17    9.64
  -7  12   2   42.90   12.47
   6 -12  -2   75.26   13.45
  -6 -12   2   96.80   14.91
  -6  12   2   50.75   12.94
   5 -12  -2   37.40    9.40
  -5  12   2   44.53   12.75
  -5 -12   2   46.98   10.31
  -4  12   2   86.56   17.18
  -4 -12   2   64.76   11.70
   4 -12  -2   76.23   13.36
   3 -12  -2   37.68    9.39
  -3 -12   2   55.19   10.24
  -3  12   2   49.02   13.25
  -2 -12   2   68.69   11.63
  -2  12   2   45.74   13.00
   2 -12  -2   47.78   10.83
   1  12  -2   36.14   11.55
  -1 -12   2   35.33    8.03
   1 -12  -2   35.72    8.89
  -1  12   2   25.49   11.06
   1  12  -2   18.31   10.32
   0 -12  -2   37.51    9.97
   0  12   2   35.34   13.37
   0 -12   2   44.89    9.05
   0  12  -2   53.39   13.28
   1  12   2   44.25   13.44
   1 -12   2   32.11    8.32
  -1 -12  -2   38.99    9.77
  -1  12  -2   18.43    8.03
   2  12   2   45.43   14.18
  -2  12  -2   36.93   10.49
  -2 -12  -2   40.88   10.62
   2 -12   2   60.36   10.27
   3 -12   2   35.52    8.43
  -3 -12  -2   34.02    9.62
   3  12   2   25.76   11.82
  -3  12  -2   22.10    8.91
   4  12   2   44.03   13.31
  -4  12  -2   62.29   13.42
  -4 -12  -2   31.23    9.53
   4 -12   2   66.60   11.09
  -5 -12  -2   17.71    8.15
   5 -12   2   25.08    7.08
  -5  12  -2   26.13    9.49
   6 -12   2   59.95   10.45
  -6  12  -2   54.68   12.28
  -6 -12  -2   35.09   10.93
   7 -12   2   34.53    8.40
  -7 -12  -2   34.54   11.27
  -7  12  -2   20.33    7.10
  -8 -12  -2   71.74   17.86
   8 -12   2   73.23   11.67
  -8  12  -2   77.92   13.84
  -9  12  -2   22.13    7.26
   9 -12   2   39.57    8.48
  -9 -12  -2   27.21   10.79
 -10  12  -2   38.62    9.98
 -10 -12  -2   45.69   13.19
  10 -12   2   43.83    9.27
 -11 -12  -2   40.36   12.74
 -11  12  -2   37.35    9.72
 -12 -12  -2   34.19   13.15
 -12  12  -2   29.17    8.77
 -13 -12  -2    0.64    5.58
 -13  12  -2   13.02    6.17
 -14 -12  -2   40.28   16.26
 -14  12  -2   32.43    9.78
 -15 -12  -2   19.29   10.82
 -16 -12  -2   40.40   16.05
 -17 -12  -2   17.80   10.82
 -18 -12  -2   17.48   13.67
 -19 -12  -2    3.84    7.68
 -20 -12  -2   -8.14    8.62
 -21 -12  -2   -1.35    7.30
 -22 -12  -2    3.87   10.10
 -23 -13   2    3.81    8.12
 -22 -13   2   14.03    8.41
 -21 -13   2   27.84   15.38
 -20 -13   2    0.19    5.46
 -19 -13   2    7.50    8.47
 -18 -13   2    0.63    7.47
 -17 -13   2    0.62    6.88
 -16 -13   2    3.14    7.44
 -15 -13   2   19.13   10.30
  15 -13  -2   28.39    9.01
 -14 -13   2    4.08    6.78
  14 -13  -2    7.82    5.89
  13 -13  -2    8.76    5.41
 -13 -13   2    7.91    7.09
 -12 -13   2    3.64    6.19
  12 -13  -2   10.64    5.97
  11 -13  -2   16.40    6.86
 -11 -13   2    4.92    5.91
 -10 -13   2   20.98    8.27
  10 -13  -2    8.55    5.28
  -9 -13   2   17.80    8.19
   9 -13  -2    9.77    5.38
  -8 -13   2    9.35    6.60
   8 -13  -2   -3.36    4.76
  -7 -13   2   19.02    7.91
   7 -13  -2   21.08    7.99
   6 -13  -2    6.37    6.11
  -6 -13   2   15.34    6.78
  -5 -13   2   12.14    5.61
   5 -13  -2   33.40    9.86
  -4 -13   2    7.34    4.85
   4 -13  -2    4.83    5.23
  -4  13   2   10.76    7.67
  -3  13   2   11.43    6.92
   3 -13  -2   10.26    5.96
  -3 -13   2   21.84    7.09
   2 -13  -2    9.12    5.01
  -2 -13   2    3.64    3.63
  -2  13   2   15.35    8.53
   1  13  -2   44.78   13.55
  -1  13   2   22.04    8.21
  -1 -13   2   19.68    6.23
   1 -13  -2   12.63    6.34
   0  13   2    1.58    6.05
   0 -13   2    8.79    5.16
   0  13  -2    7.72    5.96
   0 -13  -2   12.39    6.42
  -1  13  -2   18.76    8.46
   1 -13   2   27.25    7.79
  -1 -13  -2   12.36    5.56
   1  13   2    1.16    6.03
  -2 -13  -2    3.84    3.70
  -2  13  -2    9.64    5.02
   2 -13   2   13.53    6.40
  -3  13  -2    9.90    8.32
   3 -13   2   18.34    6.51
  -3 -13  -2   20.63    8.21
  -4 -13  -2    6.13    4.99
  -4  13  -2    3.87    4.74
   4 -13   2    4.85    4.13
  -5 -13  -2   19.93    8.10
   5 -13   2   26.42    7.78
  -5  13  -2    7.53    4.32
   6 -13   2   11.47    6.09
  -6  13  -2    8.71    6.12
  -6 -13  -2    7.26    7.12
  -7  13  -2    9.01    6.49
   7 -13   2   15.43    6.19
  -7 -13  -2    6.56    5.46
  -8 -13  -2    7.29    5.87
  -8  13  -2   13.13    6.54
   8 -13   2    9.84    4.26
   9 -13   2    4.76    2.78
  -9  13  -2    5.54    5.95
  -9 -13  -2   -2.35    4.34
 -10  13  -2   13.74    7.44
 -10 -13  -2   15.76    7.90
  10 -13   2   17.56    6.12
 -11  13  -2  -10.92    6.16
 -11 -13  -2    2.00    5.22
 -12  13  -2   13.03    6.76
 -12 -13  -2   12.08    9.02
 -13 -13  -2    0.76    5.56
 -14 -13  -2   10.46    6.89
 -15 -13  -2   17.53    9.82
 -16 -13  -2   12.12    9.12
 -17 -13  -2   -0.43    6.01
 -18 -13  -2   -7.86    7.72
 -19 -13  -2   13.42    9.23
 -20 -13  -2    1.02    7.99
 -22 -14   2  -36.09   15.12
 -21 -14   2   -0.05    9.10
 -20 -14   2    7.64    9.03
 -19 -14   2  -27.03   12.12
 -18 -14   2    5.70    9.10
 -17 -14   2   -6.39    6.53
 -16 -14   2    0.06    5.62
  15 -14  -2   -0.88    3.79
 -15 -14   2  -10.04    7.24
 -14 -14   2   30.91   11.67
  14 -14  -2    2.35    4.72
  13 -14  -2   -7.07    5.36
 -13 -14   2    0.35    4.43
  12 -14  -2   -3.93    5.44
 -12 -14   2   -4.54    5.24
 -11 -14   2  -13.65    7.25
  11 -14  -2   -0.41    3.68
  10 -14  -2   14.17    7.11
 -10 -14   2    1.20    3.40
   9 -14  -2    6.38    5.36
  -9 -14   2    7.37    4.37
  -8 -14   2    2.93    3.34
   8 -14  -2   -4.76    5.21
   7 -14  -2   -7.49    5.34
  -7 -14   2    2.09    3.45
  -6 -14   2  -11.26    7.05
   6 -14  -2    0.39    5.03
  -5 -14   2   -6.16    3.85
   5 -14  -2    4.72    5.78
   4 -14  -2   -0.82    3.94
  -4 -14   2   -0.69    3.31
  -3 -14   2    5.31    4.37
   3 -14  -2   -1.26    3.87
  -2 -14   2    1.88    2.83
   2 -14  -2    0.82    4.63
  -1 -14   2   -0.52    3.51
   1 -14  -2   -9.29    5.28
   0 -14  -2   -1.58    6.43
   0 -14   2    8.10    5.37
   0  14  -2   -6.14    8.84
  -1  14  -2   -4.94    6.11
  -1 -14  -2   -2.61    4.04
   1 -14   2   -1.10    2.95
  -2 -14  -2    2.14    4.00
  -2  14  -2   -7.74    6.92
   3 -14   2    8.11    5.23
  -3 -14  -2    0.57    4.93
   4 -14   2    0.59    2.60
  -4 -14  -2    2.53    3.95
  -4  14  -2    2.66    5.25
  -5  14  -2   15.04    9.23
  -5 -14  -2    1.26    3.73
   5 -14   2    1.27    3.73
  -6  14  -2    4.28    6.94
   6 -14   2    3.12    2.83
  -6 -14  -2   -3.98    4.86
   7 -14   2   -1.27    4.11
  -7 -14  -2    1.60    4.47
  -7  14  -2    1.32    5.30
   8 -14   2   -2.98    3.43
  -8  14  -2    4.77    3.75
  -9 -14  -2    2.86    6.56
   9 -14   2    6.62    5.07
  -9  14  -2    7.68    4.67
 -10 -14  -2    4.95    4.93
  10 -14   2    6.17    4.08
 -11 -14  -2    1.92    4.43
 -12 -14  -2    6.95    6.88
 -13 -14  -2    8.55    7.93
 -14 -14  -2  -12.62    8.33
 -15 -14  -2  -15.91    9.38
 -16 -14  -2   -6.89    7.34
 -17 -14  -2    0.66    7.45
 -18 -14  -2  -26.23   12.44
 -19 -14  -2  -14.82    9.97
 -20 -15   2    0.86    5.42
 -19 -15   2   -0.02    5.67
 -18 -15   2  -23.24   11.11
 -17 -15   2    0.81    7.22
 -16 -15   2    0.15    5.02
 -15 -15   2   -7.12    7.28
  15 -15  -2    2.92    3.47
 -14 -15   2  -12.07    7.59
  14 -15  -2   -9.12    6.20
  13 -15  -2    2.69    4.33
 -13 -15   2    6.15    5.39
  12 -15  -2   -0.04    3.71
 -12 -15   2    3.53    5.85
  11 -15  -2  -18.03    7.89
 -11 -15   2   -1.25    4.71
 -10 -15   2    1.40    3.38
  10 -15  -2   -0.60    3.59
   9 -15  -2   13.00    7.60
  -9 -15   2  -14.02    7.08
   8 -15  -2    2.12    4.57
  -8 -15   2    1.82    3.57
  -7 -15   2    1.51    3.66
   7 -15  -2   11.76    7.58
  -6 -15   2   -3.37    5.47
   6 -15  -2    1.41    4.41
   5 -15  -2   -7.82    6.29
  -5 -15   2    1.48    4.46
  -4 -15   2    0.75    3.45
   4 -15  -2   -3.88    4.44
  -3 -15   2    6.10    5.45
   3 -15  -2  -11.70    6.50
   2 -15  -2   -1.80    3.22
  -2 -15   2    1.82    4.08
  -1 -15   2   -3.82    3.75
   1 -15  -2    1.81    4.29
   0 -15  -2   -3.48    5.33
   0 -15   2    7.53    4.64
  -1  15  -2    3.55    5.71
   1 -15   2    7.34    5.23
  -1 -15  -2   -3.24    4.83
   2 -15   2   -4.33    5.31
  -2 -15  -2    4.91    5.55
  -3 -15  -2    6.83    6.22
   3 -15   2   -7.01    5.36
  -4 -15  -2   -4.35    5.70
   4 -15   2   -1.24    3.72
   5 -15   2    2.98    3.97
  -5 -15  -2   -6.75    5.82
  -6 -15  -2    0.91    4.05
   6 -15   2    6.24    5.56
  -7 -15  -2  -11.91    7.06
   7 -15   2    0.76    4.27
  -8 -15  -2   -0.27    3.76
   8 -15   2    0.37    3.54
   9 -15   2    2.80    3.27
  -9 -15  -2   -1.95    5.91
  10 -15   2   -6.74    5.93
 -10 -15  -2   -3.04    4.73
 -11 -15  -2    3.16    3.73
 -12 -15  -2    0.80    4.58
 -13 -15  -2  -19.09    9.56
 -14 -15  -2    2.35    5.68
 -15 -15  -2  -23.42   11.08
 -16 -15  -2    4.04    7.41
 -17 -15  -2   -5.40    7.09
 -17 -16   2   11.66    9.79
 -16 -16   2   14.33   10.16
  15 -16  -2    1.29    4.69
 -15 -16   2  -11.47    7.70
  14 -16  -2    8.75    6.22
 -14 -16   2    6.44    6.88
  13 -16  -2    2.57    4.13
 -13 -16   2    3.87    4.82
 -12 -16   2    2.29    4.02
  12 -16  -2   -0.77    4.44
 -11 -16   2  -11.58    7.06
  11 -16  -2    8.32    6.50
 -10 -16   2  -10.08    6.48
  10 -16  -2  -15.53    7.78
   9 -16  -2   -3.61    4.77
  -9 -16   2    0.01    4.19
  -8 -16   2   -4.10    3.77
   8 -16  -2    6.18    5.71
  -7 -16   2    8.20    7.12
   7 -16  -2   -0.33    4.22
   6 -16  -2    0.04    5.79
  -6 -16   2   14.35    6.93
   5 -16  -2   -0.36    3.64
  -5 -16   2    6.93    5.33
   4 -16  -2    4.02    5.58
  -4 -16   2    2.97    5.38
  -3 -16   2    6.18    4.14
   3 -16  -2   -5.98    5.79
   2 -16  -2    5.62    5.22
  -2 -16   2    6.16    6.92
  -1 -16   2  -11.92    6.42
   1 -16  -2   14.69    7.87
   0 -16  -2    0.71    3.34
   0 -16   2    5.73    5.27
  -1 -16  -2  -11.11    6.83
   1 -16   2    0.80    4.17
   2 -16   2    7.87    6.11
  -2 -16  -2  -23.83    9.21
   3 -16   2   -4.81    4.80
  -3 -16  -2   -1.56    5.88
   4 -16   2   12.27    6.70
  -4 -16  -2    1.13    5.15
   5 -16   2   -1.08    5.00
  -5 -16  -2    7.33    6.82
   6 -16   2   10.82    6.22
  -6 -16  -2   -8.47    6.32
  -7 -16  -2   -1.89    4.75
   7 -16   2   -1.46    3.54
   8 -16   2   11.89    5.49
  -8 -16  -2    1.96    6.05
  -9 -16  -2  -15.06    8.33
   9 -16   2   -0.05    3.04
 -10 -16  -2   -7.33    6.75
 -11 -16  -2  -13.11    8.33
 -12 -16  -2   -2.01    4.46
 -13 -16  -2   -7.28    6.81
 -14 -16  -2    0.10    4.92
 -15 -16  -2    3.57    5.69
  14 -17  -2    8.59    8.35
  13 -17  -2    9.44    6.42
  12 -17  -2  -10.89    7.13
  11 -17  -2    5.81    5.95
  10 -17  -2   22.88    9.90
   9 -17  -2   14.23    7.72
   8 -17  -2    9.88    7.47
   7 -17  -2   10.64    8.41
   6 -17  -2    6.00    7.44
   5 -17  -2    2.02    4.76
   4 -17  -2   14.65    8.85
   3 -17  -2    1.06    3.68
   2 -17  -2    2.16    4.75
   1 -17  -2    0.42    3.87
   0 -17  -2  -12.72    7.31
  -1 -17  -2    2.29    5.20
  -2 -17  -2  -10.92    7.00
  -3 -17  -2    2.56    3.94
  -4 -17  -2   -0.40    3.99
  -5 -17  -2   -4.73    5.57
  -6 -17  -2   -7.47    6.43
  -7 -17  -2   -1.07    4.01
  -8 -17  -2  -12.47    7.87
  -9 -17  -2   -9.80    7.21
 -10 -17  -2    9.69    8.95
 -11 -17  -2    2.68    4.57
 -12 -17  -2    7.14    7.86
   8 -18  -2    4.36    5.81
   7 -18  -2    2.69    5.35
   6 -18  -2   19.73    9.55
   5 -18  -2  -10.12    6.40
   4 -18  -2   -3.18    4.97
   3 -18  -2   10.09    8.39
   2 -18  -2   -0.02    6.22
   1 -18  -2  -17.98    8.79
   0 -18  -2   -3.08    5.04
  -1 -18  -2   19.66   10.50
  -2 -18  -2    1.08    6.05
  -3 -18  -2  -13.91    8.08
  -4 -18  -2    1.44    4.95
  -5 -18  -2    5.45    4.01
  -6 -18  -2    2.97    5.20
  -7 -18  -2   -8.04    6.85
  -8 -18  -2   -9.26    7.36
 -31   0   3   -9.90   12.17
 -30   0   3    0.58    8.00
 -29   0   3    1.04    8.32
 -28   0   3   -1.10    9.63
 -27   0   3   23.86   14.64
 -26   0   3    7.28   10.56
 -25   0   3    1.24    7.94
 -24   0   3  -12.67   11.06
 -23   0   3  -10.38   10.78
 -22   0   3  -10.65   14.53
 -21   0   3   -2.87    6.85
 -20   0   3    9.43    8.77
 -19   0   3   -2.21    6.27
 -18   0   3    2.81    6.46
 -17   0   3   -2.53    8.69
 -16   0   3    0.37    4.96
 -15   0   3    3.19    6.77
 -14   0   3    7.03   13.90
 -13   0   3    3.55    4.76
 -12   0   3    1.13    4.23
 -11   0   3   -1.37    5.12
 -10   0   3    6.50    6.87
  -9   0   3    1.98    4.35
  -8   0   3    4.49    6.74
  -7   0   3   -1.47    4.24
  -6   0   3    0.35    4.17
  -5   0   3   -0.02    3.18
   5   0  -3    2.46    2.16
   4   0  -3    0.23    1.76
   3   0  -3   -0.45    1.44
   2   0  -3    3.87    2.10
   1   0  -3    0.68    1.10
   0   0  -3    3.07    1.94
  -1   0  -3    3.26    2.20
  -2   0  -3    1.34    2.25
   3   0   3    1.34    2.06
  -3   0  -3    2.17    1.87
  -4   0  -3    3.29    2.62
   4   0   3    1.28    2.53
   5   0   3   -1.61    2.16
  -5   0  -3    0.01    2.46
   6   0   3    3.10    3.17
  -6   0  -3   -3.04    3.51
  -7   0  -3    1.98    3.73
   7   0   3   -0.40    2.83
  -8   0  -3   48.50   13.22
   8   0   3   -0.97    2.85
  -9   0  -3    4.73    4.03
   9   0   3    2.14    3.21
 -10   0  -3    7.91    5.36
  10   0   3   -2.93    5.04
 -11   0  -3   -1.45    5.39
  11   0   3    3.61    4.29
  12   0   3   -0.27    3.63
 -12   0  -3   -2.26    4.28
 -13   0  -3   -2.58    5.47
  13   0   3  -13.73    6.29
 -14   0  -3    0.16    5.61
 -15   0  -3   -3.62    6.01
 -16   0  -3    5.90    6.02
 -17   0  -3    0.11    6.24
 -18   0  -3    0.62    4.12
 -19   0  -3    5.33    7.75
 -20   0  -3   -1.62    6.77
 -21   0  -3    6.21    7.86
 -22   0  -3    3.97    5.80
 -23   0  -3    3.94    5.84
 -24   0  -3   12.42   10.67
 -25   0  -3    3.03    8.31
 -26   0  -3  -17.33   12.19
 -27   0  -3    0.73    7.91
 -28   0  -3    2.79    6.22
 -29   0  -3    7.39   10.01
 -30   0  -3  -14.34   11.02
 -31   0  -3    5.83    7.36
 -32   0  -3   -7.76    8.76
 -31  -1   3   -1.81    9.15
 -31   1   3    8.22   11.74
 -30  -1   3   77.41   27.79
 -30   1   3   30.57   15.58
 -29   1   3    9.50   11.86
 -29  -1   3  -16.05   12.89
 -28   1   3   42.89   19.41
 -28  -1   3   78.53   24.23
 -27   1   3   27.98   15.40
 -27  -1   3    7.42    8.46
 -26   1   3   40.85   14.87
 -26  -1   3   76.39   21.24
 -25   1   3    4.79    8.12
 -25  -1   3    6.81    7.52
 -24   1   3   61.49   20.18
 -24  -1   3   82.90   22.39
 -23  -1   3   -0.18    7.63
 -23   1   3    4.95    8.77
 -22  -1   3   98.81   22.52
 -22   1   3   78.42   20.38
 -21  -1   3   -2.89   10.14
 -21   1   3   10.52    8.62
 -20  -1   3   57.05   16.15
 -20   1   3   62.34   18.09
 -20   1   3   56.54   10.75
 -19   1   3   -0.37    5.40
 -19  -1   3    5.03    6.89
 -19   1   3    5.11    3.46
 -18   1   3   61.26   10.91
 -18   1   3   61.48   15.75
 -18  -1   3   53.25   15.60
 -17   1   3   -1.73    7.01
 -17  -1   3   -5.89    7.96
 -16   1   3   72.12   17.12
 -16  -1   3   81.13   18.61
 -15   1   3   -1.50    4.42
 -15  -1   3    6.06    5.88
 -14  -1   3    1.57    4.70
 -14   1   3    6.29    5.77
 -13  -1   3   37.05   22.09
 -13   1   3    5.93    7.26
 -12   1   3  667.01   42.51
 -12  -1   3  683.94   44.02
 -11   1   3    3.88    4.80
 -11  -1   3   -2.17    4.32
 -10  -1   3  646.62   39.92
 -10   1   3  605.54   37.28
  -9  -1   3   -0.47    4.84
  -8  -1   3  850.80   40.65
  -7  -1   3    2.63    3.91
   7  -1  -3   -0.67    2.00
  -6  -1   3  263.78   20.24
   6  -1  -3  236.34   13.21
   5  -1  -3   25.84    4.42
  -5  -1   3   22.43    5.48
   4  -1  -3  381.42   15.49
  -4  -1   3  393.54   20.89
   3  -1  -3   21.60    4.03
  -3  -1   3   16.91    4.52
   2   1  -3  817.38   14.25
   2  -1  -3  830.69   21.62
  -2  -1   3  818.65   22.90
   1   1  -3   -3.22    2.48
   1   1  -3    0.88    0.86
  -1  -1   3    2.69    1.98
   1  -1  -3    1.18    2.07
   0  -1  -3  272.54   12.46
  -1   1  -3    4.44    1.78
  -1  -1  -3   -0.32    1.86
  -2  -1  -3 2699.19   48.03
  -3  -1  -3   39.24    6.92
  -3   1  -3   42.37    4.36
   3   1   3   40.20    5.96
   4   1   3 1048.22   31.05
  -4  -1  -3 1026.57   29.33
  -4   1  -3 1019.43   24.86
  -5  -1  -3   18.19    4.94
   5   1   3   25.49    5.94
  -5   1  -3   22.90    4.65
   6   1   3  800.07   32.49
  -6   1  -3  820.61   29.10
  -6  -1  -3  778.59   30.74
  -7   1  -3   -0.19    3.15
  -7  -1  -3   -0.23    4.53
   7   1   3    3.79    4.25
  -8  -1  -3   95.30   12.91
  -8   1  -3   96.71   12.40
   8   1   3  103.84   13.62
   9   1   3    3.25    3.53
  -9  -1  -3    2.99    3.57
  -9   1  -3    4.71    5.16
 -10   1  -3  233.21   21.05
  10   1   3  210.59   21.22
 -10  -1  -3  217.23   21.33
 -11   1  -3    1.21    3.76
 -11  -1  -3   -1.23    5.51
  11   1   3   -1.69    4.88
  12   1   3  281.07   26.84
 -12  -1  -3  288.58   26.51
 -12   1  -3  286.66   25.88
  13   1   3    6.43    4.13
 -13  -1  -3    0.79    4.23
 -13   1  -3   -1.94    4.82
 -14   1  -3  179.19   22.30
 -14  -1  -3  184.12   22.85
 -15  -1  -3   -1.47    5.39
 -15   1  -3   -1.15    3.92
  16   1   3  239.96   28.20
 -16  -1  -3  225.47   27.53
 -16   1  -3  244.71   28.23
 -17  -1  -3   -0.90    4.96
 -17   1  -3   -0.60    6.10
  17   1   3   -5.02    5.57
 -18  -1  -3  231.21   29.43
  18   1   3  240.84   30.48
 -18   1  -3  226.22   29.01
  19   1   3   10.78    8.64
 -19  -1  -3    3.62    4.80
 -19   1  -3    4.08    5.40
 -20  -1  -3  118.22   22.86
  20   1   3  120.64   22.91
 -20   1  -3  100.72   20.75
 -21  -1  -3    1.77    4.97
 -21   1  -3  406.85   48.63
 -22  -1  -3    6.21    7.35
 -22   1  -3   16.30    8.94
 -23  -1  -3   -8.56    8.08
 -23   1  -3   -8.07   10.36
 -24  -1  -3   16.03   10.35
 -24   1  -3   32.86   13.43
 -25   1  -3    2.68    5.37
 -25  -1  -3   -9.06   10.45
 -26  -1  -3   39.38   15.72
 -26   1  -3   36.34   14.68
 -27  -1  -3   -8.16   10.94
 -27   1  -3   -5.73    9.08
 -28  -1  -3   42.54   17.18
 -28   1  -3   46.01   19.41
 -29   1  -3    6.14    9.29
 -29  -1  -3   21.89   12.54
 -30  -1  -3   50.71   17.43
 -30   1  -3   11.51    8.74
 -31   1  -3   -5.07    6.84
 -31  -1  -3   20.83   13.38
 -32   1  -3   54.96   20.35
 -31  -2   3  139.45   34.96
 -31   2   3  105.47   29.77
 -30   2   3   -4.34    8.19
 -30  -2   3    2.49    9.74
 -29   2   3  188.90   38.63
 -29  -2   3  158.06   34.86
 -28   2   3   -2.98    9.57
 -28  -2   3    3.11   10.20
 -27   2   3  192.45   36.66
 -27  -2   3  225.58   39.35
 -26  -2   3   22.08   17.84
 -26   2   3   -1.77   11.23
 -25   2   3  209.17   36.74
 -25  -2   3  218.36   37.35
 -24  -2   3   -9.16   10.59
 -24   2   3    9.76    5.62
 -23  -2   3  249.52   38.24
 -23   2   3  217.37   35.20
 -22   2   3    9.87    6.09
 -22  -2   3    3.21    5.78
 -21   2   3  314.37   39.98
 -21  -2   3  315.14   40.63
 -20  -2   3    4.31    7.22
 -20   2   3    9.02   10.53
  20   2  -3   -4.15    6.05
 -20   2   3    0.64    2.07
 -19   2   3  163.75   18.19
  19   2  -3  168.56   26.93
 -19  -2   3  163.65   27.67
 -19   2   3  171.65   28.15
 -18   2   3    2.56    2.31
 -18   2   3   -1.28    4.89
 -18  -2   3   -1.67    5.98
  18   2  -3    7.03    6.75
 -17   2   3  261.62   32.20
 -17  -2   3  276.39   34.30
 -16  -2   3   -8.31    7.77
 -16   2   3   -2.05    5.91
 -15  -2   3  153.54   24.23
 -15   2   3  163.63   23.85
 -14  -2   3    2.66    6.28
 -14   2   3    7.39    5.81
 -13   2   3  256.63   27.80
 -13  -2   3  270.45   29.05
 -12  -2   3   18.98    7.22
 -11  -2   3 2017.27   73.10
 -10  -2   3    8.67    5.79
  -9  -2   3 1668.48   60.75
   8  -2  -3   -1.59    2.92
  -8  -2   3   -5.57    6.00
  -7  -2   3 1885.66   58.14
   7  -2  -3 1836.37   40.62
  -6  -2   3    4.04    3.55
   6  -2  -3    6.38    3.25
   5  -2  -3 1381.57   33.47
  -5  -2   3 1410.14   43.80
  -4  -2   3    0.58    3.23
   4  -2  -3    2.96    2.49
   3  -2  -3 2091.59   38.97
  -3  -2   3 2125.22   44.15
   2  -2  -3   27.42    4.66
   2   2  -3   39.10    5.93
  -2  -2   3   36.08    5.44
   1   2  -3    6.96    2.51
   1  -2  -3    7.95    3.39
  -1  -2   3    7.86    2.81
   0   2  -3    3.48    2.08
   0  -2  -3    2.96    2.89
  -1  -2  -3   49.74    7.01
  -2  -2  -3    5.01    3.59
  -3  -2  -3 2376.89   52.64
   4   2   3    0.40    2.70
  -4  -2  -3    1.02    3.85
  -5  -2  -3 1362.77   44.97
   5   2   3 1360.57   42.46
  -5  -2  -3 1345.20   40.54
  -6  -2  -3   10.69    4.30
   6   2   3   12.61    4.78
  -7  -2  -3  645.34   31.33
  -7   2  -3  643.97   28.53
   7   2   3  611.37   32.44
   8   2   3   -0.18    3.00
  -8  -2  -3   -1.15    3.13
  -8   2  -3   -0.55    3.79
   9   2   3  412.05   29.89
  -9   2  -3  346.90   24.04
  -9  -2  -3  394.88   27.33
 -10   2  -3    4.61    3.45
 -10  -2  -3   -0.99    4.62
  10   2   3    2.85    3.79
  11   2   3  651.53   40.85
 -11  -2  -3  629.42   38.27
 -11   2  -3  681.26   37.64
 -12  -2  -3    0.62    4.15
  12   2   3   -1.03    4.16
 -12   2  -3   -8.52    7.47
 -13  -2  -3  561.78   38.71
 -13   2  -3  622.83   39.58
 -14  -2  -3   10.76    7.58
 -14   2  -3   -3.57    5.34
 -15   2  -3  488.87   38.32
 -15  -2  -3  505.74   39.98
  15   2   3  498.63   41.24
 -16  -2  -3    4.95    6.42
  16   2   3    4.94    4.27
 -16   2  -3   -4.53    6.87
 -17   2  -3  564.89   44.31
 -17  -2  -3  590.89   46.10
  17   2   3  589.57   47.17
 -18  -2  -3   12.53   10.14
 -18   2  -3   -4.45    6.37
  18   2   3   14.37    9.05
 -19   2  -3  605.76   48.55
  19   2   3  612.53   51.22
 -19  -2  -3  587.60   48.28
  20   2   3    6.61    5.67
 -20  -2  -3   -0.80    7.16
 -20   2  -3    2.76    6.45
 -21  -2  -3   99.35   21.60
  21   2   3   91.29   21.48
 -21   2  -3  109.07   21.23
 -22   2  -3   -0.72    7.08
 -22  -2  -3    6.70    6.90
 -23  -2  -3   78.45   20.31
 -23   2  -3   66.17   17.54
 -24  -2  -3   11.08    9.36
 -24   2  -3    2.01    6.36
 -25   2  -3   75.96   21.44
 -25  -2  -3   73.18   20.49
 -26  -2  -3   -2.80    9.83
 -26   2  -3    0.13    8.65
 -27   2  -3   98.52   24.93
 -27  -2  -3  128.42   28.62
 -28  -2  -3   -3.97    7.29
 -28   2  -3   -1.31    9.79
 -29  -2  -3  172.74   33.02
 -29   2  -3  205.21   37.10
 -30   2  -3  -12.54   12.08
 -30  -2  -3  -12.16   15.26
 -31   2  -3  152.80   33.22
 -31  -2  -3  166.11   33.30
 -32   2  -3   12.84   12.37
 -31   3   3    0.08    9.51
 -30   3   3  183.89   37.18
 -30  -3   3  210.48   41.43
 -29  -3   3    7.53    7.45
 -29   3   3   11.03   10.14
 -28  -3   3  246.39   42.95
 -28   3   3  233.42   41.54
 -27   3   3   26.64   15.67
 -27  -3   3   -6.39    7.23
 -26   3   3  268.71   42.86
 -26  -3   3  284.16   43.11
 -25  -3   3   -3.69    8.94
 -25   3   3   -3.27    9.77
 -24  -3   3  279.26   40.92
 -24   3   3  298.35   42.55
 -23  -3   3   34.38   16.01
 -23   3   3    4.86    8.02
 -22  -3   3  426.64   48.24
 -22   3   3  470.53   49.95
 -21  -3   3    7.70    7.66
 -21   3   3   -3.73    8.41
  20   3  -3  413.22   44.40
 -20   3   3  448.46   32.07
 -20  -3   3  430.60   46.41
 -20   3   3  414.49   45.27
 -19   3   3    4.76    4.21
 -19   3   3    1.78    7.87
  19   3  -3   -1.60    4.63
 -19  -3   3    2.02    5.79
  18   3  -3  280.76   35.02
 -18  -3   3  285.22   35.27
 -18   3   3  307.95   36.60
 -18   3   3  318.34   25.48
 -17   3   3   -2.71    3.19
 -17  -3   3    7.56    6.34
 -17   3   3    3.54    5.35
 -16  -3   3  337.49   36.64
 -16   3   3  337.88   37.21
 -15  -3   3    4.27    6.45
 -14  -3   3  580.38   44.52
 -13  -3   3    7.42    6.30
 -12  -3   3  684.00   45.25
 -11  -3   3   41.50   11.60
 -10  -3   3 2593.26   81.18
  10  -3  -3 2632.33   55.79
   9  -3  -3   14.09    4.45
  -9  -3   3   21.96    8.23
   8  -3  -3 2022.44   46.56
  -8  -3   3 1977.05   63.87
  -7  -3   3   34.53    8.34
   7  -3  -3   38.74    6.22
   6  -3  -3 1248.43   34.96
  -6  -3   3 1264.12   45.21
   5  -3  -3  136.13   11.54
  -5  -3   3  135.97   14.43
  -4  -3   3 1054.49   36.15
   4   3  -3 1095.00   39.28
   4  -3  -3 1104.71   31.54
   3  -3  -3   12.18    3.72
   3   3  -3    8.46    3.74
  -3  -3   3   10.31    3.38
  -2  -3   3   12.13    3.56
   2   3  -3   11.79    3.93
   2  -3  -3    9.20    3.42
   1  -3  -3   39.60    6.20
   1   3  -3   50.41    6.75
   0  -3  -3  675.13   25.28
  -1  -3  -3    0.19    2.42
  -2  -3  -3   88.21   11.67
  -2   3  -3   81.19    4.38
  -3   3  -3    9.19    1.85
  -3  -3  -3   13.35    5.38
  -4  -3  -3 2228.33   58.07
  -5  -3  -3   44.27    8.95
  -6  -3  -3  833.50   38.73
   6   3   3  794.49   37.07
  -6  -3  -3  884.91   37.73
  -7  -3  -3    0.99    4.27
  -7  -3  -3   -0.68    3.94
   7   3   3    1.33    4.02
   8   3   3  717.75   39.37
  -8  -3  -3  711.29   36.60
  -9  -3  -3   -1.07    4.48
   9   3   3    2.41    3.69
 -10  -3  -3  521.42   34.38
  10   3   3  566.43   38.52
 -11   3  -3   16.60    5.91
 -11  -3  -3   17.20    7.18
  11   3   3   11.37    5.96
 -12  -3  -3  835.35   46.21
 -12   3  -3  833.20   43.92
 -13  -3  -3   14.60    8.41
 -13   3  -3    5.50    5.27
  14   3   3  861.40   54.63
 -14  -3  -3  847.91   50.54
 -14   3  -3  831.25   48.10
 -15   3  -3   -3.37    6.19
  15   3   3   -9.69    6.20
 -15  -3  -3   -0.95    4.52
 -16  -3  -3  732.26   49.77
 -16   3  -3  710.58   47.86
  16   3   3  809.73   55.94
 -17  -3  -3   18.61   10.85
  17   3   3   10.14    8.88
 -17   3  -3    2.29    4.50
  18   3   3  897.53   61.84
 -18   3  -3  877.51   56.64
 -18  -3  -3  868.48   57.59
 -19   3  -3    3.41    5.92
 -19  -3  -3   -7.60    6.04
  19   3   3   -1.72    7.74
  20   3   3  387.86   42.60
 -20  -3  -3  291.34   35.43
 -20   3  -3  347.93   37.97
 -21  -3  -3    4.83    7.47
 -21   3  -3    0.36    5.51
 -22   3  -3  198.22   31.36
 -22  -3  -3  205.17   31.21
 -23   3  -3    7.40    9.18
 -23  -3  -3    6.59    7.67
 -24   3  -3  122.65   26.05
 -24  -3  -3  152.91   28.75
 -25   3  -3   15.38   11.46
 -25  -3  -3    8.99    8.57
 -26   3  -3  166.39   30.60
 -26  -3  -3  198.41   34.67
 -27   3  -3   -1.38    8.04
 -27  -3  -3  -13.30   13.43
 -28  -3  -3  180.50   33.56
 -28   3  -3  171.80   33.50
 -29   3  -3   -3.64    7.51
 -29  -3  -3   -3.08   10.22
 -30  -3  -3  211.31   36.62
 -30   3  -3  220.54   38.99
 -31  -3  -3    5.79    9.67
 -31   3  -3   25.20   14.35
 -32   3  -3  165.19   34.92
 -30  -4   3    5.20   11.26
 -30   4   3   -7.85    9.21
 -29  -4   3  156.13   35.42
 -29   4   3  141.48   34.15
 -28  -4   3    6.61   13.79
 -28   4   3   32.52   15.01
 -27   4   3  234.50   42.11
 -27  -4   3  191.44   36.57
 -26   4   3   24.23   15.08
 -26  -4   3   23.94   12.27
 -25   4   3  232.09   39.17
 -25  -4   3  194.54   35.52
 -24   4   3   24.56   13.75
 -24  -4   3   20.15   11.04
 -23   4   3  339.14   44.86
 -23  -4   3  333.20   44.11
 -22   4   3   21.43   13.93
 -22  -4   3    7.23    8.78
 -21  -4   3  308.89   40.40
 -21   4   3  313.72   41.76
 -20   4   3    7.31    7.73
 -20  -4   3   10.45    7.51
 -19   4   3  406.05   29.97
 -19   4   3  378.78   42.49
 -19  -4   3  373.32   42.07
  19   4  -3  370.84   42.29
 -18   4   3    3.89    4.25
 -18  -4   3    7.51    6.74
 -18   4   3    2.02    5.13
  18   4  -3   -9.32    7.57
  17   4  -3  230.78   31.73
 -17   4   3  216.12   20.83
 -17  -4   3  245.00   32.83
  16   4  -3    4.03    5.25
 -16  -4   3    0.48    6.20
 -16   4   3    0.50    2.48
 -15  -4   3  385.72   37.87
 -14  -4   3   -2.53    5.08
 -13  -4   3  681.56   47.22
 -12  -4   3    3.48    5.90
  11  -4  -3  586.50   28.18
 -11  -4   3  594.46   40.97
  10  -4  -3   31.40    7.15
 -10  -4   3   29.35    8.89
   9  -4  -3 2200.42   52.53
  -9  -4   3 2070.90   69.80
  -8  -4   3   99.73   15.33
   8  -4  -3   83.92   10.27
  -7  -4   3 1256.89   49.18
   7  -4  -3 1261.37   38.05
  -6  -4   3   59.03   10.25
   6  -4  -3   57.12    8.61
   5   4  -3 1401.17   50.29
  -5  -4   3 1456.18   47.73
   5  -4  -3 1429.61   38.90
   4   4  -3    9.11    4.75
   4  -4  -3    2.14    2.69
  -4  -4   3    3.57    3.02
   3  -4  -3  240.08   15.84
   3   4  -3  219.96   17.82
  -3  -4   3  210.66   12.11
  -2  -4   3   22.41    3.50
   2   4  -3   20.59    5.60
   2  -4  -3   19.73    4.85
   1   4  -3  555.48   25.07
   1  -4  -3  559.80   24.16
  -1  -4   3  569.12   13.30
   0   4  -3    9.16    2.13
   0  -4  -3    9.93    4.10
   0  -4   3    9.00    1.66
   1  -4   3  902.88   14.81
  -1   4  -3  900.14   16.79
  -1  -4  -3  912.14   32.95
  -2  -4  -3   23.94    6.45
  -2   4  -3   24.62    3.07
  -3  -4  -3  535.25   28.51
  -3   4  -3  549.36   14.93
  -4   4  -3   -0.02    1.15
  -4  -4  -3   -1.62    3.73
  -5   4  -3  887.64   22.16
  -5  -4  -3  853.85   39.20
  -6  -4  -3   61.14   11.37
  -6   4  -3   51.89    5.72
  -7   4  -3 1174.52   28.91
  -7  -4  -3 1177.00   49.81
  -8  -4  -3   47.15   10.79
  -8  -4  -3   39.48    9.63
  -8   4  -3   50.63    6.47
   8   4   3   54.32   11.86
  -9  -4  -3  843.82   43.05
  -9  -4  -3  813.30   44.40
   9   4   3  802.89   45.87
  -9   4  -3  818.03   27.12
 -10   4  -3   19.68    4.53
 -10  -4  -3   28.51    8.76
 -11  -4  -3  440.36   33.31
 -12  -4  -3   45.67   11.34
  13   4   3  695.44   49.17
 -13  -4  -3  661.66   43.93
 -14  -4  -3   30.08   11.45
  14   4   3   31.44   12.05
 -14   4  -3   21.55    9.34
  15   4   3  676.35   51.81
 -15   4  -3  684.74   45.36
 -15  -4  -3  666.05   46.68
 -16  -4  -3   29.93   11.46
 -16   4  -3   28.17   10.39
  16   4   3   37.32   12.98
 -17  -4  -3  669.25   49.91
 -17   4  -3  645.21   47.36
  17   4   3  677.60   54.18
 -18  -4  -3   19.16    7.20
  18   4   3   42.14   14.17
 -18   4  -3   38.67   12.61
 -19  -4  -3  308.20   35.45
  19   4   3  309.29   38.16
 -19   4  -3  270.87   33.22
 -20  -4  -3    9.53    8.03
 -20   4  -3   25.01   10.67
 -21   4  -3  335.69   38.38
 -21  -4  -3  344.58   40.55
 -22  -4  -3    6.18    7.02
 -22   4  -3   13.32    9.64
 -23   4  -3  177.93   30.15
 -23  -4  -3  185.66   31.15
 -24  -4  -3    5.34    8.51
 -24   4  -3    3.23    5.76
 -25   4  -3  181.75   31.93
 -25  -4  -3  141.20   28.35
 -26  -4  -3    8.67    8.32
 -26   4  -3   -5.40    6.51
 -27   4  -3  171.66   31.91
 -27  -4  -3  125.81   28.35
 -28  -4  -3   11.08   10.96
 -28   4  -3   -5.66    7.23
 -29   4  -3  185.68   35.49
 -29  -4  -3  176.01   34.26
 -30  -4  -3   13.51   13.55
 -30   4  -3    6.48   10.30
 -31   4  -3  160.47   34.67
 -30   5   3   90.65   27.74
 -29  -5   3   -3.25   14.51
 -29   5   3   -6.53   14.77
 -28  -5   3  276.18   43.25
 -28   5   3   89.11   26.94
 -27   5   3    3.64   10.36
 -27  -5   3   19.27   14.63
 -26  -5   3   89.51   25.46
 -26   5   3   93.33   26.41
 -25  -5   3   29.71   14.89
 -25   5   3   23.61   11.01
 -24   5   3  144.79   30.72
 -24  -5   3  130.78   28.32
 -23   5   3   14.14    8.58
 -23  -5   3   18.22   10.81
 -22  -5   3  114.07   26.36
 -22   5   3  157.29   30.30
 -21  -5   3    7.52    6.28
 -21   5   3   15.65   11.13
 -20   5   3  171.41   30.93
 -20  -5   3  174.20   29.57
 -19  -5   3    7.07    7.13
 -19   5   3   -1.41    5.04
 -18   5   3  207.64   21.48
 -18  -5   3  228.45   32.26
  18   5  -3  187.01   30.40
  17   5  -3    6.89    4.84
 -17   5   3    8.16    6.04
 -17  -5   3   30.43   12.61
 -16  -5   3  127.27   23.99
  16   5  -3  135.47   24.96
 -16   5   3  136.91   16.84
 -15   5   3   17.89    6.65
 -15  -5   3    8.65    5.23
  15   5  -3    7.51    6.35
 -14  -5   3  274.74   31.42
 -14   5   3  220.18   20.67
 -13  -5   3   41.25   12.13
  12  -5  -3  365.34   23.57
 -12  -5   3  332.46   31.87
  11  -5  -3   94.83   12.24
 -11  -5   3   87.27   16.24
  10  -5  -3  265.94   19.55
 -10  -5   3  219.24   24.38
  -9  -5   3   80.14   14.55
   9  -5  -3   95.80   11.82
   8  -5  -3  760.76   31.47
  -8  -5   3  779.73   42.25
   7  -5  -3   97.83   11.26
   7   5  -3   78.52   14.26
  -7  -5   3   79.15   12.72
  -6  -5   3  910.25   42.11
   6   5  -3  901.87   44.46
   6  -5  -3  899.58   33.23
   5  -5  -3   30.39    6.43
  -5  -5   3   37.69    8.74
   5   5  -3   27.93    8.12
   4  -5  -3  361.17   20.69
  -4  -5   3  349.41   18.60
   4   5  -3  338.96   25.04
   3   5  -3  102.80   13.41
  -3  -5   3  105.82    9.21
   3  -5  -3  100.53   11.27
   2  -5  -3  640.01   27.68
   2   5  -3  664.13   31.76
  -2  -5   3  648.67   19.59
   1  -5  -3   47.98    8.54
   1   5  -3   56.75    9.85
  -1  -5   3   46.58    4.83
   0  -5   3  883.18   19.00
   0   5  -3  866.78   23.15
   0  -5  -3  890.20   33.48
   1  -5   3   38.01    4.14
  -1   5  -3   39.26    4.69
  -1  -5  -3   32.00    7.23
   2  -5   3  567.65   15.22
  -2  -5  -3  574.29   29.09
  -2   5  -3  576.26   17.02
  -3   5  -3  116.27    7.95
  -3  -5  -3  132.91   14.95
   3  -5   3  115.39    7.29
  -4   5  -3  116.72    8.40
  -4  -5  -3  119.12   14.58
  -5   5  -3    8.01    2.63
  -5  -5  -3   17.50    6.85
  -6  -5  -3  689.47   37.89
  -6   5  -3  697.62   22.57
  -7  -5  -3   84.40   13.94
  -7   5  -3   89.64    8.67
  -8   5  -3  696.58   24.79
  -8  -5  -3  702.52   40.87
  -9   5  -3   97.43    9.99
  -9  -5  -3   77.19   14.82
 -10  -5  -3  316.17   29.68
 -10  -5  -3  342.33   30.12
 -10   5  -3  353.41   19.71
 -11   5  -3   77.91    9.78
 -11  -5  -3   63.79   14.04
 -11  -5  -3   57.12   13.31
  11   5   3   61.07   14.40
  12   5   3  243.13   29.93
 -12  -5  -3  230.03   26.29
 -12   5  -3  241.36   17.66
  13   5   3   75.05   17.11
 -13  -5  -3   91.64   17.01
 -13   5  -3   68.20    9.79
 -14   5  -3  325.61   22.57
 -14  -5  -3  282.07   30.69
  14   5   3  291.55   34.26
 -15   5  -3   56.88    9.73
  15   5   3   56.93   15.59
 -15  -5  -3   47.70   13.39
 -16   5  -3  410.96   26.78
 -16  -5  -3  364.79   36.59
  16   5   3  447.88   45.09
 -16   5  -3  394.36   36.32
 -17   5  -3   61.98   11.29
 -17  -5  -3   24.20   10.01
  17   5   3   36.06   12.46
 -17   5  -3   41.17   13.59
 -18   5  -3  106.95   14.71
 -18  -5  -3   97.86   20.73
  18   5   3   83.05   20.42
 -18   5  -3   85.03   18.38
 -19   5  -3   40.69    9.93
 -19   5  -3   31.53   12.11
 -20  -5  -3  197.89   29.72
 -20   5  -3  218.55   22.68
 -20   5  -3  182.35   28.12
 -21   5  -3   28.91   12.25
 -21  -5  -3   21.03   12.76
 -22  -5  -3  184.20   30.75
 -22   5  -3  179.56   29.88
 -23  -5  -3   26.46   13.56
 -23   5  -3   34.32   15.56
 -24  -5  -3   88.63   22.85
 -24   5  -3  117.22   26.01
 -25   5  -3   17.87   10.27
 -25  -5  -3   22.08   11.67
 -26  -5  -3   82.01   22.51
 -26   5  -3   91.29   23.10
 -27  -5  -3   20.29   11.67
 -27   5  -3  105.32   26.59
 -28  -5  -3   51.14   17.07
 -28   5  -3   54.79   20.77
 -29  -5  -3   -2.23   11.21
 -29   5  -3   35.14   17.71
 -30   5  -3   67.70   21.51
 -31   5  -3   33.78   17.04
 -29  -6   3    7.93   12.50
 -29   6   3   10.91   10.41
 -28   6   3    2.80   12.50
 -28  -6   3   29.94   15.16
 -27  -6   3    0.13   10.39
 -27   6   3    0.37   10.31
 -26   6   3   34.53   18.09
 -26  -6   3   66.63   22.90
 -25   6   3    5.75    7.98
 -25  -6   3   19.07   12.54
 -24   6   3   22.00   12.52
 -24  -6   3   25.41   14.91
 -23  -6   3   34.49   15.63
 -23   6   3   42.08   19.15
 -22  -6   3   26.84   11.66
 -22   6   3   28.18   17.33
 -21  -6   3   10.56    7.80
 -20  -6   3   34.52   15.22
 -19  -6   3   27.56   12.68
 -18  -6   3   27.83   13.90
 -18   6   3   33.71    8.92
 -17   6   3   31.14    8.69
  17   6  -3   23.62   11.69
 -17  -6   3   35.11   14.60
 -16   6   3   50.65   10.91
  16   6  -3   43.63   15.53
 -16  -6   3   44.19   14.66
 -15  -6   3   30.22   12.36
 -15   6   3   31.87    8.46
  15   6  -3   11.26   10.06
 -14  -6   3   65.99   17.07
  14   6  -3   53.42   15.27
 -14   6   3   68.14   12.31
 -13  -6   3   18.14    8.36
  13  -6  -3   34.64    8.49
 -13   6   3   25.17    7.20
  13   6  -3   32.50   11.67
 -12   6   3   96.84   13.71
  12   6  -3   98.75   19.25
 -12  -6   3  102.00   18.79
  12  -6  -3   86.78   12.21
 -11  -6   3   71.32   15.20
  11   6  -3   73.58   19.11
 -11   6   3   75.45   11.99
  11  -6  -3   92.48   12.29
  10  -6  -3  150.72   15.53
  10   6  -3  145.84   22.12
 -10  -6   3  144.66   21.01
 -10   6   3  126.12   15.20
  -9   6   3   -1.09    3.16
   9  -6  -3   10.14    4.44
   9   6  -3    9.45    5.93
  -9  -6   3    5.96    5.80
  -8  -6   3  201.76   23.04
   8   6  -3  175.30   22.57
   8  -6  -3  178.20   16.33
   7  -6  -3  211.13   17.32
   7   6  -3  208.69   23.94
  -7  -6   3  195.38   22.15
   6   6  -3  108.23   16.94
  -6  -6   3  105.19   12.77
   6  -6  -3  101.40   12.10
   5  -6  -3   29.59    6.63
  -5  -6   3   23.44    5.82
   5   6  -3   18.31    7.61
  -4  -6   3  153.51   13.04
   4   6  -3  158.96   18.36
   4  -6  -3  149.50   14.39
  -3  -6   3  116.35   10.13
   3  -6  -3  115.00   12.63
   3   6  -3  114.55   15.05
   2   6  -3  159.92   17.58
   2  -6  -3  182.77   16.01
  -2  -6   3  173.10   11.19
   1   6  -3  260.83   15.52
   1  -6  -3  295.11   20.43
  -1  -6   3  305.28   13.76
   0  -6   3   52.45    5.54
   0  -6  -3   56.99    9.36
   0   6  -3   52.70    6.81
  -1   6  -3  168.74   11.28
  -1  -6  -3  174.02   16.52
   1  -6   3  167.89    9.72
  -2   6  -3  148.18   10.20
   2  -6   3  142.67    8.77
  -2  -6  -3  128.19   14.39
  -3   6  -3   74.38    7.25
   3  -6   3   84.77    7.09
  -3  -6  -3   67.30   11.35
   4  -6   3   66.78    6.60
  -4  -6  -3   69.98   12.06
  -4   6  -3   62.54    6.97
  -5  -6  -3   62.38   12.32
  -5   6  -3   61.25    6.94
  -6  -6  -3   34.52    9.88
  -6   6  -3   35.23    5.59
  -7   6  -3  178.25   12.81
  -7  -6  -3  156.54   19.63
  -8  -6  -3   52.55   12.12
  -8   6  -3   47.56    7.04
  -9   6  -3  108.54   11.03
   9   6   3  108.64   19.10
  -9  -6  -3  111.44   18.47
  10   6   3   91.63   18.03
 -10  -6  -3   81.55   15.24
 -10   6  -3   78.57    9.41
 -11  -6  -3  110.26   18.66
  11   6   3  109.78   20.14
 -11   6  -3  120.19   12.25
 -12  -6  -3   62.91   14.98
  12   6   3   79.00   18.31
 -12   6  -3   62.76    9.25
 -12  -6  -3   71.34   15.69
  13   6   3   58.77   16.88
 -13  -6  -3   55.07   14.10
 -13  -6  -3   51.30   13.29
 -13   6  -3   57.23    9.33
 -14   6  -3   75.69   11.33
 -14  -6  -3   55.91   14.67
  14   6   3   56.39   16.47
 -14  -6  -3   63.01   15.35
 -15   6  -3  129.15   14.87
  15   6   3  109.39   22.96
 -15  -6  -3  101.45   19.74
 -15  -6  -3  131.25   22.03
  16   6   3   79.56   19.16
 -16   6  -3   71.92   11.67
 -16  -6  -3   78.18   18.53
  17   6   3   19.35   10.46
 -17  -6  -3   27.39   12.47
 -17   6  -3   16.16    5.93
 -18   6  -3   29.02   11.44
 -18  -6  -3   27.09   12.50
 -18   6  -3   31.75    8.40
 -19   6  -3   62.30   11.99
 -19  -6  -3   57.49   16.42
 -19   6  -3   65.12   17.32
 -20  -6  -3   40.96   14.51
 -20   6  -3   38.04   14.32
 -21  -6  -3   74.16   19.07
 -21   6  -3   60.17   16.32
 -22  -6  -3    9.51    9.12
 -22   6  -3   22.66   12.33
 -23  -6  -3   40.08   12.95
 -23   6  -3   48.11   15.89
 -24   6  -3   42.70   15.51
 -24  -6  -3    8.64    9.67
 -25  -6  -3   50.45   18.44
 -25   6  -3   31.37   14.47
 -26  -6  -3   21.28   12.93
 -26   6  -3   -2.40    6.43
 -27  -6  -3   45.53   17.95
 -27   6  -3   20.04   12.30
 -28   6  -3   -0.71    8.82
 -28  -6  -3   15.38   11.15
 -29   6  -3   46.26   19.71
 -30   6  -3   17.87    9.95
 -31   6  -3   34.73   18.08
 -29   7   3    4.03   12.28
 -28  -7   3    3.60   10.92
 -28   7   3  -15.61   10.50
 -27  -7   3   55.93   21.26
 -27   7   3   63.74   22.83
 -26   7   3   -8.96    9.12
 -26  -7   3    6.88    7.78
 -25  -7   3   40.21   17.17
 -25   7   3   56.18   22.18
 -24  -7   3    4.44    7.34
 -24   7   3  -10.96    7.60
 -23  -7   3   49.34   17.57
 -22  -7   3    0.18    7.56
 -21  -7   3   35.51   13.37
 -20  -7   3    4.30    7.86
 -19  -7   3   40.57   14.84
 -18  -7   3   -4.00    8.65
 -17  -7   3   41.60   16.11
 -17   7   3   49.13   11.38
 -16  -7   3    4.82    8.30
  16   7  -3    5.17    9.17
 -16   7   3   -3.70    4.85
 -15  -7   3   93.87   20.39
 -15   7   3   71.93   12.70
  15   7  -3   99.40   21.12
 -14   7   3   -0.56    3.62
  14   7  -3    8.09    8.79
 -14  -7   3    1.60    6.49
  14  -7  -3    2.48    2.79
  13  -7  -3  108.35   14.19
 -13  -7   3   86.16   17.97
  13   7  -3   90.59   20.37
 -13   7   3  104.95   15.17
 -12   7   3    0.39    2.87
  12   7  -3    3.16    6.83
  12  -7  -3    1.40    3.61
 -12  -7   3    4.09    4.33
  11  -7  -3  138.35   15.47
 -11  -7   3  113.25   19.57
  11   7  -3  115.05   22.02
 -11   7   3  119.90   15.67
  10  -7  -3    4.28    2.87
  10   7  -3    8.20    8.66
 -10   7   3    1.39    2.93
 -10  -7   3    1.83    4.34
   9  -7  -3  156.61   16.10
  -9  -7   3  135.85   17.32
   9   7  -3  158.52   22.98
  -9  -7   3  152.94   21.15
  -9   7   3  162.40   17.71
  -8  -7   3   -1.10    4.00
   8   7  -3    1.49    3.60
   8  -7  -3    4.41    3.58
  -8   7   3   -1.11    2.32
  -7   7   3   54.48   10.32
   7   7  -3   76.88   15.37
   7  -7  -3   79.10   11.21
  -7  -7   3   63.36   10.98
   6  -7  -3    3.67    3.52
  -6  -7   3    0.71    3.78
  -6   7   3    3.93    3.58
   6   7  -3   -2.21    4.31
  -5  -7   3  148.32   14.12
  -5   7   3  123.82   15.20
   5  -7  -3  137.44   14.45
   5   7  -3  135.92   19.19
  -4   7   3    2.62    3.92
  -4  -7   3    1.27    2.27
   4  -7  -3    4.52    2.40
   4   7  -3    1.71    4.20
  -3  -7   3   94.67    9.81
   3   7  -3   90.13   14.79
  -3   7   3   92.10   13.15
   3  -7  -3   86.78   11.70
   2   7  -3    7.22    6.36
  -2   7   3   -2.94    3.83
  -2  -7   3    3.89    2.41
   2  -7  -3   -0.48    2.70
   1  -7  -3  136.66   14.69
  -1  -7   3  137.65   10.39
  -1   7   3  132.38   16.13
   1   7  -3  125.05   12.30
   0   7  -3    4.97    3.22
   0  -7  -3    7.53    3.67
   0   7   3    4.67    3.58
   0  -7   3   12.69    3.21
   1   7   3  104.53   15.28
  -1  -7  -3  105.31   13.49
  -1   7  -3  104.04   10.31
   1  -7   3  120.18    9.29
   2   7   3   19.88    7.00
  -2   7  -3   27.59    5.16
   2  -7   3   20.34    4.04
  -2  -7  -3   34.27   10.69
   3  -7   3   65.51    6.86
   3   7   3   86.18   15.28
  -3   7  -3   77.18    8.40
  -3  -7  -3   68.70   11.73
   4  -7   3    7.85    2.79
  -4   7  -3   10.02    3.35
   4   7   3   15.59    7.63
  -4  -7  -3    5.45    3.90
   5  -7   3   77.19    7.81
  -5  -7  -3   66.22   12.50
  -5   7  -3   79.21    8.81
   5   7   3   85.45   15.22
  -6  -7  -3   -0.85    5.63
  -6   7  -3   -1.24    2.73
  -7  -7  -3   35.56   10.16
  -7   7  -3   42.44    6.92
  -8  -7  -3    2.64    6.62
  -8   7  -3    4.26    2.67
  -9  -7  -3   95.20   16.67
   9   7   3   87.58   17.44
  -9   7  -3   97.65   10.98
 -10  -7  -3    2.66    4.59
  10   7   3    8.39    8.13
 -10   7  -3    5.51    3.54
  11   7   3   54.89   15.00
 -11  -7  -3   67.23   15.37
 -11   7  -3   52.59    8.72
 -12   7  -3   -1.23    2.64
  12   7   3    0.15    4.11
 -12  -7  -3   -1.07    6.71
 -13  -7  -3   79.48   17.01
  13   7   3   84.41   20.96
 -13   7  -3   71.23   10.51
 -14  -7  -3   -6.38    7.15
 -14   7  -3    1.99    3.30
  14   7   3    5.13    5.70
 -15   7  -3   80.25   12.14
 -15  -7  -3   98.24   20.10
 -15  -7  -3   89.86   18.77
  15   7   3   76.60   19.35
 -16  -7  -3   -2.71    6.30
 -16   7  -3    1.72    3.20
 -16  -7  -3    7.66    7.49
 -17  -7  -3   68.15   18.31
 -17   7  -3   61.87   11.31
 -17  -7  -3   54.98   17.10
 -18  -7  -3   10.97    8.46
 -18  -7  -3   -4.31   10.15
 -18   7  -3   10.41    4.57
 -19  -7  -3   29.35   11.69
 -19   7  -3   30.96    8.90
 -19  -7  -3   46.26   16.14
 -20  -7  -3   12.98   11.12
 -20  -7  -3    0.81    8.66
 -20   7  -3    4.42    5.37
 -21   7  -3   15.34    9.98
 -21  -7  -3    1.97    7.05
 -22  -7  -3    0.57    7.49
 -22   7  -3    0.19    6.81
 -23   7  -3    8.77    7.81
 -23  -7  -3   13.87    9.26
 -24   7  -3  -15.17   11.41
 -24  -7  -3  -10.12   10.13
 -25   7  -3   25.66   11.60
 -25  -7  -3   22.23   15.18
 -26  -7  -3    4.33   11.15
 -26   7  -3   -6.41    9.45
 -27  -7  -3   19.19   11.05
 -27   7  -3   12.57   13.07
 -28  -7  -3    6.30    6.84
 -28   7  -3  -32.16   15.90
 -29   7  -3   38.73   20.00
 -30   7  -3   -3.59   14.45
 -28   8   3   25.02   16.80
 -27  -8   3   -1.72   10.01
 -27   8   3    0.72    6.91
 -26   8   3   28.83   12.64
 -26  -8   3   40.03   17.49
 -25  -8   3   -5.28    9.57
 -25   8   3    0.30    9.50
 -24  -8   3   25.05   13.58
 -23  -8   3   -4.54   10.19
 -22  -8   3   13.98    7.56
 -21  -8   3   -2.32   10.28
 -20  -8   3   29.28   14.14
 -19  -8   3   17.94   10.61
 -18  -8   3   32.75   12.20
 -17  -8   3   30.30   13.17
 -16   8   3   49.24   11.43
 -16  -8   3   27.01   11.00
 -15  -8   3   13.90    9.99
 -15   8   3   16.31    6.38
  15  -8  -3   12.31    6.13
  14  -8  -3   99.62   14.02
 -14   8   3   69.15   13.19
  14   8  -3   77.87   19.99
 -14  -8   3   78.40   18.95
 -13   8   3   -5.61    3.34
  13  -8  -3   -1.62    3.94
 -13  -8   3   -6.24    6.73
  13   8  -3   12.39    8.83
  12  -8  -3   64.08   11.63
 -12  -8   3   85.79   18.15
  12   8  -3   87.65   20.44
 -12  -8   3   92.19   16.79
 -12   8   3   98.40   15.24
  11  -8  -3   24.83    7.71
 -11   8   3   25.53    7.45
 -11  -8   3   14.92    7.33
  11   8  -3   13.72    9.41
 -11  -8   3   20.11    8.14
  10  -8  -3   53.06    9.98
 -10  -8   3   65.64   12.99
  10   8  -3   48.28   14.18
 -10   8   3   62.01   11.64
  -9  -8   3    4.60    3.26
   9   8  -3    4.22    4.67
  -9   8   3    3.53    3.09
   9  -8  -3   -0.64    2.49
   8  -8  -3   54.38    9.68
  -8   8   3   65.59   11.90
   8   8  -3   77.63   18.40
  -8  -8   3   52.09   10.73
   7  -8  -3   47.87    9.43
  -7   8   3   47.41   10.26
  -7  -8   3   54.52    9.95
   7   8  -3   74.60   15.85
  -6  -8   3   51.57    9.18
  -6   8   3   60.58   11.68
   6   8  -3   69.55   15.06
   6  -8  -3   39.44    7.97
  -5  -8   3   17.54    4.86
  -5   8   3    8.63    5.41
   5  -8  -3   26.14    7.33
   5   8  -3   15.93    7.37
   4  -8  -3   58.51   10.48
  -4   8   3   73.27   12.14
   4   8  -3   77.25   14.73
  -4  -8   3   53.41    8.51
  -3  -8   3    5.21    2.43
  -3   8   3    3.89    2.99
   3  -8  -3    5.44    4.65
   3   8  -3    2.78    4.03
  -2  -8   3   49.33    7.40
   2  -8  -3   48.85    9.46
   2   8  -3   49.77   11.33
  -2   8   3   49.41   10.40
  -1   8   3   43.31   10.63
   1  -8  -3   55.69    9.85
   1   8  -3   64.63    9.87
  -1  -8   3   56.95    7.41
   0   8  -3   96.89   11.73
   0   8   3   98.10   15.62
   0  -8   3  105.09    9.81
   0  -8  -3  108.64   14.15
   1  -8   3   51.20    6.80
  -1  -8  -3   34.93    8.24
  -1   8  -3   36.96    7.02
   1   8   3   38.27   10.35
  -2  -8  -3   42.13    9.34
  -2   8  -3   42.80    7.52
   2   8   3   40.63   11.45
   2  -8   3   43.08    6.15
  -3   8  -3    4.69    3.14
  -3  -8  -3    9.08    5.36
   3   8   3    4.52    5.20
   3  -8   3    1.93    2.12
  -4   8  -3   70.82    8.87
   4   8   3   70.50   14.60
   4  -8   3   73.82    8.38
  -4  -8  -3   62.68   11.91
   5  -8   3    1.40    1.71
  -5  -8  -3    5.90    5.45
   5   8   3   -1.39    4.53
  -5   8  -3    3.10    2.38
  -6  -8  -3   48.69   11.50
   6  -8   3   57.87    7.46
  -6   8  -3   55.45    8.24
  -7   8  -3   49.30    7.84
  -7  -8  -3   52.32   12.45
  -8   8  -3   37.36    7.17
  -8  -8  -3   44.55   11.40
   8   8   3   53.23   14.89
  -9   8  -3   26.02    6.44
   9   8   3   23.85   11.04
  -9  -8  -3   21.94    9.18
 -10   8  -3   52.32    8.92
 -10  -8  -3   62.17   14.60
  10   8   3   34.05   12.68
 -11  -8  -3   11.37    7.43
 -11   8  -3   10.33    5.22
  11   8   3   15.81   10.17
 -12  -8  -3   72.52   16.37
  12   8   3   82.55   19.49
 -12   8  -3   68.89   10.72
 -13  -8  -3    9.51    9.29
 -13   8  -3   -2.11    3.93
  13   8   3    7.94    6.82
 -14   8  -3   81.48   12.23
 -14  -8  -3   81.70   18.33
 -15   8  -3   29.33    7.92
 -15  -8  -3   31.75   12.95
 -16  -8  -3   81.67   19.76
 -16   8  -3   97.22   14.48
 -17   8  -3    9.64    7.36
 -17  -8  -3   -7.21    8.97
 -18  -8  -3   28.82   12.96
 -18  -8  -3   31.27   13.63
 -18   8  -3   28.65    8.24
 -19  -8  -3    2.69    5.43
 -19  -8  -3   13.23   11.18
 -20  -8  -3   20.59   12.03
 -20  -8  -3   14.93   12.22
 -21  -8  -3    2.67    6.61
 -21   8  -3   18.32   11.84
 -21  -8  -3    2.32    6.57
 -22  -8  -3    8.77   10.14
 -22  -8  -3   15.59   10.93
 -22   8  -3    6.39    7.10
 -23  -8  -3   13.12   10.87
 -23  -8  -3   13.13   12.14
 -23   8  -3    9.35    7.36
 -24  -8  -3    6.67    8.97
 -24  -8  -3    6.50    8.87
 -24   8  -3   10.74    7.49
 -25  -8  -3    3.11    6.42
 -25   8  -3    7.85    9.24
 -25  -8  -3   19.66   13.83
 -26  -8  -3   -5.15    7.05
 -26   8  -3    5.52    7.28
 -26  -8  -3   15.43   13.05
 -27   8  -3    9.97    7.22
 -28   8  -3   33.87   17.15
 -29   8  -3    4.23    9.29
 -30   8  -3    2.14    7.57
 -27   9   3   29.45   17.61
 -26  -9   3   11.53   10.69
 -26   9   3   -3.50   10.36
 -25  -9   3   24.93   13.71
 -24  -9   3   14.13    8.47
 -23  -9   3   25.32   14.33
 -22  -9   3   15.63   12.50
 -21  -9   3   24.21   13.74
 -20  -9   3    9.02   11.22
 -19  -9   3   29.81   12.89
 -18  -9   3   12.86    7.47
 -17  -9   3   21.85   12.11
 -16  -9   3   15.51    7.93
 -16  -9   3   19.94   10.87
 -15  -9   3   34.59   11.62
 -15  -9   3   22.92   13.40
  15  -9  -3   31.54    9.19
 -14  -9   3   35.07   10.68
 -14  -9   3   55.22   15.36
  14  -9  -3   50.51   10.85
 -14   9   3   41.33   10.79
 -13  -9   3   17.79    8.45
  13  -9  -3   42.92    9.92
 -13   9   3   39.51   11.00
  13   9  -3   34.87   11.62
 -12  -9   3   13.62    7.38
  12  -9  -3   21.65    7.34
 -12   9   3    7.18    3.81
  12   9  -3   17.88   11.40
 -11  -9   3   34.09   10.16
  11   9  -3   52.18   15.59
 -11   9   3   36.71    9.90
  11  -9  -3   45.22    9.65
 -10   9   3   28.54    8.42
 -10  -9   3   19.67    7.81
  10   9  -3   15.34    8.47
  10  -9  -3   27.84    7.45
   9   9  -3   27.72   12.18
  -9  -9   3   27.13    9.07
   9  -9  -3   27.34    7.62
  -9   9   3   33.14    9.47
   8   9  -3   24.14   10.67
  -8   9   3   38.12   10.36
  -8  -9   3   27.14    7.70
   8  -9  -3   42.90    9.51
   7  -9  -3   41.12    9.35
   7   9  -3   52.90   14.59
  -7  -9   3   47.42    9.45
  -7   9   3   43.80   10.07
   6  -9  -3   37.97    8.82
   6   9  -3   44.65   12.63
  -6  -9   3   32.91    7.85
  -6   9   3   42.88   10.98
   5   9  -3   44.04   12.61
  -5   9   3   45.83   11.00
  -5  -9   3   40.30    8.35
   5  -9  -3   49.86   10.11
  -4  -9   3   23.03    6.32
  -4   9   3   47.01   10.78
   4   9  -3   55.53   13.83
   4  -9  -3   37.75    8.66
   3   9  -3   49.10   12.54
  -3  -9   3   44.04    7.56
   3  -9  -3   46.89   10.19
  -3   9   3   37.53    9.32
  -2   9   3   80.02   14.13
   2   9  -3   78.85   15.25
  -2  -9   3   69.38    9.20
   2  -9  -3   64.73   11.29
   1  -9  -3   40.46    9.32
  -1   9   3   48.02   11.55
   1   9  -3   39.14    9.01
  -1  -9   3   42.64    7.21
   0  -9   3  103.80   10.76
   0   9   3   71.59   14.42
   0   9  -3   75.53   11.32
   0  -9  -3  101.04   14.19
   1  -9   3   39.92    6.59
  -1   9  -3   43.31    8.71
   1   9   3   30.99   10.06
  -1  -9  -3   33.36    8.93
  -2  -9  -3    5.51    3.35
   2   9   3   -0.83    3.63
  -2   9  -3    3.37    2.32
   2  -9   3    5.11    2.61
  -3   9  -3   38.90    7.67
   3  -9   3   41.70    6.83
  -3  -9  -3   39.60    9.31
   3   9   3   44.67   12.19
  -4  -9  -3   13.57    6.54
  -4   9  -3   14.08    4.25
   4  -9   3   15.92    4.49
   4   9   3   17.38    8.42
   4   9   3   12.40    7.54
   5  -9   3   42.80    6.91
   5   9   3   33.99   11.79
   5   9   3   49.38   13.90
  -5   9  -3   37.34    7.44
  -5  -9  -3   37.37   10.51
  -6   9  -3   27.09    6.53
   6   9   3   36.05   11.85
   6  -9   3   34.19    6.17
  -6  -9  -3   32.38   10.33
  -7  -9  -3   44.12   11.81
   7   9   3   41.11   12.87
  -7   9  -3   30.45    7.01
   7  -9   3   41.96    7.28
   8   9   3   16.31    8.57
  -8  -9  -3   21.44    9.09
  -8   9  -3   14.66    4.67
  -9  -9  -3   23.17    8.50
   9   9   3   30.77   12.34
  -9   9  -3   21.27    6.34
 -10  -9  -3   32.67   11.36
  10   9   3   28.40   11.66
 -10   9  -3   31.94    7.33
  11   9   3   18.54    9.84
 -11  -9  -3   20.68    9.33
 -11   9  -3   19.85    6.02
 -12   9  -3   33.59    8.01
 -12  -9  -3   27.28   11.67
 -13  -9  -3   45.15   15.01
 -13   9  -3   30.98    8.17
 -14   9  -3   49.75   10.29
 -14  -9  -3   49.23   15.99
 -15  -9  -3   21.65   12.31
 -15   9  -3   32.71    8.88
 -16   9  -3    9.71    5.33
 -16  -9  -3    6.65    7.34
 -17   9  -3   30.68    8.88
 -17  -9  -3   13.06   10.06
 -18  -9  -3    6.71    6.09
 -18   9  -3   14.16    6.53
 -19  -9  -3    3.90    5.84
 -20  -9  -3   14.71   11.48
 -21  -9  -3  -11.69   10.12
 -22   9  -3   43.05   15.45
 -22  -9  -3    7.15    7.34
 -23   9  -3    8.65    9.16
 -23  -9  -3    3.69   20.59
 -24  -9  -3    3.67    8.35
 -24  -9  -3    6.73    9.35
 -25  -9  -3   -0.06   11.24
 -25   9  -3  -12.17   11.07
 -25  -9  -3   -0.48    7.61
 -26   9  -3    1.49   10.24
 -27   9  -3   37.56   17.89
 -28   9  -3   11.32   11.13
 -29   9  -3   22.70   17.74
 -24 -10   3   18.78   12.60
 -23 -10   3   -2.91    7.37
 -22 -10   3   11.01   11.62
 -22 -10   3   -6.23   13.68
 -21 -10   3   14.62    9.75
 -21 -10   3    8.65   10.92
 -20 -10   3   -9.86    6.51
 -20 -10   3    3.87    9.28
 -19 -10   3   -5.96   10.70
 -19 -10   3    7.11    5.09
 -18 -10   3   12.76    7.20
 -18 -10   3    6.34    8.46
 -17 -10   3   17.35    8.39
 -17 -10   3   26.22   12.07
  16 -10  -3   33.27    9.50
 -16 -10   3   12.55    9.45
 -15 -10   3   10.40    5.32
  15 -10  -3    5.62    4.13
  14 -10  -3   21.60    7.32
 -14 -10   3   10.56    7.88
  13 -10  -3   54.59   11.28
 -13  10   3   56.61   12.73
 -13 -10   3   48.41   13.63
 -12  10   3   16.98    6.98
  12 -10  -3   21.71    7.15
 -12 -10   3   17.58    7.97
 -11  10   3   21.52    8.67
  11 -10  -3   15.01    5.71
 -11 -10   3    2.89    4.87
 -10 -10   3   23.02    8.80
  10 -10  -3   23.67    7.21
  10  10  -3   34.37   13.59
 -10  10   3   15.06    5.16
  -9  10   3   21.71    7.94
   9  10  -3   35.73   13.51
  -9 -10   3   22.43    7.93
   9 -10  -3   20.99    7.31
  -8  10   3   30.96   10.16
   8  10  -3    6.41    5.68
   8 -10  -3   20.37    6.93
  -8 -10   3   37.86    9.96
  -7 -10   3   14.73    5.91
   7 -10  -3   28.13    8.13
  -7  10   3   32.28    9.47
   7  10  -3   12.95    7.82
  -6 -10   3   25.00    7.57
   6  10  -3   29.82   11.76
   6 -10  -3   27.41    7.86
  -6  10   3   13.43    6.31
   5 -10  -3   32.92    8.80
  -5 -10   3   39.43    8.31
  -5  10   3   39.08   10.24
   5  10  -3   26.60   11.24
   4  10  -3   21.50   11.75
  -4 -10   3   18.84    5.80
   4 -10  -3   22.94    7.07
  -4  10   3    3.75    4.44
  -3 -10   3   35.97    7.56
   3  10  -3   30.36   11.24
   3 -10  -3   32.84    8.40
  -3  10   3   33.29    9.47
  -2  10   3   16.16    9.51
   2  10  -3   22.32    9.64
   2 -10  -3   16.18    6.84
  -2 -10   3   20.23    5.22
  -1 -10   3   31.04    6.55
   1  10  -3   26.12    9.50
  -1  10   3   24.71    9.54
   1  10  -3   36.08    9.60
   1 -10  -3   36.87    9.01
   0 -10  -3    5.87    4.43
   0  10   3    7.31    5.98
   0  10  -3    4.03    4.28
   0 -10   3    4.86    3.31
  -1  10  -3   23.25    7.18
  -1 -10  -3   31.39    8.59
   1 -10   3   39.13    7.15
   1  10   3   30.50   10.55
   2 -10   3   15.14    4.99
  -2 -10  -3   15.51    7.04
   2  10   3   20.29    9.79
  -2  10  -3   10.72    4.72
   3  10   3    9.12    6.55
  -3  10  -3    3.15    3.19
   3 -10   3    2.49    1.86
  -3 -10  -3    1.38    3.87
   4  10   3   15.93    9.17
   4 -10   3   11.41    3.99
  -4 -10  -3   12.92    6.48
  -4  10  -3   10.48    4.62
   4  10   3    5.09    4.63
   5 -10   3   17.90    4.86
   5  10   3   15.40    8.02
  -5 -10  -3    7.33    5.73
   5  10   3   12.46    8.31
  -5  10  -3   10.72    4.99
   6 -10   3   12.02    4.24
   6  10   3   21.16    9.32
  -6  10  -3   17.07    6.08
  -6 -10  -3   24.24    8.88
  -7 -10  -3    2.74    4.99
  -7  10  -3   14.30    5.44
   7 -10   3   17.55    5.07
   7  10   3    3.11    4.33
   8  10   3   -6.86   10.19
  -8  10  -3    0.96    3.22
  -9  10  -3   41.08    8.84
  -9 -10  -3   33.55   11.12
 -10  10  -3    6.69    4.53
 -10 -10  -3    0.38    4.93
 -11 -10  -3   31.42   11.59
 -11  10  -3   51.65    9.97
 -12 -10  -3   -1.95    6.95
 -12  10  -3    0.44    3.54
 -13  10  -3   57.88   11.26
 -13 -10  -3   39.46   13.67
 -14 -10  -3   -0.67    6.35
 -14  10  -3   11.56    5.99
 -15  10  -3   12.67    5.33
 -15 -10  -3   21.15   12.12
 -16 -10  -3    4.14   10.47
 -16  10  -3    4.72    4.17
 -17 -10  -3    4.77    6.63
 -17  10  -3   26.21    8.75
 -18 -10  -3    8.36    8.78
 -19 -10  -3   11.33   12.86
 -20 -10  -3    4.64    8.71
 -21 -10  -3    4.51    6.21
 -22 -10  -3    3.72    7.67
 -23 -10  -3   14.25   13.39
 -23  10  -3    3.22    8.63
 -24  10  -3    0.09    9.92
 -24 -10  -3  -31.08   14.99
 -25  10  -3    8.30    8.69
 -26  10  -3  159.55   38.84
 -27  10  -3  -14.61   12.41
 -28  10  -3    5.53    9.36
 -26 -11   3  -13.50   10.69
 -25 -11   3   -2.73    6.69
 -24 -11   3   17.44   12.17
 -23 -11   3   70.04   20.35
 -23 -11   3  -20.82   11.68
 -22 -11   3  -11.02    7.68
 -22 -11   3   -7.99    8.39
 -21 -11   3   -6.17    7.56
 -20 -11   3    0.87    4.66
 -19 -11   3    6.60    9.25
 -18 -11   3    6.97    8.74
 -17 -11   3   -1.16    7.02
 -16 -11   3  -11.56    7.79
  16 -11  -3    6.04    5.25
  15 -11  -3   26.65    8.27
 -15 -11   3   11.53    9.36
 -14 -11   3    5.47    6.31
  14 -11  -3    4.05    4.64
  13 -11  -3   12.86    5.71
 -13 -11   3    0.41    4.82
 -12 -11   3   18.19    9.67
  12 -11  -3   17.21    6.29
 -11 -11   3   12.52    6.75
  11 -11  -3   14.73    6.78
 -10  11   3    6.49    5.37
 -10 -11   3   -1.92    5.10
  10 -11  -3    2.15    3.86
  -9 -11   3   19.62    8.31
   9 -11  -3   16.17    6.93
  -9  11   3    7.70    5.79
  -8  11   3    7.66    6.61
   8 -11  -3    4.27    2.91
  -8 -11   3   13.82    6.38
   7  11  -3   14.49    8.36
   7 -11  -3    9.38    6.51
  -7  11   3    8.10    6.82
  -7 -11   3   12.29    6.71
  -6 -11   3   11.52    5.36
   6  11  -3   14.02    6.90
  -6  11   3   -0.08    5.08
   6 -11  -3    9.61    4.60
   5  11  -3    7.77    8.19
  -5 -11   3   12.34    6.30
   5 -11  -3   20.06    7.69
  -5  11   3   12.83    7.56
  -4 -11   3   10.69    5.02
   4  11  -3    5.15    5.90
  -4  11   3    6.62    6.63
   4 -11  -3    7.09    4.87
  -3 -11   3   13.36    5.07
   3 -11  -3   14.72    6.99
   3  11  -3    2.99    5.02
  -3  11   3    6.55    4.69
  -2  11   3   15.18    6.70
  -2 -11   3    2.09    3.36
   2 -11  -3    4.20    2.84
   2  11  -3    4.37    6.36
   1  11  -3   15.19    7.02
  -1  11   3    4.33    5.63
   1  11  -3    4.20    5.98
   1 -11  -3    7.69    5.28
  -1 -11   3    1.62    2.70
   0  11   3    4.61    4.68
   0  11  -3    1.72    5.25
   0 -11  -3    1.44    3.94
   0 -11   3    2.73    3.13
  -1 -11  -3    8.30    5.31
   1  11   3   -0.16    5.57
  -1  11  -3    1.79    3.31
   1 -11   3    2.47    3.56
  -2 -11  -3    4.23    5.04
   2  11   3   -7.62    6.35
   2 -11   3    0.74    2.51
  -2  11  -3   10.98    5.53
  -3 -11  -3    7.11    5.65
   3 -11   3    6.62    3.43
  -3  11  -3   -4.24    4.10
  -4  11  -3    4.23    2.88
   4  11   3  -13.38    7.44
  -4 -11  -3    5.56    5.67
   4 -11   3    0.06    3.10
   5 -11   3   11.72    4.57
   5  11   3   -2.13    5.94
  -5 -11  -3   11.02    6.71
  -5  11  -3    1.15    3.45
  -6  11  -3   -0.83    3.03
   6 -11   3   -1.64    2.97
   7 -11   3   14.49    5.65
  -7 -11  -3    1.20    3.77
  -7  11  -3    6.47    5.19
  -8 -11  -3   -9.17    6.46
  -8  11  -3    1.31    3.03
   8 -11   3    9.13    3.56
  -9  11  -3    4.36    5.05
  -9 -11  -3    4.66    4.78
 -10 -11  -3   -0.83    5.23
 -10  11  -3   13.39    5.89
 -11  11  -3   -4.33    5.56
 -11 -11  -3   15.95    8.78
 -12  11  -3    9.18    4.10
 -12 -11  -3    7.93    6.75
 -13  11  -3   18.49    7.31
 -13 -11  -3    2.68    8.92
 -14 -11  -3    8.47    8.58
 -14  11  -3    5.50    3.12
 -15 -11  -3    6.12    6.17
 -15  11  -3   14.88    6.90
 -16 -11  -3    4.14    9.07
 -16  11  -3    3.96    3.06
 -17 -11  -3   10.06   11.24
 -18 -11  -3    3.86    9.81
 -19 -11  -3   -7.35    8.36
 -20 -11  -3    3.16    7.58
 -21 -11  -3    7.87    9.48
 -22 -11  -3   -6.30   12.39
 -24  11  -3  -11.24    9.77
 -25  11  -3  -33.93   17.27
 -26  11  -3   14.30    7.31
 -25 -12   3   10.79   12.96
 -24 -12   3    8.05   12.28
 -23 -12   3   -1.08    5.17
 -22 -12   3   -1.10    5.41
 -21 -12   3    8.70    9.21
 -20 -12   3  -10.21    8.46
 -19 -12   3  -20.77   10.75
 -18 -12   3  -20.18   10.46
 -17 -12   3    3.85    7.43
  16 -12  -3    5.48    5.79
 -16 -12   3    3.20    4.53
  15 -12  -3    1.19    3.66
 -15 -12   3   -6.56    6.36
  14 -12  -3    7.96    6.34
 -14 -12   3   -0.21    5.08
  13 -12  -3    6.49    5.25
 -13 -12   3   -4.72    5.29
  12 -12  -3   18.70    7.45
 -12 -12   3   18.81    9.15
  11 -12  -3   13.56    7.07
 -11 -12   3   -5.18    6.39
  10 -12  -3    5.69    4.83
 -10 -12   3    9.99    6.82
  -9 -12   3    5.00    4.77
   9 -12  -3   -7.06    5.41
   8 -12  -3    9.33    5.70
  -8 -12   3    6.88    6.34
  -7 -12   3   -0.15    2.98
   7 -12  -3   -0.60    3.49
  -7  12   3    2.05    5.68
  -6 -12   3   11.94    6.56
   6 -12  -3   10.69    5.80
  -6  12   3   12.94    7.24
  -5  12   3   -4.20    5.33
  -5 -12   3   -1.18    2.85
   5 -12  -3   -0.97    3.66
  -4 -12   3    1.50    3.17
  -4  12   3   -0.15    5.88
   4 -12  -3    6.34    3.58
   3 -12  -3   -2.16    3.88
  -3  12   3   -9.82    9.39
  -3 -12   3   -0.14    3.21
  -2  12   3   16.76   10.34
   2  12  -3  -13.03   10.85
  -2 -12   3   15.98    6.25
   2 -12  -3    7.09    5.06
   1  12  -3   -1.76    8.66
   1 -12  -3   -0.47    3.17
  -1 -12   3    0.14    2.89
  -1  12   3   -1.35    4.15
   0  12  -3   11.43   10.93
   0  12   3    9.20    5.54
   0 -12   3    0.17    3.57
   0 -12  -3   10.59    6.81
   0  12  -3   -8.29    7.82
  -1 -12  -3   -4.42    5.59
   1  12   3   -4.72    8.32
   1 -12   3   -2.71    3.85
  -1  12  -3    4.36    4.09
   2 -12   3   12.32    4.96
  -2 -12  -3    4.00    5.26
  -2  12  -3    8.76    6.68
   2  12   3    8.65    6.13
  -3 -12  -3    1.18    3.84
  -3  12  -3    2.77    4.46
   3  12   3    6.37    6.79
   3 -12   3   -1.34    2.85
  -4  12  -3    0.14    4.05
  -4 -12  -3    6.92    6.45
   4 -12   3    6.45    3.71
   5 -12   3    0.03    3.15
  -5  12  -3   -4.92    5.16
  -5 -12  -3    4.62    5.47
  -6 -12  -3   12.05    6.75
   6 -12   3    2.13    2.81
  -6  12  -3    5.94    4.97
  -7 -12  -3    7.35    5.55
   7 -12   3   -4.99    4.05
  -7  12  -3    0.29    2.98
   8 -12   3    8.74    4.74
  -8 -12  -3   12.23    8.05
  -8  12  -3    6.10    4.39
  -9 -12  -3    9.33    6.28
  -9  12  -3   -4.01    4.15
 -10 -12  -3   10.08    7.41
 -10  12  -3    6.08    4.82
 -11  12  -3   -2.36    4.32
 -11 -12  -3    6.41    6.43
 -12 -12  -3   10.89    8.63
 -12  12  -3    0.81    3.86
 -13  12  -3    3.96    3.98
 -13 -12  -3    4.39    6.35
 -14 -12  -3   11.52   11.55
 -14  12  -3   13.53    6.10
 -15 -12  -3   -1.11    5.65
 -15  12  -3   -1.34    2.96
 -16 -12  -3    0.17    5.39
 -17 -12  -3  -11.34    8.79
 -18 -12  -3    0.19    6.78
 -19 -12  -3   -4.48    6.93
 -20 -12  -3    3.31   10.20
 -21 -12  -3  -15.57   13.15
 -25  12  -3    0.20   14.44
 -24 -13   3  -13.18   10.99
 -23 -13   3  -13.94   10.19
 -22 -13   3  -12.06    9.39
 -21 -13   3    0.62    8.76
 -20 -13   3  -13.90    9.37
 -19 -13   3    0.26    5.57
 -18 -13   3    6.44    4.98
 -17 -13   3    0.44    4.40
  16 -13  -3    3.80    3.60
 -16 -13   3   50.91   15.42
  15 -13  -3   80.98   14.33
 -15 -13   3   -0.48    4.24
  14 -13  -3   -6.17    5.29
 -14 -13   3    4.34    6.14
  13 -13  -3    6.11    3.71
 -13 -13   3   12.19    8.16
 -12 -13   3   10.47    6.04
  12 -13  -3   13.33    6.66
  11 -13  -3   14.21    6.75
 -11 -13   3    3.85    6.44
 -10 -13   3    1.64    4.00
  10 -13  -3   -1.05    4.91
   9 -13  -3    9.91    5.80
  -9 -13   3   12.18    6.82
  -8 -13   3    6.45    4.79
   8 -13  -3    1.01    4.61
   7 -13  -3    7.07    3.37
  -7 -13   3   13.18    6.43
  -6 -13   3    0.32    2.69
   6 -13  -3    2.41    3.60
  -5 -13   3   17.58    6.86
   5 -13  -3   22.65    9.13
  -4 -13   3    1.65    3.90
   4 -13  -3   -2.92    4.30
   3 -13  -3   14.45    6.86
  -3 -13   3   10.74    5.90
  -2 -13   3    3.38    3.29
   2 -13  -3    4.34    5.19
  -1 -13   3    6.99    4.14
   1 -13  -3   13.74    6.26
   0 -13   3   -3.60    4.66
   0 -13  -3   -0.89    4.14
  -1  13  -3   -4.24    7.76
   1 -13   3    5.05    4.13
  -1 -13  -3   10.24    6.00
   2 -13   3    1.62    2.70
  -2  13  -3   -6.53    5.89
  -3  13  -3    8.78    6.53
  -3 -13  -3   17.36    9.20
   3 -13   3   16.18    6.22
   4 -13   3   -0.70    3.41
  -4 -13  -3   -3.10    4.17
  -4  13  -3    7.51    7.63
   5 -13   3   16.65    6.15
  -5 -13  -3    1.75    3.47
  -5  13  -3   24.04    9.22
  -6 -13  -3   -4.43    4.85
   6 -13   3    4.55    3.78
  -6  13  -3  -11.70    6.57
   7 -13   3    7.63    4.49
  -7  13  -3    3.51    4.60
  -7 -13  -3   -0.31    3.61
   8 -13   3   -3.43    3.39
  -8 -13  -3   -6.52    5.69
  -8  13  -3   -9.23    6.03
  -9 -13  -3    5.86    4.71
  -9  13  -3    4.15    4.92
 -10 -13  -3    5.10    7.17
 -10  13  -3    5.48    5.51
 -11 -13  -3    7.45    5.60
 -11  13  -3    1.98    4.26
 -12  13  -3   -8.43    5.45
 -12 -13  -3   -8.13    6.76
 -13 -13  -3   11.32   10.02
 -14 -13  -3    0.20    6.35
 -15 -13  -3    1.41    6.83
 -16 -13  -3    0.13    8.58
 -17 -13  -3    5.81    7.53
 -18 -13  -3   -0.02    5.84
 -19 -13  -3  619.08   57.60
 -20 -13  -3    0.37    6.36
 -22 -14   3   11.07   11.59
 -21 -14   3  -10.32    8.68
 -20 -14   3   -0.30    5.75
 -19 -14   3    1.23    4.81
 -18 -14   3  -15.05    9.04
 -17 -14   3   -8.27    6.96
  16 -14  -3    6.23    6.60
 -16 -14   3    6.18    7.48
  15 -14  -3   -2.65    4.56
 -15 -14   3    4.63    6.84
  14 -14  -3   13.22    7.38
 -14 -14   3   10.07    8.27
  13 -14  -3    0.11    4.40
 -13 -14   3    6.59    6.08
  12 -14  -3  -12.47    7.31
 -12 -14   3    7.80    6.09
 -11 -14   3    2.91    4.68
  11 -14  -3    3.49    3.50
 -10 -14   3    7.44    5.08
  10 -14  -3    6.39    5.18
   9 -14  -3    3.68    5.55
  -9 -14   3  -14.45    6.82
   8 -14  -3   17.55    7.64
  -8 -14   3   18.18    7.71
   7 -14  -3    8.48    6.40
  -7 -14   3    6.48    5.00
   6 -14  -3   10.80    7.35
  -6 -14   3   11.11    5.40
  -5 -14   3   -0.55    4.52
   5 -14  -3   -4.21    4.22
  -4 -14   3    4.96    4.25
   4 -14  -3    7.91    4.08
   3 -14  -3    4.35    6.47
  -3 -14   3   -2.48    3.51
  -2 -14   3    0.76    3.25
   2 -14  -3    0.06    3.37
  -1 -14   3   -4.65    5.20
   1 -14  -3   -3.32    4.53
   0 -14  -3    1.87    4.78
   0 -14   3   -0.03    3.22
  -1  14  -3  -20.93    9.71
  -1 -14  -3   -2.76    5.42
   1 -14   3   -4.22    4.71
  -2  14  -3    4.49    7.90
   2 -14   3    7.08    4.24
  -2 -14  -3    4.21    3.80
  -3 -14  -3    5.43    4.95
  -3  14  -3    1.74    5.79
   3 -14   3    6.63    4.80
  -4  14  -3    2.11    6.92
   4 -14   3    4.71    3.13
  -5  14  -3    0.32    4.75
  -5 -14  -3    1.27    5.26
   5 -14   3  -11.92    5.40
  -6  14  -3    0.75    5.24
   6 -14   3   12.98    6.81
  -6 -14  -3    6.96    6.89
  -7 -14  -3   -0.20    4.61
  -7  14  -3   10.07    8.20
   7 -14   3   -0.01    3.34
  -8  14  -3    4.92    5.50
   8 -14   3    9.62    5.63
  -8 -14  -3   -3.41    6.34
  -9 -14  -3    8.18    7.59
  -9  14  -3  -11.03    6.86
 -10 -14  -3   -9.97    7.11
 -11 -14  -3   -8.17    7.27
 -12 -14  -3  -12.27    7.90
 -13 -14  -3   -8.02    7.23
 -14 -14  -3  -10.86    8.04
 -15 -14  -3    1.72    5.27
 -16 -14  -3    1.32    6.06
 -17 -14  -3   -3.97    6.50
 -18 -14  -3   14.83   12.54
 -20 -15   3  -11.38    8.67
 -19 -15   3    1.89    4.41
 -18 -15   3    5.23   10.36
 -17 -15   3   -1.21    4.38
 -16 -15   3    0.02    4.87
  16 -15  -3  -14.03    6.73
 -15 -15   3    1.25    6.24
  15 -15  -3   23.21   10.35
  14 -15  -3   -0.67    3.72
 -14 -15   3   -0.03    4.75
  13 -15  -3   15.29    8.13
 -13 -15   3   -3.91    3.49
  12 -15  -3    2.77    6.52
 -12 -15   3   -9.89    6.17
 -11 -15   3    5.72    6.35
  11 -15  -3    8.57    7.13
  10 -15  -3    1.36    5.78
 -10 -15   3   16.49    8.06
   9 -15  -3    3.89    6.48
  -9 -15   3   13.32    8.86
  -8 -15   3    9.27    5.94
   8 -15  -3    0.95    3.63
  -7 -15   3    8.59    5.89
   7 -15  -3   -1.11    6.28
   6 -15  -3   -0.08    5.13
  -6 -15   3   -1.21    3.72
   5 -15  -3   -1.42    3.94
  -5 -15   3    7.07    5.74
   4 -15  -3    7.19    7.36
  -4 -15   3   -4.64    4.30
   3 -15  -3    1.18    3.92
  -3 -15   3   12.19    6.34
   2 -15  -3    3.86    5.19
  -2 -15   3   -3.90    3.42
  -1 -15   3    7.33    3.47
   1 -15  -3    3.23    3.21
   0 -15  -3   -1.08    6.12
   0 -15   3    1.73    3.32
  -1 -15  -3   -3.62    5.90
   1 -15   3    3.00    4.79
   2 -15   3    2.34    2.77
  -2 -15  -3   -4.85    4.84
  -3 -15  -3   -0.45    4.12
   3 -15   3    2.66    2.85
  -4 -15  -3   -5.96    6.16
   4 -15   3    3.12    4.64
   5 -15   3   -1.47    2.88
  -5 -15  -3   11.31    5.46
   6 -15   3    3.92    3.79
  -6 -15  -3   -6.72    5.62
   7 -15   3    4.42    4.85
  -7 -15  -3   -5.90    6.11
  -8 -15  -3    5.67    7.47
   8 -15   3   -3.15    3.21
  -9 -15  -3    2.59    4.57
 -10 -15  -3    3.38    6.82
 -11 -15  -3   -2.93    4.45
 -12 -15  -3  -10.92    7.60
 -13 -15  -3    3.98    5.36
 -14 -15  -3  -15.53    9.17
 -15 -15  -3   -8.53    7.41
 -16 -15  -3  -15.66    9.74
  16 -16  -3    1.15    4.58
 -15 -16   3   -5.25    5.55
  15 -16  -3   -4.71    5.16
  14 -16  -3    3.62    6.67
 -14 -16   3  -14.72    7.86
 -13 -16   3    7.42    4.33
  13 -16  -3   -2.87    5.78
  12 -16  -3   -4.54    5.37
 -12 -16   3    5.38    5.43
 -11 -16   3  -13.41    7.26
  11 -16  -3    3.09    3.48
 -10 -16   3    0.16    5.28
  10 -16  -3    4.61    5.72
  -9 -16   3   -7.18    5.45
   9 -16  -3   -2.76    5.52
  -8 -16   3   -1.57    4.14
   8 -16  -3   22.26    9.97
   7 -16  -3   -0.46    5.06
  -7 -16   3   -2.75    4.07
   6 -16  -3   -2.30    5.36
  -6 -16   3    8.42    6.57
  -5 -16   3   -1.79    4.17
   5 -16  -3   -3.27    3.44
   4 -16  -3    1.73    6.10
  -4 -16   3  -18.27    7.56
  -3 -16   3   -0.14    4.64
   3 -16  -3    1.81    3.66
  -2 -16   3    1.75    4.06
   2 -16  -3   -7.40    6.94
   1 -16  -3   -4.26    5.78
  -1 -16   3   -0.25    3.82
   0 -16  -3   11.56    7.46
   0 -16   3    5.08    3.97
   1 -16   3    0.07    5.62
  -1 -16  -3    4.08    3.63
  -2 -16  -3   -1.39    5.32
   2 -16   3    5.37    5.05
  -3 -16  -3    0.48    3.94
  -4 -16  -3    3.04    5.43
  -5 -16  -3    4.06    7.25
  -6 -16  -3    1.91    5.87
  -7 -16  -3   15.21    8.14
  -8 -16  -3    8.45    8.45
  -9 -16  -3   -2.09    4.29
 -10 -16  -3  -17.11    9.08
 -11 -16  -3    2.42    5.08
 -12 -16  -3   -2.79    5.20
 -13 -16  -3   -9.13    7.46
  14 -17  -3   15.95    8.66
  13 -17  -3    3.79    5.05
  12 -17  -3  -13.89    7.85
  11 -17  -3    4.22    6.14
  10 -17  -3   13.11    9.50
   9 -17  -3   18.03    7.65
   8 -17  -3    4.97    4.43
   7 -17  -3   10.75    7.22
   6 -17  -3  331.06   32.60
   5 -17  -3    4.64    6.13
   4 -17  -3   -2.61    4.49
   3 -17  -3   10.51    7.28
   2 -17  -3    0.06    4.89
   1 -17  -3    2.47    6.57
   0 -17  -3  -13.39    7.51
  -1 -17  -3   -8.80    6.69
  -2 -17  -3    4.11    5.10
  -3 -17  -3   -7.82    6.23
  -4 -17  -3   -2.79    5.00
  -5 -17  -3   -6.33    6.24
  -6 -17  -3    2.55    5.08
  -7 -17  -3   17.77   16.65
  -8 -17  -3    6.11    7.03
  -9 -17  -3   -6.56    6.30
 -10 -17  -3   -1.34    4.87
   8 -18  -3  104.11   22.12
   7 -18  -3    9.08    5.41
   6 -18  -3   -6.73    6.19
   5 -18  -3  -16.69    8.58
   4 -18  -3   -8.55    6.84
   3 -18  -3  -29.14   11.02
   2 -18  -3   -0.02    5.93
   1 -18  -3   45.81   14.60
   0 -18  -3   -6.28    6.10
  -1 -18  -3   -1.66    4.33
  -2 -18  -3    6.56    6.63
  -3 -18  -3  -17.66    9.05
  -4 -18  -3  -10.25    7.21
  -5 -18  -3  -14.76    8.44
  -6 -18  -3   46.75   22.97
 -31   0   4  249.46   46.51
 -30   0   4   56.32   20.77
 -29   0   4  424.09   57.24
 -28   0   4   47.28   21.49
 -27   0   4  508.73   59.63
 -26   0   4   79.03   25.07
 -25   0   4  540.76   58.92
 -24   0   4   65.03   21.96
 -23   0   4  540.37   56.29
 -22   0   4   22.21   14.54
 -21   0   4  543.16   52.98
 -20   0   4   70.81   20.03
 -20   0   4   69.62   11.89
 -19   0   4  598.35   52.32
 -19   0   4  600.23   34.25
 -18   0   4   52.03   17.39
 -18   0   4   24.15    6.07
 -17   0   4  465.19   43.66
 -17   0   4  504.63   29.67
 -16   0   4   31.16   11.70
 -15   0   4  868.86   55.61
 -14   0   4   88.02   18.16
 -13   0   4 1191.34   59.79
 -12   0   4  100.91   17.52
 -11   0   4 2517.14   80.14
 -10   0   4  227.28   23.41
  -9   0   4 2873.68   77.42
  -8   0   4  270.89   22.84
  -7   0   4 2348.99   62.16
   6   0  -4  211.84   12.25
  -6   0   4  228.38   18.53
   5   0  -4 2121.69   36.81
   4   0  -4  159.34    9.89
   3   0  -4 1912.35   31.77
   2   0  -4  261.97   11.80
   1   0  -4 2172.97   32.85
   0   0   4   57.19    6.31
   0   0  -4   59.12    5.94
   1   0   4 2219.02   40.60
  -1   0  -4 2167.78   37.00
   2   0   4  177.63    8.48
   2   0   4  175.41   13.39
  -2   0  -4  182.05   12.64
   3   0   4 1820.87   31.31
  -3   0  -4 1875.99   42.50
  -4   0  -4  219.51   11.80
   4   0   4  216.82   12.67
   5   0   4 2040.32   43.31
  -5   0  -4 2131.31   41.34
  -6   0  -4  164.59   13.22
   6   0   4  166.61   14.05
   7   0   4  635.74   28.74
  -7   0  -4  643.65   27.91
  -8   0  -4   79.20   10.76
   8   0   4   83.33   11.14
  -9   0  -4 1436.69   48.27
   9   0   4 1400.42   48.72
 -10   0  -4  190.01   18.80
  10   0   4  200.96   19.61
  11   0   4 1280.89   51.55
 -11   0  -4 1292.86   51.29
 -12   0  -4  107.06   15.96
  12   0   4  103.24   15.57
  13   0   4 1327.25   57.32
 -13   0  -4 1346.95   57.62
 -14   0  -4  137.39   19.70
  14   0   4  106.77   17.46
 -15   0  -4  886.36   50.58
 -16   0  -4   39.38   12.25
 -17   0  -4  577.05   43.56
 -18   0  -4   62.84   16.12
 -19   0  -4  480.44   42.26
 -20   0  -4   39.48   13.05
 -21   0  -4   56.07   16.31
 -22   0  -4   67.11   18.28
 -23   0  -4  430.32   45.64
 -24   0  -4   28.09   12.34
 -25   0  -4  371.09   44.63
 -26   0  -4   46.43   17.31
 -27   0  -4  280.43   39.71
 -28   0  -4   25.98   13.79
 -29   0  -4  216.84   36.95
 -30   0  -4    9.19   12.02
 -31   0  -4  144.72   31.34
 -32   0  -4   15.66   11.93
 -31  -1   4   40.32   16.91
 -31   1   4   37.15   20.44
 -30  -1   4  202.89   41.07
 -30   1   4  294.31   49.01
 -29  -1   4   39.96   18.89
 -29   1   4   58.63   22.66
 -28  -1   4  270.96   45.18
 -28   1   4  319.27   50.07
 -27  -1   4   32.40   15.15
 -27   1   4   49.85   23.02
 -26   1   4  543.49   60.30
 -26  -1   4  430.46   53.79
 -25  -1   4   55.24   21.66
 -25   1   4   55.44   19.67
 -24   1   4  414.86   50.79
 -24  -1   4  403.68   49.29
 -23  -1   4   38.28   16.87
 -23   1   4   15.65   12.24
 -22  -1   4  455.48   50.60
 -22   1   4  431.68   49.18
 -21  -1   4   34.91   16.17
 -21   1   4   27.19   14.74
 -20  -1   4  623.20   55.79
 -20   1   4  568.67   52.40
 -20   1   4  591.81   35.53
 -19   1   4   44.12   10.02
 -19  -1   4   48.73   16.30
 -19   1   4   62.69   18.24
 -18   1   4  436.89   43.13
 -18  -1   4  406.43   42.20
 -18   1   4  419.83   28.23
 -17   1   4   18.06    6.43
 -17  -1   4   25.81   11.08
 -17   1   4   28.34   11.81
 -16   1   4  524.39   44.64
 -16  -1   4  499.23   44.34
 -15  -1   4   41.60   12.66
 -15   1   4   50.52   13.73
 -14   1   4  749.29   49.56
 -14  -1   4  767.48   50.90
 -13  -1   4   40.97   11.93
 -13   1   4   74.69   15.93
 -12  -1   4 1073.86   55.25
 -12   1   4 1111.47   54.97
 -11   1   4  184.35   21.85
 -11  -1   4  153.46   20.17
 -10  -1   4 1472.23   59.40
 -10   1   4 1483.44   57.81
  -9  -1   4  174.01   20.33
  -8  -1   4 1443.21   53.05
  -8  -1   4 1358.99   32.74
   8  -1  -4 1378.98   35.72
  -7  -1   4  220.84   12.57
   7  -1  -4  230.53   14.35
  -7  -1   4  217.27   19.85
  -6  -1   4 1578.16   48.77
  -6  -1   4 1547.14   31.07
   6  -1  -4 1512.03   35.35
   5  -1  -4  145.90   10.46
  -5  -1   4  151.72    9.44
   5   1  -4  140.89   13.69
  -5  -1   4  137.41   13.69
  -4  -1   4 1178.06   23.95
   4  -1  -4 1164.41   28.86
  -4  -1   4 1196.56   36.33
   4   1  -4 1167.61   34.89
   4   1  -4 1180.36   22.79
   3   1  -4  127.88    7.08
  -3  -1   4  118.87    7.21
  -3  -1   4  125.99   10.86
   3  -1  -4  130.22    9.60
   2   1  -4  843.33   16.98
  -2  -1   4  817.09   17.51
  -2  -1   4  859.26   24.12
   2  -1  -4  823.90   23.57
   1  -1  -4   66.21    6.74
   1   1  -4   72.61    4.82
  -1  -1   4   67.45    5.03
  -1  -1   4   74.87    6.10
   0  -1   4  984.18   20.61
   0  -1  -4  997.10   26.69
   0   1  -4 1009.53   18.56
   1  -1   4  209.16   11.00
  -1  -1  -4  208.31   13.20
  -1   1  -4  217.71    9.98
  -2  -1  -4  735.23   26.55
  -2   1  -4  760.85   21.77
  -3  -1  -4   75.94    9.49
   3   1   4   78.72    8.03
  -4  -1  -4 1175.28   38.65
  -4   1  -4 1195.76   24.96
   4   1   4 1188.66   33.25
   5   1   4  216.00   15.98
  -5  -1  -4  234.75   18.60
  -5   1  -4  222.24   12.92
  -5  -1  -4  215.51   14.64
  -6  -1  -4  730.22   29.09
   6   1   4  774.02   31.95
  -6   1  -4  777.51   27.18
  -7   1  -4  106.35   11.20
   7   1   4   96.47   12.16
  -7  -1  -4  102.05   11.75
  -8  -1  -4  522.85   28.08
  -8   1  -4  553.75   27.55
   8   1   4  501.80   29.66
   9   1   4   61.94   10.74
  -9   1  -4   59.26    9.80
  -9  -1  -4   68.66   11.53
 -10  -1  -4 1027.17   44.12
 -10   1  -4 1008.45   42.45
  10   1   4  986.58   45.66
 -11  -1  -4   85.31   14.06
 -11   1  -4   70.55   12.59
  11   1   4   68.26   13.28
  12   1   4  946.27   48.68
 -12  -1  -4  916.49   45.86
 -12   1  -4  946.65   45.74
 -13  -1  -4  130.48   18.35
  13   1   4  115.34   17.98
 -13   1  -4  130.37   18.08
 -14  -1  -4  806.30   47.02
 -14   1  -4  740.69   44.00
 -15   1  -4  115.22   18.56
 -15  -1  -4   90.23   17.80
  16   1   4  556.78   42.88
 -16  -1  -4  531.77   41.04
 -16   1  -4  551.17   41.04
  17   1   4  120.33   21.67
 -17  -1  -4   55.06   14.59
 -17   1  -4   72.82   16.86
  18   1   4  467.83   41.70
 -18  -1  -4  481.19   41.45
 -18   1  -4  461.27   40.58
 -19  -1  -4   37.59   13.12
 -19   1  -4   49.87   15.86
  19   1   4   45.42   14.12
 -20  -1  -4  145.13   24.71
 -20   1  -4  124.09   22.63
  20   1   4  123.79   22.59
 -21   1  -4   55.87   16.10
 -21  -1  -4   52.03   15.82
 -22  -1  -4  197.01   29.85
 -22   1  -4  197.99   30.51
 -23   1  -4   25.92   12.44
 -23  -1  -4   39.00   15.12
 -24   1  -4  307.28   39.35
 -24  -1  -4  337.21   41.80
 -25  -1  -4   43.40   17.76
 -25   1  -4   25.93   13.61
 -26   1  -4  269.46   39.09
 -26  -1  -4  250.13   37.21
 -27   1  -4   33.52   15.48
 -27  -1  -4   40.74   15.68
 -28   1  -4  170.78   32.16
 -28  -1  -4  230.16   36.86
 -29  -1  -4   15.19   12.68
 -29   1  -4   30.62   18.02
 -30  -1  -4  188.19   35.05
 -30   1  -4  130.35   28.76
 -31   1  -4   31.99   14.33
 -31  -1  -4    7.82    7.66
 -32   1  -4   83.09   20.96
 -31   2   4  126.28   36.64
 -30  -2   4   18.58   15.54
 -30   2   4   51.89   22.09
 -29  -2   4  129.06   30.92
 -29   2   4  130.63   32.53
 -28  -2   4   60.24   24.01
 -28   2   4   25.44   16.55
 -27   2   4  151.86   32.62
 -27  -2   4  153.17   32.88
 -26  -2   4   20.23   14.96
 -26   2   4    6.49    8.17
 -25   2   4  163.28   32.50
 -25  -2   4  166.64   32.32
 -24  -2   4   39.05   17.99
 -24   2   4   50.49   19.26
 -23   2   4  218.96   36.13
 -23  -2   4  164.32   31.97
 -22   2   4   32.59   14.20
 -22  -2   4   53.39   18.22
 -21  -2   4  245.32   36.69
 -21   2   4  250.75   36.11
 -20   2   4   14.58    9.70
 -20   2   4   21.63    7.26
 -20  -2   4   23.82   13.42
 -19  -2   4  230.02   33.43
 -19   2   4  245.50   33.11
 -19   2   4  226.14   21.87
  19   2  -4  229.51   31.30
 -18   2   4   40.83    9.61
 -18   2   4   27.99   11.70
 -18  -2   4   32.19   11.57
  18   2  -4   32.10   12.07
 -17  -2   4  232.04   31.76
 -17   2   4  266.51   33.36
  17   2  -4  224.11   29.74
 -16  -2   4   27.87   11.70
 -16   2   4   51.12   14.55
 -15  -2   4  391.74   38.59
 -15   2   4  368.97   36.31
 -14  -2   4   76.69   16.05
 -14   2   4   66.85   14.92
 -13  -2   4  432.45   37.38
 -12  -2   4  136.53   20.33
 -11  -2   4  163.52   21.58
 -10  -2   4  103.00   16.49
   9  -2  -4  159.05   13.56
  -9  -2   4  145.25   18.48
  -8  -2   4  155.03   18.13
   8  -2  -4  159.74   13.09
   7  -2  -4  242.17   15.75
  -7  -2   4  243.19   21.61
   7   2  -4  218.86   20.02
   6  -2  -4   93.86    9.59
  -6  -2   4   81.12   11.81
   6   2  -4   84.58   11.57
   5  -2  -4  199.01   13.49
   5   2  -4  198.12   16.97
  -5  -2   4  209.85   17.20
  -4  -2   4   73.49    5.43
   4  -2  -4   74.31    8.21
  -4  -2   4   83.24   10.08
   4   2  -4   73.47    9.80
   3  -2  -4   13.41    3.40
  -3  -2   4   21.27    5.33
   3   2  -4   21.29    5.34
  -3  -2   4   21.96    2.66
  -2  -2   4   47.96    6.10
   2  -2  -4   45.78    6.50
  -2  -2   4   42.16    3.24
   2   2  -4   43.53    8.91
  -1  -2   4  896.40   21.56
   1   2  -4  871.53   23.11
   1  -2  -4  843.05   26.88
   0   2  -4   43.96    4.54
   0  -2  -4   42.31    6.52
  -1  -2  -4 1231.59   34.86
  -2  -2  -4  173.04   13.91
   3   2   4   75.34    9.31
  -3  -2  -4   77.27   10.03
   4   2   4   31.12    6.63
  -4  -2  -4   31.68    7.58
   5   2   4  204.60   16.62
  -5   2  -4  195.97   12.13
  -5  -2  -4  189.96   17.43
  -6  -2  -4   71.93   10.05
  -6  -2  -4   73.25   11.82
  -6   2  -4   70.03    8.22
   6   2   4   71.60   11.09
   7   2   4  340.78   24.29
  -7   2  -4  303.94   18.73
  -7  -2  -4  302.93   21.45
   8   2   4   40.87    9.66
  -8   2  -4   33.83    7.20
  -8  -2  -4   38.39    8.55
  -9   2  -4  141.21   14.74
  -9  -2  -4  141.25   16.26
   9   2   4  137.79   17.18
 -10  -2  -4   34.68    9.08
  10   2   4   33.14   10.00
 -10   2  -4   27.39    6.51
 -11   2  -4  411.34   28.60
  11   2   4  459.16   34.26
 -11  -2  -4  458.81   31.84
 -12  -2  -4   96.87   15.75
  12   2   4   92.07   15.96
 -12   2  -4   78.13   13.61
 -13  -2  -4  362.37   30.52
 -13   2  -4  371.22   29.89
 -14  -2  -4   78.22   15.76
 -14   2  -4   54.04   12.49
 -15  -2  -4  383.12   34.12
 -15   2  -4  330.59   30.58
  15   2   4  373.92   35.58
 -16   2  -4  121.37   19.45
 -16  -2  -4  130.79   20.41
  16   2   4  129.12   22.08
  17   2   4  288.71   33.06
 -17  -2  -4  251.28   29.95
 -17   2  -4  276.35   30.17
 -18  -2  -4   35.04   12.04
  18   2   4   48.37   14.04
 -18   2  -4   56.59   15.31
 -19  -2  -4   17.76   10.00
 -19   2  -4   30.48   11.53
  19   2   4   27.91   11.01
 -20  -2  -4   53.25   15.13
 -20   2  -4   56.27   15.43
  20   2   4   73.81   19.17
 -21   2  -4  275.39   34.11
  21   2   4  281.64   37.93
 -21  -2  -4  277.16   34.68
 -22  -2  -4   11.57    7.40
 -22   2  -4   20.81   11.94
 -23  -2  -4   76.35   20.69
 -23   2  -4   87.63   20.71
 -24  -2  -4   39.90   16.12
 -24   2  -4   15.51    8.18
 -25   2  -4  133.48   26.83
 -25  -2  -4  111.85   25.42
 -26  -2  -4   16.26    9.32
 -26   2  -4   25.41   14.65
 -27  -2  -4  121.17   25.95
 -27   2  -4  138.43   28.67
 -28   2  -4   13.33   10.52
 -28  -2  -4   -7.47   11.80
 -29   2  -4   94.37   24.93
 -29  -2  -4   73.66   20.15
 -30  -2  -4   31.79   15.63
 -30   2  -4    4.87    6.89
 -31  -2  -4   12.31    9.17
 -31   2  -4   23.50   15.06
 -32   2  -4   -3.87   10.61
 -30   3   4   17.36   15.82
 -30  -3   4   52.57   24.38
 -29  -3   4   15.36   10.77
 -29   3   4   22.97   14.71
 -28  -3   4   37.43   16.63
 -28   3   4   35.29   16.95
 -27  -3   4   38.12   17.11
 -27   3   4   46.28   19.53
 -26  -3   4  -10.26   13.42
 -26   3   4    8.21    8.28
 -25   3   4    2.70   10.30
 -25  -3   4    0.82    9.96
 -24  -3   4   41.75   16.02
 -24   3   4   24.45   13.68
 -23  -3   4   26.71   12.34
 -23   3   4   28.04   14.68
 -22   3   4   58.09   18.34
 -22  -3   4   43.28   17.83
 -21  -3   4   25.31   13.58
 -21   3   4    8.66    6.71
 -20  -3   4    7.49    8.01
 -20   3   4   16.44   10.79
 -19   3   4    3.60    2.39
  19   3  -4    7.16    6.58
 -19  -3   4    5.57    6.87
 -19   3   4   13.52    9.90
 -18  -3   4  112.29   23.00
 -18   3   4   85.27   19.81
  18   3  -4  100.71   21.48
 -18   3   4   81.80   13.02
 -17   3   4   38.73    9.11
 -17  -3   4   44.56   14.40
 -17   3   4   37.47   13.95
  17   3  -4   22.43    9.70
 -16  -3   4   60.57   16.42
 -15  -3   4   58.47   15.81
 -14  -3   4  134.39   22.41
 -13  -3   4   61.12   14.66
 -12  -3   4  119.24   18.95
  11  -3  -4   61.90    9.35
 -11  -3   4   42.56   11.13
  10  -3  -4   33.73    7.35
 -10  -3   4   52.04   12.21
   9  -3  -4   59.31    9.10
  -9  -3   4   68.10   13.04
   8  -3  -4    7.08    3.57
   8   3  -4    2.14    3.78
  -8  -3   4    0.88    3.52
   7  -3  -4   36.37    7.11
  -7  -3   4   46.30   10.02
   7   3  -4   48.20   10.67
   6  -3  -4    9.54    3.94
  -6  -3   4   10.54    5.27
   6   3  -4   11.24    6.23
   5  -3  -4   26.36    5.14
   5   3  -4   30.20    7.46
  -5  -3   4   31.80    7.39
   4   3  -4    4.07    3.56
  -4  -3   4    6.46    3.25
   4  -3  -4    6.02    3.16
   3   3  -4    5.57    3.43
  -3  -3   4   14.13    4.48
   3  -3  -4    7.96    3.93
   2   3  -4  654.91   25.80
   2  -3  -4  584.27   24.56
  -2  -3   4  660.14   24.16
   1  -3  -4   55.21    7.85
   1   3  -4   62.17    7.70
   0   3  -4  227.33   12.46
   0  -3  -4  223.57   15.63
  -1  -3  -4   46.67    7.82
  -2  -3  -4  543.24   26.77
  -3  -3  -4   60.68   10.27
  -4  -3  -4    4.60    4.74
   4   3   4    4.61    3.80
  -5  -3  -4    6.09    3.43
   5   3   4    9.49    4.64
   6   3   4    1.28    2.76
  -6  -3  -4   -0.26    3.69
  -7  -3  -4    7.09    5.74
   7   3   4    1.70    3.09
  -7  -3  -4    7.20    5.74
  -8  -3  -4   67.94   12.04
  -8  -3  -4   86.59   13.13
   8   3   4   74.64   12.71
   9   3   4   43.40   11.49
  -9  -3  -4   37.60    9.87
  -9   3  -4   41.63    8.74
 -10  -3  -4   10.41    5.39
  10   3   4    5.80    5.91
 -10   3  -4    8.15    4.96
  11   3   4   11.45    7.03
 -11   3  -4   11.91    6.57
 -11  -3  -4   26.12    8.79
 -12  -3  -4   71.41   14.40
 -12   3  -4   73.65   13.01
 -13  -3  -4   57.16   13.28
 -13   3  -4   48.70   11.31
 -14  -3  -4   66.73   14.31
 -14   3  -4   36.21    9.93
  14   3   4   73.79   16.59
 -15  -3  -4   48.52   13.48
 -15   3  -4   42.02   11.70
  15   3   4   30.23   11.61
 -16  -3  -4   29.93   10.47
  16   3   4   45.38   13.47
 -16   3  -4   45.48   12.34
 -17   3  -4   41.72   11.89
  17   3   4   69.01   17.76
 -17  -3  -4   62.61   15.23
 -18  -3  -4   -8.05    9.18
  18   3   4    1.67    6.13
 -18   3  -4    9.88    7.63
 -19  -3  -4   57.14   16.05
 -19   3  -4   44.78   13.16
  19   3   4   62.90   17.47
 -20   3  -4   80.70   18.16
 -20  -3  -4   55.14   16.38
  20   3   4   67.04   18.77
 -21   3  -4   -2.69    6.25
 -21  -3  -4   -4.08    5.04
 -22  -3  -4   29.50   12.53
 -22   3  -4   32.80   12.16
 -23  -3  -4   13.09    9.46
 -23   3  -4   13.33    9.32
 -24   3  -4    2.15    7.40
 -24  -3  -4   -4.24    7.49
 -25  -3  -4   17.39   11.34
 -25   3  -4    4.74    7.53
 -26  -3  -4   21.05    9.75
 -26   3  -4   34.06   14.08
 -27  -3  -4   12.72    9.53
 -27   3  -4   -1.00    7.32
 -28  -3  -4   14.21    8.62
 -28   3  -4   32.15   14.91
 -29  -3  -4   17.49   11.96
 -29   3  -4   11.79    9.11
 -30  -3  -4   14.81   12.49
 -30   3  -4   -5.65    7.63
 -31   3  -4   11.60    9.12
 -32   3  -4   13.45   11.46
 -30  -4   4    7.61   12.04
 -30   4   4   -9.72   15.39
 -29   4   4   14.23   11.97
 -29  -4   4   23.87   11.81
 -28  -4   4    7.86    8.58
 -28   4   4   18.97   12.90
 -27  -4   4   37.19   18.63
 -27   4   4   30.37   15.69
 -26   4   4   10.13    7.67
 -26  -4   4   14.13   17.45
 -25   4   4    9.51   10.26
 -25  -4   4   44.57   18.41
 -24   4   4  -12.53   13.13
 -24  -4   4   -2.19    7.24
 -23  -4   4   12.93   10.74
 -23   4   4    8.00   10.43
 -22  -4   4    2.32    6.36
 -22   4   4   16.64    7.19
 -21  -4   4   50.16   17.23
 -21   4   4   36.25   14.90
 -20  -4   4   20.91   11.99
 -20   4   4    6.20   10.67
 -19  -4   4   18.45   13.03
 -19   4   4   18.29    7.64
  19   4  -4    5.03    7.80
 -19   4   4   14.14   10.95
 -18  -4   4    1.64    7.44
 -18   4   4   12.84    6.33
  18   4  -4    7.62    6.15
 -17   4   4   19.42    6.91
 -17  -4   4    9.86   10.92
  17   4  -4    4.52    5.81
 -16   4   4   11.94    4.88
 -16  -4   4    3.79    5.61
  16   4  -4   10.01    7.49
 -15  -4   4    9.15    9.70
 -14  -4   4   13.93    9.51
 -13  -4   4    7.60    6.05
  12  -4  -4   10.84    4.65
 -12  -4   4   14.47    7.41
  11  -4  -4   27.27    7.19
 -11  -4   4   30.70   10.21
  10  -4  -4   27.71    6.24
 -10  -4   4   18.48    7.81
  10   4  -4   33.29   10.04
   9  -4  -4  133.26   14.04
  -9  -4   4  132.70   18.47
   9   4  -4  143.43   20.16
   8  -4  -4   52.41    9.08
  -8  -4   4   30.96    8.86
   8   4  -4   33.30    9.63
   7  -4  -4  180.92   15.30
   7   4  -4  184.81   20.72
  -7  -4   4  196.17   19.95
  -6  -4   4   35.78    8.39
   6   4  -4   37.99    9.57
   6  -4  -4   39.70    7.41
   5  -4  -4   82.34   10.17
   5   4  -4   69.48   12.30
  -5  -4   4   72.96   11.29
  -4  -4   4   21.38    6.47
   4   4  -4   23.30    6.42
   4  -4  -4   13.90    4.75
  -3  -4   4  247.26   17.80
   3  -4  -4  233.81   16.68
   3   4  -4  256.61   19.20
   2   4  -4   34.72    6.95
  -2  -4   4   25.49    3.13
   2  -4  -4   33.36    6.46
   1  -4  -4    6.25    4.12
   1   4  -4   -0.03    2.39
   0  -4  -4   28.21    6.53
   0   4  -4   34.92    6.11
  -1  -4  -4   36.43    7.63
  -2  -4  -4    5.82    4.00
  -2   4  -4    1.33    0.86
  -3  -4  -4   13.79    5.58
  -3   4  -4   10.69    2.02
  -4  -4  -4   10.61    5.10
  -4   4  -4    9.08    2.03
   4   4   4   11.41    5.20
  -5  -4  -4  229.26   21.15
  -5   4  -4  235.09   10.83
   5   4   4  220.78   20.56
  -6  -4  -4   -0.08    3.65
   6   4   4    1.41    3.34
  -6   4  -4   -0.34    1.44
   7   4   4   67.26   12.38
  -7  -4  -4   70.45   12.91
  -8  -4  -4   10.43    5.70
   8   4   4   -1.73    3.35
   9   4   4   13.10    6.91
  -9  -4  -4   12.03    6.50
  -9  -4  -4   17.43    7.54
 -10  -4  -4   11.36    6.28
 -10  -4  -4    7.30    4.79
 -11  -4  -4   45.53   11.76
 -11  -4  -4   53.28   12.00
 -12  -4  -4    6.89    7.42
 -12   4  -4    8.56    5.83
 -13  -4  -4   11.03    7.15
  13   4   4   17.73    8.14
 -13   4  -4   16.58    6.98
 -14  -4  -4   16.39    8.29
  14   4   4   21.31    9.26
 -14   4  -4   20.49    8.81
 -15  -4  -4   25.86    9.31
  15   4   4   22.02    9.44
 -15   4  -4   33.33   10.39
 -16  -4  -4    2.93    6.12
  16   4   4   18.12    9.41
 -16   4  -4   19.56    8.00
 -17  -4  -4  106.36   19.53
  17   4   4  142.73   25.43
 -17   4  -4  132.95   21.50
  18   4   4   32.62   12.72
 -18  -4  -4   38.18   12.79
 -18   4  -4   37.07   11.67
 -19  -4  -4    4.48    5.75
 -19   4  -4   -3.90    5.16
  19   4   4   -6.50    6.99
 -20  -4  -4   12.66    9.04
 -20   4  -4    9.93    7.78
 -21  -4  -4    5.03    6.68
 -21   4  -4    6.23    9.72
 -22  -4  -4   -6.09    6.02
 -22   4  -4    0.27    5.58
 -23   4  -4   -0.51    6.48
 -23  -4  -4   12.59    8.30
 -24   4  -4   -2.70    7.95
 -24  -4  -4    8.95    6.94
 -25  -4  -4    4.35    9.33
 -25   4  -4    6.34    9.28
 -26  -4  -4   -9.44   10.31
 -26   4  -4   -5.59    8.36
 -27   4  -4   10.98    9.11
 -27  -4  -4   22.10   12.26
 -28  -4  -4    6.08   10.11
 -28   4  -4    7.48    5.65
 -29   4  -4    1.59    6.12
 -29  -4  -4   20.97   12.73
 -30   4  -4   11.63   12.02
 -30  -4  -4  -19.12   13.85
 -31   4  -4  -11.96   10.77
 -32   4  -4  -19.11   12.74
 -30   5   4   37.51   18.45
 -29  -5   4   11.02   11.49
 -29   5   4   -7.76   14.10
 -28  -5   4   58.93   19.86
 -28   5   4   83.70   28.01
 -27  -5   4   -7.42   11.64
 -27   5   4   -8.24    9.84
 -26   5   4   55.04   20.57
 -26  -5   4   68.30   22.39
 -25   5   4   17.49   16.92
 -25  -5   4   10.51    9.72
 -24  -5   4  129.52   30.07
 -24   5   4  102.53   26.70
 -23  -5   4  -14.32    9.47
 -23   5   4    0.08   10.14
 -22  -5   4  136.72   28.09
 -22   5   4  188.00   33.25
 -21  -5   4   -3.01    7.24
 -21   5   4    2.11    7.80
 -20  -5   4  105.11   24.09
 -19  -5   4   -2.24    5.64
 -18   5   4   90.67   15.18
 -18  -5   4   91.71   21.34
  18   5  -4   95.30   21.93
 -17   5   4   -1.22    3.09
 -17  -5   4   -4.24    9.54
  17   5  -4    1.65    4.86
 -16   5   4   25.38    7.54
 -16  -5   4   27.90   10.75
  16   5  -4   34.36   14.06
 -15   5   4    0.71    2.79
 -15  -5   4   -6.86    6.97
  15   5  -4   -1.73    8.20
  14   5  -4  132.63   23.23
 -14  -5   4  101.63   19.26
  13  -5  -4   -0.39    2.64
 -13  -5   4    3.05    4.62
  13   5  -4    0.60    5.16
  12  -5  -4  176.81   17.30
 -12  -5   4  171.39   23.53
  12   5  -4  166.20   24.49
  11  -5  -4   10.08    5.54
  11   5  -4    1.99    5.15
 -11  -5   4   10.17    6.59
  10  -5  -4   80.43   11.08
 -10  -5   4   74.71   16.11
  10   5  -4   73.84   15.46
   9   5  -4   -6.08    6.00
  -9  -5   4    4.26    5.03
   9  -5  -4    2.03    3.11
   8  -5  -4  691.55   31.43
  -8  -5   4  623.89   38.00
   8   5  -4  682.81   42.56
  -7  -5   4    1.24    4.13
   7   5  -4    6.83    5.68
   7  -5  -4    7.11    3.92
   6   5  -4  513.98   33.91
   6  -5  -4  531.62   26.87
  -6  -5   4  497.03   31.11
   5   5  -4    7.60    5.55
   5  -5  -4    2.79    3.57
  -5  -5   4    0.79    4.38
   4  -5  -4  126.57   13.40
   4   5  -4  121.21   15.04
  -4  -5   4  109.61    9.89
   3   5  -4   19.99    6.50
  -3  -5   4   13.18    3.12
   3  -5  -4   18.03    5.82
  -2  -5   4  145.12    7.94
   2  -5  -4  157.53   14.87
   2   5  -4  150.67   15.28
   1  -5  -4   16.83    5.94
   1   5  -4   12.79    4.55
  -1  -5   4   13.03    2.25
   0  -5   4  283.88    8.27
   0  -5  -4  315.68   21.37
   1  -5   4    3.96    1.35
  -1  -5  -4   11.47    5.60
  -1   5  -4    3.32    1.62
  -2  -5  -4  259.83   20.78
  -2   5  -4  256.27    9.80
  -3   5  -4    7.66    2.14
  -3  -5  -4   -0.04    3.24
  -4   5  -4  240.47   10.93
  -4  -5  -4  226.56   21.00
   5   5   4   16.71    6.86
  -5  -5  -4    4.90    5.38
  -5   5  -4    7.93    2.72
  -6   5  -4  307.20   14.21
  -6  -5  -4  304.27   25.95
   6   5   4  297.39   26.55
  -7  -5  -4    2.82    3.76
  -7   5  -4    0.56    1.57
   7   5   4   -1.66    4.22
  -8   5  -4  313.19   16.43
  -8  -5  -4  278.76   26.94
  -9   5  -4    5.37    2.91
  -9  -5  -4   -0.50    6.12
 -10   5  -4  122.02   11.26
 -10  -5  -4  103.30   17.15
 -11   5  -4   22.16    5.04
 -11  -5  -4   17.44    6.84
  11   5   4   18.24    7.78
 -11  -5  -4   16.47    8.01
 -12   5  -4  254.30   18.02
 -12  -5  -4  247.85   28.49
 -12  -5  -4  235.95   26.61
  12   5   4  256.09   30.31
 -13  -5  -4    4.63    4.78
  13   5   4    2.94    4.40
 -13   5  -4    4.33    3.44
 -13  -5  -4   -2.40    7.33
 -14  -5  -4  140.83   21.18
 -14   5  -4  149.39   14.92
 -14  -5  -4  161.04   23.74
  14   5   4  160.40   25.62
 -15  -5  -4    4.04    5.39
 -15   5  -4    8.46    3.65
  15   5   4    8.62    7.25
 -15   5  -4    2.87    5.13
 -16   5  -4  335.93   24.25
 -16  -5  -4  299.46   32.61
 -16   5  -4  272.73   29.58
  16   5   4  269.49   34.61
 -17   5  -4    6.07    3.87
 -17  -5  -4   12.20    7.22
  17   5   4   10.30    9.53
 -17   5  -4    6.36    5.45
 -18   5  -4   39.79    9.37
 -18  -5  -4   39.89   13.23
  18   5   4   38.98   13.05
 -18   5  -4   49.38   14.79
 -19  -5  -4   10.07    7.73
 -19   5  -4    8.37    4.56
 -19   5  -4    5.76    4.50
 -20   5  -4  101.40   15.55
 -20  -5  -4   76.52   18.68
 -20   5  -4  114.71   22.31
 -21  -5  -4   -0.56    6.45
 -21   5  -4    9.65    7.66
 -22  -5  -4   96.23   22.27
 -22   5  -4   86.70   20.47
 -23  -5  -4   -1.61    6.96
 -23   5  -4   16.68   11.73
 -24   5  -4   39.55   15.82
 -24  -5  -4   35.58   15.14
 -25  -5  -4   -2.96    7.34
 -25   5  -4    9.86    8.35
 -26  -5  -4   99.96   25.15
 -26   5  -4   63.51   19.31
 -27  -5  -4   18.90   11.85
 -27   5  -4  -11.81    9.94
 -28  -5  -4   53.09   18.23
 -28   5  -4   34.48   15.91
 -29   5  -4   -2.88    6.40
 -29  -5  -4    6.79   11.68
 -30   5  -4   74.97   24.96
 -31   5  -4    9.99    9.43
 -29   6   4  101.53   31.23
 -28  -6   4   -8.48   13.58
 -28   6   4   25.94   16.46
 -27  -6   4   83.67   24.41
 -27   6   4   73.83   23.47
 -26  -6   4    5.84    9.96
 -26   6   4   28.53   17.49
 -25   6   4   61.12   23.12
 -25  -6   4   98.06   25.06
 -24  -6   4   -7.98    8.71
 -24   6   4    8.51   12.83
 -23  -6   4  238.98   37.73
 -23   6   4  223.15   38.13
 -22  -6   4   15.94   10.00
 -21  -6   4  150.86   28.30
 -20  -6   4   -3.73    8.54
 -19  -6   4  143.04   27.09
 -18  -6   4    3.58    7.21
  17   6  -4  196.58   31.47
 -17   6   4  191.32   21.74
 -17  -6   4  177.41   27.71
 -16   6   4    4.93    2.59
 -16  -6   4    6.11    8.51
  16   6  -4   16.45    9.25
  15   6  -4  189.06   29.39
 -15  -6   4  165.46   26.12
 -15   6   4  178.31   20.16
  14  -6  -4   50.13   10.03
  14   6  -4   30.44   13.19
 -14   6   4   26.87    8.18
 -14  -6   4   44.79   13.70
  13  -6  -4  266.25   22.26
 -13   6   4  317.22   25.59
  13   6  -4  300.97   34.95
 -13  -6   4  279.63   31.36
  12  -6  -4   14.75    6.52
 -12   6   4   10.24    5.03
 -12  -6   4    7.43    5.28
  12   6  -4   18.28   11.62
  11  -6  -4  302.96   22.76
  11   6  -4  302.42   33.42
 -11  -6   4  303.41   30.48
 -10  -6   4   10.79    7.05
  10  -6  -4   19.36    6.17
  10   6  -4   21.67    9.17
   9  -6  -4  409.00   25.55
  -9  -6   4  411.70   33.17
   9   6  -4  425.81   36.74
   8  -6  -4   39.24    8.66
   8   6  -4   41.37   11.97
  -8  -6   4   40.48   10.72
   7   6  -4  634.92   41.77
   7  -6  -4  698.47   32.64
  -7  -6   4  740.04   41.45
  -6  -6   4    5.17    3.41
  -6  -6   4   18.71    7.11
   6  -6  -4   17.59    6.03
   6   6  -4   19.04    7.58
   5   6  -4  139.20   17.80
  -5  -6   4  154.14   13.52
   5  -6  -4  163.89   15.76
   4   6  -4    7.20    4.50
  -4  -6   4    6.23    3.35
   4  -6  -4    6.71    4.34
   3   6  -4  440.16   29.16
   3  -6  -4  472.93   26.19
  -3  -6   4  445.94   17.68
   2   6  -4    2.83    3.38
  -2  -6   4    3.38    1.93
   2  -6  -4   -1.91    2.92
   1   6  -4  456.24   27.87
  -1  -6   4  452.25   14.27
   1  -6  -4  434.40   25.62
   0   6  -4   10.22    2.99
   0  -6   4   11.23    2.52
   0  -6  -4   12.42    5.86
   1  -6   4  509.37   13.91
  -1   6  -4  510.79   17.72
  -1  -6  -4  496.36   28.61
   2  -6   4   17.48    3.10
  -2   6  -4   15.05    3.43
  -2  -6  -4   16.01    6.42
  -3   6  -4  611.15   18.65
  -3  -6  -4  597.31   33.17
  -4  -6  -4   51.12   10.58
  -4   6  -4   51.58    6.00
  -5   6  -4  119.50    9.13
  -5  -6  -4  119.59   15.94
  -6  -6  -4    8.90    6.42
  -6   6  -4    9.26    3.26
  -7  -6  -4  330.43   28.99
  -7   6  -4  338.56   16.91
  -8   6  -4    9.43    2.99
  -8  -6  -4   10.58    6.07
  -9  -6  -4  166.15   22.24
  -9   6  -4  186.52   13.77
   9   6   4  179.08   24.26
  10   6   4    0.34    5.70
 -10  -6  -4    0.46    5.64
 -10   6  -4    1.03    2.20
 -11   6  -4  203.57   15.89
  11   6   4  206.21   27.75
 -11  -6  -4  225.75   27.02
 -12  -6  -4    1.52    6.27
 -12   6  -4    2.56    2.05
  12   6   4   10.29    5.97
 -13   6  -4  281.29   20.37
  13   6   4  205.27   28.70
 -13  -6  -4  225.54   28.33
 -14   6  -4   -1.32    2.23
  14   6   4    8.13    5.75
 -14  -6  -4    2.72    5.52
 -14  -6  -4    6.56    6.90
 -15   6  -4  330.74   23.64
  15   6   4  294.04   36.99
 -15  -6  -4  294.86   34.46
 -15  -6  -4  279.55   32.37
 -16   6  -4    6.03    4.17
 -16  -6  -4    1.24    5.97
  16   6   4   22.02   12.91
 -16  -6  -4   13.48    8.18
  17   6   4  105.64   24.19
 -17  -6  -4   67.15   17.34
 -17   6  -4   89.38   13.50
 -17  -6  -4   86.80   19.33
 -17   6  -4   94.93   18.61
 -18   6  -4   52.77   11.22
 -18  -6  -4   26.57   12.55
 -18  -6  -4   35.85   13.63
 -18   6  -4   29.56   12.35
 -19   6  -4  144.66   18.07
 -19  -6  -4  137.82   25.27
 -19   6  -4  123.72   22.40
 -20  -6  -4   -4.44    6.62
 -20   6  -4    9.11    9.72
 -21  -6  -4  120.08   24.47
 -21   6  -4  115.89   23.53
 -22   6  -4    5.09    5.58
 -22  -6  -4    4.31    6.04
 -23  -6  -4   81.95   21.66
 -23   6  -4  104.19   22.96
 -24  -6  -4   11.69   11.29
 -24   6  -4   -1.42    5.18
 -25  -6  -4  109.71   24.70
 -25   6  -4  222.29   35.56
 -26  -6  -4   12.12   10.25
 -26   6  -4  -10.15   10.51
 -27   6  -4  116.05   27.02
 -27  -6  -4   56.10   18.59
 -28   6  -4   13.15   11.22
 -28  -6  -4    4.00   10.06
 -29   6  -4   84.50   24.76
 -30   6  -4    0.72    8.35
 -31   6  -4   -8.51   10.52
 -28   7   4   49.52   23.30
 -28  -7   4   40.38   21.43
 -27  -7   4   -8.94   11.85
 -27   7   4   18.50   13.66
 -26  -7   4   58.47   21.64
 -26   7   4   42.99   16.65
 -25  -7   4   12.29   10.26
 -25   7   4    6.22   10.49
 -24   7   4  106.86   27.67
 -24  -7   4   87.02   23.76
 -23  -7   4    5.58    6.97
 -22  -7   4  171.17   32.24
 -21  -7   4   14.87   10.87
 -20  -7   4  107.87   24.46
 -19  -7   4   31.17   14.37
 -18  -7   4  117.95   24.28
 -17  -7   4   24.22   11.23
 -16   7   4  194.56   22.19
  16   7  -4  221.06   34.68
 -16  -7   4  163.28   26.37
 -15  -7   4    9.42    8.83
 -15   7   4    8.71    5.78
  15   7  -4    6.51    6.48
  15  -7  -4   21.04    7.73
 -14   7   4  175.43   20.49
 -14  -7   4  193.32   27.54
  14   7  -4  171.21   28.79
  14  -7  -4  206.76   20.54
  13  -7  -4   29.05    7.66
  13   7  -4   25.65   12.11
 -13  -7   4   20.73    9.25
 -13   7   4   26.90    8.60
  12  -7  -4  218.08   20.94
 -12   7   4  251.81   23.90
 -12  -7   4  202.64   26.61
  12   7  -4  248.51   32.28
 -11   7   4   48.46   10.66
  11  -7  -4   44.91    9.64
  11   7  -4   30.41   12.38
 -11  -7   4   41.51   12.63
  10   7  -4  365.27   37.16
 -10   7   4  459.27   31.41
 -10  -7   4  423.51   35.90
  10  -7  -4  437.45   27.60
  -9  -7   4   42.73   12.75
   9  -7  -4   36.26    8.74
   9   7  -4   46.35   14.48
  -9   7   4   33.61    9.07
   8  -7  -4  145.91   15.81
   8   7  -4  132.14   20.41
  -8  -7   4  135.82   19.42
  -8  -7   4  126.09   15.29
  -8   7   4  180.40   19.51
  -7   7   4   47.40   10.28
   7   7  -4   50.49   13.03
   7  -7  -4   46.81    9.25
  -7  -7   4   47.54    9.12
  -6  -7   4  105.71   12.58
   6   7  -4  117.16   18.36
   6  -7  -4   91.13   12.39
  -6   7   4   98.13   14.31
   5  -7  -4   24.64    6.70
  -5  -7   4   23.72    5.99
   5   7  -4   17.21    7.44
   4  -7  -4  250.37   20.28
  -4  -7   4  247.58   15.67
   4   7  -4  253.43   25.10
  -3  -7   4   13.37    4.01
   3   7  -4   12.30    7.15
   3  -7  -4   10.94    5.47
  -2  -7   4  384.38   16.24
   2   7  -4  387.87   28.86
   2  -7  -4  376.43   25.08
   1  -7  -4   28.70    7.58
   1   7  -4   19.52    6.17
  -1  -7   4   36.35    4.93
   0  -7  -4  308.65   23.24
   0  -7   4  341.86   13.82
   0   7  -4  313.01   16.89
  -1   7  -4   54.24    7.07
   1  -7   4   68.10    6.30
  -1  -7  -4   67.74   11.89
   2  -7   4  467.22   15.81
  -2   7  -4  443.39   18.80
  -2  -7  -4  466.73   29.92
   3  -7   4   54.01    5.77
  -3   7  -4   54.08    6.82
  -3  -7  -4   33.35    9.18
  -4  -7  -4  240.07   23.18
  -4   7  -4  231.88   13.54
  -5  -7  -4   78.84   14.02
  -5   7  -4   83.20    8.55
  -6  -7  -4  104.75   16.45
   6   7   4   95.25   17.08
  -6   7  -4   93.41    9.01
  -7   7  -4   26.52    5.43
   7   7   4   32.09   11.71
  -7  -7  -4   31.25   10.26
  -8   7  -4   84.89    9.33
   8   7   4   96.98   18.65
  -8  -7  -4   97.67   16.79
  -9   7  -4   14.11    4.67
  -9  -7  -4   25.45   10.27
   9   7   4   21.10    9.52
 -10   7  -4  119.78   12.09
  10   7   4  140.12   23.44
 -10  -7  -4  158.76   22.34
 -11  -7  -4   12.56    7.34
 -11   7  -4   18.83    5.42
  11   7   4   -0.70    5.75
 -12   7  -4  155.68   14.88
  12   7   4  179.47   27.85
 -12  -7  -4  160.71   24.54
  13   7   4    8.66    6.62
 -13  -7  -4   14.34    9.48
 -13   7  -4    6.77    3.68
  14   7   4  265.01   35.81
 -14   7  -4  233.78   19.51
 -14  -7  -4  232.79   31.18
 -15  -7  -4   -6.50    9.35
  15   7   4  -10.73    8.17
 -15   7  -4    1.91    2.46
 -16  -7  -4   68.65   17.49
 -16   7  -4   79.02   12.46
 -17   7  -4   36.71    9.22
 -17  -7  -4   46.31   17.34
 -17  -7  -4   41.96   15.25
 -18  -7  -4   57.92   16.59
 -18   7  -4  102.26   14.97
 -18  -7  -4   96.50   21.06
 -18   7  -4   75.62   17.79
 -19  -7  -4   18.49   12.52
 -19  -7  -4   14.52   10.99
 -19   7  -4   -1.27    8.93
 -19   7  -4    5.39    4.79
 -20  -7  -4  107.90   23.02
 -20  -7  -4   79.55   19.63
 -20   7  -4  123.60   24.11
 -21  -7  -4    8.83    8.06
 -21   7  -4    3.02    6.29
 -21  -7  -4   -3.83    6.02
 -22  -7  -4   71.38   19.91
 -22  -7  -4   63.73   17.81
 -22   7  -4   37.86   14.37
 -23  -7  -4   -3.41    5.95
 -23  -7  -4   14.20   10.10
 -23   7  -4   -0.43    5.46
 -24   7  -4   78.37   20.34
 -24  -7  -4   86.51   22.76
 -24  -7  -4   74.30   21.56
 -25  -7  -4   -1.81    6.43
 -25  -7  -4    2.98    6.66
 -26   7  -4   92.50   23.91
 -26  -7  -4   69.80   23.16
 -26  -7  -4   42.99   18.52
 -27   7  -4    1.72    6.71
 -27  -7  -4    1.45    9.49
 -28   7  -4   46.51   20.30
 -29   7  -4    0.75    8.10
 -30   7  -4   15.22   11.42
 -27  -8   4   12.12   11.58
 -27   8   4   18.26   14.04
 -26  -8   4   16.46   11.44
 -26   8   4    6.78   17.15
 -25  -8   4   10.27    7.43
 -25   8   4   39.28   16.68
 -24  -8   4   38.17   16.51
 -23  -8   4   49.67   17.87
 -22  -8   4   25.76   13.80
 -21  -8   4   43.90   15.90
 -20  -8   4   65.64   20.95
 -19  -8   4   52.44   16.37
 -18  -8   4   39.03   15.11
 -17  -8   4   60.94   18.91
 -16  -8   4   23.70   10.83
  16  -8  -4   17.92    6.50
 -15  -8   4   70.25   18.65
 -15   8   4  100.41   16.70
  15  -8  -4  102.22   15.31
  15   8  -4   62.82   18.59
  14   8  -4    4.83   11.09
  14  -8  -4    7.99    5.80
 -14   8   4    4.83    4.51
 -14  -8   4    6.17    7.74
  13  -8  -4  110.44   15.30
 -13   8   4  117.36   17.13
 -13  -8   4   96.57   19.88
  13   8  -4  108.88   22.73
  12   8  -4   42.22   14.26
  12  -8  -4   48.22   10.36
 -12  -8   4   29.49   11.15
 -12   8   4   49.34   11.75
 -11  -8   4  121.45   17.50
 -11  -8   4  143.21   22.86
  11  -8  -4  149.63   17.17
  11   8  -4  148.80   25.16
 -11   8   4  146.79   19.12
 -10   8   4   42.67   10.46
  10  -8  -4   44.13    9.58
  10   8  -4   54.66   15.86
 -10  -8   4   56.80   11.76
  -9   8   4   75.74   13.57
   9  -8  -4   78.78   12.49
   9   8  -4   67.11   16.53
  -9  -8   4   66.11   11.99
  -8   8   4  104.42   15.87
   8  -8  -4   88.94   13.23
  -8  -8   4   94.65   13.81
   8   8  -4   52.14   13.69
   7   8  -4   13.66    7.80
  -7   8   4   12.74    6.01
   7  -8  -4    9.17    3.79
  -7  -8   4   10.92    4.62
  -6  -8   4   92.64   12.06
   6  -8  -4  100.66   13.85
  -6   8   4   77.50   13.60
   6   8  -4   69.11   14.00
   5  -8  -4   79.64   12.03
  -5  -8   4   90.92   10.80
   5   8  -4   72.13   14.98
  -5   8   4   70.59   12.45
  -4   8   4   46.62   10.64
   4   8  -4   41.56   11.11
  -4  -8   4   44.77    7.26
   4  -8  -4   69.92   12.06
  -3   8   4  119.52   16.61
   3  -8  -4  110.02   14.10
   3   8  -4   98.96   16.27
  -3  -8   4  114.24   10.58
  -2  -8   4   47.21    6.76
   2   8  -4   30.25    9.44
   2  -8  -4   44.22    9.30
  -2   8   4   23.93    8.00
   1  -8  -4  135.08   16.07
   1   8  -4  136.86   18.45
  -1   8   4  139.49   18.64
  -1  -8   4  134.41   10.28
   0   8  -4   18.75    5.22
   0   8   4   20.73    8.71
   0  -8   4   30.68    5.04
   0  -8  -4   31.24    8.35
  -1  -8  -4  163.07   18.26
   1  -8   4  159.54   10.65
   1   8   4  150.46   20.33
  -1   8  -4  153.83   13.21
   2   8   4   13.77    6.67
  -2  -8  -4   28.88    7.96
   2  -8   4   27.61    4.72
  -2   8  -4   33.40    6.32
  -3   8  -4   98.52    9.98
   3  -8   4  115.95    9.11
   3   8   4   87.74   16.72
  -3  -8  -4  106.55   15.16
   4  -8   4   25.95    4.60
   4   8   4   13.97    7.19
  -4  -8  -4   25.74    8.41
  -4   8  -4   16.01    4.39
   5   8   4  110.95   19.27
   5   8   4   95.79   18.17
  -5   8  -4   99.85   10.07
  -5  -8  -4   90.86   15.05
  -6  -8  -4   49.09   12.01
   6   8   4   33.67   11.06
  -6   8  -4   52.79    7.60
   7   8   4   28.52   10.47
  -7  -8  -4   22.54    8.80
  -7   8  -4   24.57    5.03
  -8  -8  -4   20.99    9.34
  -8   8  -4   23.85    5.78
   8   8   4   36.91   12.87
  -9   8  -4   83.26   10.09
   9   8   4   68.66   16.77
  -9  -8  -4   80.43   16.27
  10   8   4    6.96    7.08
 -10  -8  -4   27.90   11.72
 -10   8  -4   33.19    7.06
  11   8   4   63.44   16.90
 -11   8  -4   86.97   11.08
 -11  -8  -4   93.89   18.39
 -12  -8  -4   29.41   11.78
  12   8   4   12.52    8.24
 -12   8  -4   21.94    6.42
 -13  -8  -4   67.13   16.07
 -13   8  -4   85.31   11.64
  13   8   4   68.38   18.50
 -14  -8  -4    5.52    6.73
 -14   8  -4   13.18    5.58
 -15   8  -4   41.92    9.15
 -15  -8  -4   47.67   14.38
 -16   8  -4   43.85    9.77
 -16  -8  -4   58.34   18.08
 -17   8  -4   41.48    9.43
 -17  -8  -4   31.61   11.97
 -18   8  -4   17.56    6.95
 -18  -8  -4    1.43    5.51
 -19  -8  -4   28.02   12.73
 -19   8  -4   34.11    9.31
 -20  -8  -4   -1.94    7.05
 -20   8  -4    1.15    6.24
 -21   8  -4   33.06   14.43
 -21  -8  -4   34.37   15.47
 -21  -8  -4    6.05    5.18
 -22  -8  -4    8.87    9.69
 -22  -8  -4   11.16   10.97
 -22   8  -4    8.51    9.74
 -23  -8  -4   53.58   19.02
 -23  -8  -4   40.91   17.42
 -23   8  -4   38.11   15.69
 -24  -8  -4   11.33   10.36
 -24   8  -4   -3.03    7.72
 -24  -8  -4   -0.41    7.28
 -25  -8  -4   14.62   10.80
 -25  -8  -4    9.84   13.07
 -25   8  -4   15.86   11.19
 -26  -8  -4    2.00    9.67
 -26   8  -4   21.16   14.98
 -27   8  -4   15.23   13.36
 -28   8  -4   -2.43   12.90
 -29   8  -4   63.51   21.72
 -26  -9   4    5.53    7.58
 -26   9   4    7.42   10.46
 -25  -9   4   17.06   10.58
 -24  -9   4   16.71    8.94
 -23  -9   4   41.71   18.67
 -22  -9   4   -1.30    7.59
 -21  -9   4   52.17   18.18
 -20  -9   4   15.84    9.66
 -19  -9   4   34.74   15.76
 -18  -9   4   23.37   12.61
 -17  -9   4   29.77   13.53
 -16  -9   4   16.92    9.78
  16  -9  -4   16.53    6.69
  15  -9  -4   22.75    7.78
 -15  -9   4   30.54   13.44
  14  -9  -4   13.45    6.26
 -14  -9   4   20.96    9.92
 -14  -9   4   21.34    9.44
  13  -9  -4   -0.88    3.76
 -13  -9   4    8.94    5.26
  13   9  -4   -1.18    9.86
 -13   9   4    7.02    5.40
 -13  -9   4   17.36    9.31
  12   9  -4   90.79   21.10
 -12  -9   4   75.21   14.83
  12  -9  -4   66.92   12.88
 -12   9   4   59.55   12.97
 -11   9   4   59.15   12.78
  11   9  -4   56.83   16.80
 -11  -9   4   60.85   13.01
  11  -9  -4   53.01   10.88
 -10   9   4   11.88    5.62
  10  -9  -4   22.66    7.12
 -10  -9   4   11.72    5.57
  10   9  -4   44.77   12.94
  -9   9   4   64.85   13.34
   9  -9  -4   78.47   12.60
   9   9  -4   68.56   17.04
  -9  -9   4   64.75   11.97
   8   9  -4   23.12    9.20
   8  -9  -4    9.79    5.25
  -8   9   4   12.30    5.81
  -8  -9   4    6.95    3.90
  -7  -9   4   68.60   10.99
  -7   9   4   72.72   13.94
   7   9  -4   74.12   17.09
   7  -9  -4   72.62   12.20
   6   9  -4    1.51    4.42
  -6   9   4    2.97    3.36
   6  -9  -4    2.40    3.38
  -6  -9   4   -0.53    2.49
  -5  -9   4   95.90   11.75
   5  -9  -4   84.94   13.33
   5   9  -4   89.02   17.50
  -5   9   4   83.15   15.37
   4   9  -4    9.22    6.62
  -4  -9   4   14.44    4.71
   4  -9  -4   19.81    6.82
  -4   9   4   19.76    7.62
   3   9  -4   54.84   13.38
  -3  -9   4   76.51    9.49
   3  -9  -4   78.29   12.61
  -3   9   4   81.44   15.74
  -2   9   4    0.46    4.98
   2   9  -4   30.42    9.64
   2  -9  -4   28.72    8.29
  -2  -9   4   20.05    4.66
   1  -9  -4   20.72    7.55
   1   9  -4   36.69   10.78
  -1  -9   4   25.66    5.27
  -1   9   4   30.64   10.49
   0  -9  -4   45.35   10.11
   0  -9   4   43.18    6.70
   0   9  -4   37.18    7.63
   0   9   4   40.42   11.68
  -1  -9  -4    2.07    3.00
   1   9   4    2.56    6.08
   1  -9   4    6.50    3.28
  -1   9  -4    4.48    3.74
  -2  -9  -4   28.17    8.48
  -2   9  -4   29.82    6.88
   2   9   4   17.34    7.53
   2  -9   4   29.02    5.22
  -3   9  -4    7.83    3.50
   3  -9   4   11.37    3.48
  -3  -9  -4    4.72    4.29
   3   9   4    6.09    5.25
   4  -9   4   68.06    7.83
   4   9   4   63.26   15.47
  -4   9  -4   60.47    8.84
  -4  -9  -4   66.29   12.64
   5  -9   4   20.80    4.60
  -5   9  -4   16.04    5.25
   5   9   4    4.85    4.64
  -5  -9  -4   11.01    6.45
   5   9   4   14.46    9.20
  -6   9  -4   10.54    4.48
   6   9   4   15.04    9.80
  -6  -9  -4   20.92    8.29
  -7  -9  -4   16.18    6.92
   7   9   4   11.38    7.19
  -7   9  -4   15.95    5.06
  -8   9  -4   19.58    4.99
  -8  -9  -4   14.78    4.60
   8   9   4   24.06   11.42
  -9  -9  -4   18.03    8.35
  -9   9  -4   24.10    6.44
   9   9   4   19.90   10.22
  10   9   4   17.94   11.37
 -10  -9  -4   23.50    9.86
 -10   9  -4   13.43    5.15
 -11  -9  -4   25.88    9.65
 -11   9  -4   28.19    7.25
 -12  -9  -4   15.61    9.22
 -12   9  -4   15.39    5.59
 -13   9  -4   22.56    6.52
 -13  -9  -4   19.30   10.31
 -14   9  -4    9.78    4.99
 -14  -9  -4    1.52    5.42
 -15  -9  -4   60.95   16.97
 -15   9  -4   67.41   11.94
 -16  -9  -4    6.42    6.76
 -16   9  -4    8.29    4.93
 -17   9  -4    0.92    2.96
 -17  -9  -4    3.00    6.56
 -18   9  -4   26.94    8.40
 -18  -9  -4   12.84    9.37
 -19  -9  -4  -20.09   11.39
 -20  -9  -4    8.50    7.68
 -21  -9  -4   20.22   12.75
 -21   9  -4   -3.40    8.99
 -22  -9  -4   -3.88   10.96
 -22   9  -4   11.99    9.43
 -23   9  -4   19.44   13.36
 -23  -9  -4   -7.72    9.55
 -24   9  -4  -12.95    8.81
 -24  -9  -4   19.44   13.60
 -25   9  -4  -40.60   16.94
 -26   9  -4   -2.34    9.96
 -27   9  -4   -7.16   13.71
 -28   9  -4  -35.72   16.99
 -24 -10   4   16.35   11.67
 -23 -10   4    6.11    7.76
 -22 -10   4   19.36   12.10
 -21 -10   4   10.16   10.04
 -20 -10   4   20.53   12.43
 -20 -10   4   18.79   11.64
 -19 -10   4   -0.38    7.42
 -19 -10   4   -1.55    4.95
 -18 -10   4    6.99    6.72
 -18 -10   4   23.00   11.60
 -17 -10   4    1.24    7.26
 -17 -10   4   -1.54    6.55
  17 -10  -4   -0.57    3.57
  16 -10  -4   10.84    5.93
 -16 -10   4   81.13   27.45
  15 -10  -4    6.92    4.83
 -15 -10   4    1.42    4.29
  14 -10  -4   13.21    6.69
 -14 -10   4   19.57    8.15
  13 -10  -4    0.32    2.84
 -13 -10   4    2.65    6.10
  12 -10  -4   13.15    6.20
 -12 -10   4   -0.86    3.40
 -11  10   4   -0.60    4.90
  11 -10  -4    6.38    4.94
  11  10  -4   -4.03    8.27
 -11 -10   4   12.30    7.05
 -10  10   4   40.31   11.45
  10  10  -4   72.75   19.04
 -10 -10   4   43.93   10.86
  10 -10  -4   48.74   10.27
   9 -10  -4    2.14    3.64
  -9 -10   4    7.69    6.14
  -9  10   4    3.57    4.12
   9  10  -4   -8.17    8.74
  -8 -10   4   68.79   12.06
  -8  10   4   82.67   16.25
   8  10  -4   76.94   18.26
   8 -10  -4   76.28   13.40
  -7  10   4    5.56    5.50
   7 -10  -4   -2.82    3.11
   7  10  -4   -0.33    7.14
  -7 -10   4   -3.05    4.16
   6 -10  -4   54.86   11.27
   6  10  -4   64.77   15.71
  -6  10   4   58.02   12.86
  -6 -10   4   50.37    9.26
  -5 -10   4   -0.80    2.86
   5  10  -4   -4.03    4.01
   5 -10  -4   -6.34    4.69
  -5  10   4    1.16    3.64
   4  10  -4   69.32   15.67
   4 -10  -4   72.23   12.87
  -4 -10   4   76.40   10.21
  -4  10   4   58.31   13.31
  -3 -10   4    3.71    2.92
  -3  10   4    1.62    3.40
   3 -10  -4    6.59    5.04
   3  10  -4    7.31    6.26
   2  10  -4   35.24   11.87
   2 -10  -4   20.85    7.74
  -2 -10   4   37.80    7.02
  -2  10   4   35.87   11.95
  -1  10   4   -1.22    3.97
   1  10  -4   10.61    8.88
  -1 -10   4    6.07    4.54
   1 -10  -4    5.57    3.84
   0 -10  -4    4.45    3.69
   0 -10   4    5.61    2.77
   0  10   4    4.48    5.40
   0  10  -4    7.69    3.85
  -1 -10  -4   -4.16    4.43
  -1  10  -4   -3.38    2.65
   1 -10   4    1.53    2.44
   1  10   4    1.94    4.44
   2  10   4   -3.45    5.22
  -2 -10  -4    1.90    5.45
  -2  10  -4    3.06    3.61
   2 -10   4    0.56    1.53
  -3 -10  -4    4.35    3.11
  -3  10  -4    0.82    2.37
   3 -10   4    7.47    2.92
   3  10   4    4.44    4.48
  -4  10  -4   -4.67    3.86
   4 -10   4    3.55    2.99
  -4 -10  -4    4.16    3.69
   4  10   4   -5.14    6.67
   5 -10   4    4.39    2.80
   5  10   4    2.67    4.51
  -5 -10  -4    2.75    4.11
  -5  10  -4    6.89    3.50
   5  10   4    6.40    4.16
   6 -10   4    4.62    2.92
   6  10   4    3.16    4.82
  -6  10  -4    9.12    4.56
  -6 -10  -4    1.25    3.70
  -7  10  -4   -7.27    3.92
   7  10   4   14.26    8.73
  -7 -10  -4    4.04    6.18
  -8  10  -4   13.72    5.08
  -8 -10  -4   14.37    8.35
  -9  10  -4   -0.34    2.15
  -9 -10  -4   -0.24    4.84
 -10 -10  -4   19.79    6.72
 -10  10  -4   19.70    6.16
 -11 -10  -4    4.43    6.56
 -11  10  -4   -3.44    3.80
 -12 -10  -4   46.77   15.02
 -12  10  -4   37.80    8.38
 -13  10  -4   -0.57    2.53
 -13 -10  -4  -19.22    9.84
 -14 -10  -4   38.24   14.50
 -14  10  -4   50.62   10.22
 -15  10  -4    0.88    3.94
 -15 -10  -4    4.37    5.86
 -16  10  -4   14.76    5.10
 -16 -10  -4    4.86    8.31
 -17  10  -4    4.02    3.62
 -17 -10  -4    9.64    9.08
 -18 -10  -4   -0.46    5.39
 -19 -10  -4    1.14    6.50
 -20 -10  -4   11.81   10.74
 -21 -10  -4    2.11    6.16
 -22  10  -4   14.65    5.91
 -22 -10  -4    8.34   11.79
 -23 -10  -4   -3.71    5.65
 -23  10  -4   -9.19    9.16
 -24  10  -4   27.86   12.71
 -25  10  -4   -3.16   10.06
 -26  10  -4   18.97   15.58
 -27  10  -4    1.70   11.80
 -26 -11   4    7.48    8.05
 -25 -11   4   10.51    7.88
 -24 -11   4    6.08    7.31
 -23 -11   4   17.60   13.32
 -23 -11   4    7.71    8.96
 -22 -11   4  -20.51   11.21
 -22 -11   4   14.74    9.29
 -21 -11   4    8.56    9.70
 -21 -11   4    7.93    8.20
 -20 -11   4    0.17    5.77
 -19 -11   4  -10.15    8.00
 -18 -11   4  -10.62    7.86
 -17 -11   4   -0.63    7.65
  17 -11  -4    7.27    4.85
  16 -11  -4    7.30    5.17
 -16 -11   4    2.36    4.29
  15 -11  -4    9.08    5.61
 -15 -11   4    5.85    6.49
 -14 -11   4   10.02    7.72
  14 -11  -4    1.63    2.77
  13 -11  -4   11.19    5.28
 -13 -11   4    7.33    5.87
  12 -11  -4   18.72    7.74
 -12 -11   4    0.20    4.85
  11 -11  -4   -2.68    4.35
 -11 -11   4   -2.34    4.67
  10 -11  -4   -0.22    3.38
 -10 -11   4   -1.52    5.15
  -9 -11   4   16.97    6.73
   9 -11  -4   26.29    8.28
  -8 -11   4    2.40    3.03
   8 -11  -4    9.43    5.14
   8  11  -4    4.32    7.97
  -8  11   4    7.95    5.77
  -7  11   4   24.32    7.57
   7  11  -4   30.92   11.96
   7 -11  -4   23.85    6.98
  -7 -11   4   23.38    7.33
  -6 -11   4   -0.29    2.39
   6 -11  -4    2.58    3.69
  -6  11   4    4.39    3.28
   6  11  -4   -2.81    5.36
  -5 -11   4   42.92    8.56
   5  11  -4   36.30   13.40
   5 -11  -4   40.29    9.95
  -5  11   4   38.66   12.38
  -4  11   4   20.80    7.71
  -4 -11   4   13.24    4.93
   4 -11  -4    3.39    4.36
   4  11  -4    3.39    5.55
  -3  11   4   20.83    9.02
   3  11  -4   24.07    8.42
   3 -11  -4   30.31    8.79
  -3 -11   4   27.47    6.63
  -2 -11   4   12.67    4.43
   2  11  -4   -2.40    7.79
   2 -11  -4    2.86    2.97
  -1  11   4   -5.01    4.58
  -1 -11   4    6.85    4.01
   1  11  -4    2.10    6.32
   1 -11  -4    3.60    3.88
   0 -11  -4   14.81    8.17
   0  11  -4   -3.57    5.16
   0  11  -4   11.63    8.05
   0 -11   4   11.67    4.11
   0  11   4   14.64    8.96
  -1 -11  -4    3.51    5.30
   1 -11   4   -0.87    2.77
   1  11   4    3.00    4.18
  -1  11  -4    1.54    3.02
  -2 -11  -4    6.93    4.85
  -2  11  -4   -1.67    4.83
   2 -11   4    9.13    4.21
   2  11   4    8.56    5.31
   3  11   4    7.13    7.06
   3 -11   4    0.36    2.00
  -3 -11  -4    7.38    5.96
  -3  11  -4   12.86    6.51
   4  11   4    7.41    5.99
   4 -11   4   12.24    3.51
  -4  11  -4    4.83    3.94
  -4 -11  -4    5.22    4.24
  -5  11  -4    2.94    3.62
   5 -11   4    8.13    3.79
   5  11   4   -6.00    9.06
  -5 -11  -4    4.66    5.67
  -6 -11  -4   10.25    6.45
  -6  11  -4    3.96    4.20
   6 -11   4    4.77    2.94
  -7 -11  -4    3.31    4.24
  -7  11  -4    2.10    2.64
  -8  11  -4    0.56    2.43
  -8 -11  -4    5.40    4.25
  -9  11  -4   24.29    7.34
  -9 -11  -4   25.56   11.44
 -10  11  -4    7.17    3.05
 -10 -11  -4    6.31    5.07
 -11  11  -4   33.65    8.83
 -11 -11  -4    6.35    6.67
 -12 -11  -4    0.27    5.48
 -12  11  -4   -0.34    2.70
 -13 -11  -4   12.27    9.69
 -13  11  -4   26.40    8.12
 -14 -11  -4    8.48    9.15
 -14  11  -4    3.14    3.10
 -15 -11  -4   14.42    9.90
 -15  11  -4   16.98    6.81
 -16 -11  -4   -1.80    5.90
 -16  11  -4    3.36    3.22
 -17 -11  -4    9.45    9.31
 -18 -11  -4    1.47    5.00
 -19 -11  -4    5.32    9.58
 -20 -11  -4   -1.28    6.28
 -21 -11  -4    7.72    9.75
 -22 -11  -4    9.07    8.94
 -23  11  -4   14.15   13.01
 -24  11  -4  -11.73   10.92
 -25  11  -4  -30.27   16.76
 -26  11  -4    1.53    9.17
 -25 -12   4    0.08    9.95
 -24 -12   4  -43.88   16.75
 -23 -12   4    4.53    6.47
 -22 -12   4   13.67    9.27
 -21 -12   4    1.56    5.79
 -20 -12   4  -10.75    8.39
 -19 -12   4    2.13    7.28
 -18 -12   4    1.68    6.62
 -17 -12   4   -1.23    5.34
  17 -12  -4    4.70    5.24
  16 -12  -4    4.81    3.56
 -16 -12   4    1.25    5.32
  15 -12  -4   -2.13    3.70
 -15 -12   4   -9.31    6.78
  14 -12  -4    0.89    3.69
 -14 -12   4    4.30    5.54
  13 -12  -4   -4.41    3.05
 -13 -12   4   -2.69    4.55
 -12 -12   4    6.53    5.72
  12 -12  -4    2.93    3.68
 -11 -12   4   13.81    7.66
  11 -12  -4   26.93    8.85
  10 -12  -4    2.21    3.86
 -10 -12   4   -0.18    5.24
  -9 -12   4    2.59    3.99
   9 -12  -4    8.73    3.94
   8 -12  -4    1.77    3.11
  -8 -12   4   12.83    6.57
   7 -12  -4   -0.74    3.68
  -7 -12   4   -1.68    3.13
  -6 -12   4    5.95    4.09
   6 -12  -4    4.00    3.53
  -5 -12   4    1.88    3.42
   5 -12  -4    2.72    4.37
  -4 -12   4    3.17    2.50
   4 -12  -4   -2.20    3.56
   3  12  -4    2.71    5.00
   3 -12  -4   11.35    5.66
  -3 -12   4   23.13    6.17
  -2 -12   4    6.20    3.61
   2 -12  -4    8.16    5.30
   2  12  -4   -2.33   10.10
  -1 -12   4    4.65    2.43
   1  12  -4   10.05    7.53
   1 -12  -4    5.39    5.71
   0 -12   4    8.97    3.89
   0  12  -4   18.19   10.86
   0 -12  -4    9.40    6.31
  -1 -12  -4    3.62    3.75
   1 -12   4    6.78    4.01
  -1  12  -4   -0.60    3.75
   2 -12   4    9.36    4.46
  -2 -12  -4    5.29    5.72
  -3  12  -4    2.69    4.64
  -3 -12  -4    1.99    3.81
   3 -12   4    8.14    4.16
   4 -12   4    9.22    4.54
  -4  12  -4   10.86    6.24
  -4 -12  -4    1.68    3.88
   5 -12   4    8.24    4.38
  -5  12  -4    8.04    5.30
  -5 -12  -4   18.58    8.74
   6 -12   4   17.60    5.11
  -6  12  -4    8.34    5.14
  -6 -12  -4   -3.13    4.85
  -7 -12  -4    7.17    5.14
  -7  12  -4    1.01    5.17
  -8  12  -4   27.89    8.85
  -8 -12  -4    7.46    5.50
  -9  12  -4    4.69    3.73
  -9 -12  -4    2.08    4.21
 -10 -12  -4    3.58    5.04
 -10  12  -4   24.48    7.27
 -11  12  -4   -0.79    3.27
 -11 -12  -4  -10.92    7.45
 -12 -12  -4   12.05    8.65
 -12  12  -4   13.35    6.94
 -13  12  -4   14.93    6.76
 -13 -12  -4   -1.36    5.65
 -14  12  -4   25.90    8.88
 -14 -12  -4    4.07    6.85
 -15 -12  -4    3.30    5.89
 -16 -12  -4   12.94    9.32
 -17 -12  -4   21.68   13.35
 -18 -12  -4   -0.51    7.29
 -19 -12  -4  -13.47    9.74
 -20 -12  -4    6.66    5.75
 -24  12  -4    8.83   13.42
 -24 -13   4    0.27    7.08
 -23 -13   4    7.99    9.22
 -22 -13   4  -23.74   12.05
 -21 -13   4    3.43    7.12
 -20 -13   4    1.37    7.65
 -19 -13   4   -7.39    7.11
 -18 -13   4    4.20    9.50
  17 -13  -4    8.37    6.24
 -17 -13   4    0.02    5.36
  16 -13  -4   -2.20    5.93
 -16 -13   4    0.38    4.78
  15 -13  -4    0.30    3.71
 -15 -13   4  -10.61    7.11
  14 -13  -4   10.07    6.12
 -14 -13   4    6.59    5.40
 -13 -13   4    1.37    4.32
  13 -13  -4   12.42    7.85
  12 -13  -4    0.03    3.33
 -12 -13   4   -0.08    4.54
  11 -13  -4   12.31    6.75
 -11 -13   4    5.72    4.98
 -10 -13   4    8.87    5.24
  10 -13  -4   15.68    7.10
  -9 -13   4   12.16    6.88
   9 -13  -4    7.84    6.78
   8 -13  -4   -4.74    5.35
  -8 -13   4    0.27    3.26
  -7 -13   4   12.51    6.08
   7 -13  -4    6.98    5.14
  -6 -13   4    1.55    3.17
   6 -13  -4    0.33    4.26
  -5 -13   4    1.52    3.78
   5 -13  -4    3.75    5.92
  -4 -13   4    4.78    3.99
   4 -13  -4    7.16    4.99
   3 -13  -4    8.11    6.25
  -3 -13   4    5.63    4.12
  -2 -13   4    9.01    4.96
   2 -13  -4   15.83    6.77
  -1 -13   4    4.83    3.85
   1 -13  -4    9.02    6.09
   0 -13   4    6.14    3.36
   0 -13  -4    2.40    4.03
  -1  13  -4   -2.04    4.42
   1 -13   4    8.57    4.54
  -1 -13  -4    7.40    7.52
  -2 -13  -4   -0.04    3.61
  -2  13  -4    0.62    4.95
   2 -13   4   -5.13    4.59
  -3 -13  -4    4.45    5.95
   3 -13   4    2.05    3.19
  -3  13  -4   21.05    8.72
  -4 -13  -4    0.49    4.50
   4 -13   4   -1.14    3.28
  -4  13  -4    8.48    6.54
   5 -13   4    8.24    4.43
  -5 -13  -4    2.66    5.26
  -5  13  -4   -9.05    6.40
   6 -13   4    2.46    3.11
  -6  13  -4    3.08    4.77
  -6 -13  -4   -0.51    5.48
  -7  13  -4   -7.45    5.70
  -7 -13  -4   -0.43    4.63
   7 -13   4    3.89    3.45
  -8 -13  -4    1.11    5.48
  -8  13  -4    0.24    3.70
  -9 -13  -4    5.65    4.58
  -9  13  -4   11.28    6.59
 -10 -13  -4   -7.01    6.27
 -10  13  -4    0.70    3.28
 -11 -13  -4   -9.57    7.33
 -11  13  -4   -0.18    5.04
 -12 -13  -4    5.00    5.22
 -13 -13  -4    4.85    6.87
 -14 -13  -4  -10.13    7.84
 -15 -13  -4    0.52    5.93
 -16 -13  -4    1.42    5.85
 -17 -13  -4   12.48   12.53
 -18 -13  -4   -1.42    5.83
 -19 -13  -4   -5.32   10.38
 -22 -14   4  -24.69   12.12
 -21 -14   4  -12.19    9.00
 -20 -14   4    5.06    5.54
 -19 -14   4   -6.31    6.59
 -18 -14   4  -16.35    9.09
 -17 -14   4    1.63    6.30
  17 -14  -4   -1.27    4.43
  16 -14  -4    8.25    6.84
 -16 -14   4   16.15   11.55
 -15 -14   4   -1.99    4.63
  15 -14  -4    1.31    3.76
  14 -14  -4   -2.91    5.24
 -14 -14   4    0.08    3.58
  13 -14  -4   -3.49    5.06
 -13 -14   4   21.97   10.01
  12 -14  -4   -1.52    3.71
 -12 -14   4    6.56    5.05
  11 -14  -4   -5.96    7.15
 -11 -14   4  -19.06    7.82
 -10 -14   4    2.49    6.10
  10 -14  -4    2.43    4.54
  -9 -14   4   -4.95    4.49
   9 -14  -4   -3.36    5.45
  -8 -14   4   10.29    6.54
   8 -14  -4    5.33    5.80
  -7 -14   4    4.00    4.28
   7 -14  -4   -5.56    3.68
  -6 -14   4    0.83    3.12
   6 -14  -4    0.23    6.20
  -5 -14   4   -1.61    3.60
   5 -14  -4   -6.85    5.55
  -4 -14   4    5.97    4.91
   4 -14  -4   -2.42    4.69
   3 -14  -4    0.85    5.33
  -3 -14   4    7.79    3.57
  -2 -14   4   18.85    7.33
   2 -14  -4  -11.81    6.68
   1 -14  -4    6.76    5.83
  -1 -14   4   -4.60    5.28
   0 -14  -4   -0.07    4.39
   0 -14   4   12.58    5.07
   1 -14   4   -5.56    4.52
  -1 -14  -4   -0.95    4.00
   2 -14   4    3.75    3.56
  -2 -14  -4   -3.37    6.01
  -3 -14  -4    3.08    3.50
   3 -14   4   -1.13    3.64
  -3  14  -4   -2.81    5.10
  -4 -14  -4    2.58    4.48
   4 -14   4   -0.16    2.88
  -4  14  -4   -7.51    6.56
   5 -14   4    4.03    4.49
  -5 -14  -4   -7.48    6.11
  -5  14  -4   -6.26    6.12
   6 -14   4    8.60    4.74
  -6 -14  -4    5.34    4.50
  -7 -14  -4    6.37    6.92
   7 -14   4   -0.15    3.47
  -8 -14  -4   -0.79    4.68
  -9 -14  -4   -4.26    7.19
 -10 -14  -4   22.00   11.28
 -11 -14  -4   -3.00    5.41
 -12 -14  -4   11.43   10.97
 -13 -14  -4    0.93    5.23
 -14 -14  -4   10.70    9.10
 -15 -14  -4    8.55   10.58
 -16 -14  -4   -4.45    6.84
 -17 -14  -4    8.81    8.64
 -20 -15   4   -4.60    6.27
 -19 -15   4  -20.19   10.31
 -18 -15   4    4.01    6.13
 -17 -15   4    5.52    7.62
  17 -15  -4    9.64    6.73
  16 -15  -4   17.44    8.49
 -16 -15   4  -13.33    8.09
  15 -15  -4   -7.57    6.12
 -15 -15   4    6.42    6.02
  14 -15  -4    1.46    3.88
 -14 -15   4    2.04    3.75
  13 -15  -4    1.88    3.89
 -13 -15   4    2.11    6.55
  12 -15  -4    0.60    3.68
 -12 -15   4  -13.46    6.94
  11 -15  -4    3.25    3.74
 -11 -15   4   11.78    8.08
  10 -15  -4  -14.00    7.30
 -10 -15   4   11.28    7.90
  -9 -15   4    3.73    5.34
   9 -15  -4    6.94    4.60
  -8 -15   4    0.07    3.69
   8 -15  -4   -4.79    5.06
  -7 -15   4   -8.25    5.59
   7 -15  -4    4.91    5.67
   6 -15  -4    0.01    6.55
  -6 -15   4    0.35    3.56
  -5 -15   4   -1.38    3.65
   5 -15  -4    5.82    5.96
   4 -15  -4    1.39    3.44
  -4 -15   4    6.27    4.11
  -3 -15   4    3.93    4.72
   3 -15  -4   -0.26    3.63
  -2 -15   4   -0.60    3.21
   2 -15  -4    3.49    4.61
  -1 -15   4   21.25    8.87
   1 -15  -4    6.02    5.89
   0 -15  -4   -1.77    3.11
   0 -15   4    8.58    5.50
   1 -15   4    0.80    3.24
  -1 -15  -4  -12.00    7.16
   2 -15   4   -3.64    3.57
  -2 -15  -4    1.89    5.12
  -3 -15  -4    3.11    4.03
   3 -15   4    9.37    4.53
   4 -15   4   -4.49    5.53
  -4 -15  -4   -1.62    5.54
   5 -15   4  -11.95    5.45
  -5 -15  -4    1.14    5.10
   6 -15   4   -0.81    3.44
  -6 -15  -4    2.63    4.16
  -7 -15  -4   -0.97    5.44
  -8 -15  -4    6.12    6.61
  -9 -15  -4   -6.53    6.59
 -10 -15  -4   25.38   11.40
 -11 -15  -4    3.13    6.99
 -12 -15  -4   -0.58    5.79
 -13 -15  -4    0.77    5.25
 -14 -15  -4   -3.46    5.86
  15 -16  -4  -21.14    9.26
  14 -16  -4   15.38    8.50
  13 -16  -4   17.61    9.56
  12 -16  -4    1.85    5.60
  11 -16  -4    4.25    4.54
  10 -16  -4   12.00    7.48
   9 -16  -4   14.45    7.32
   8 -16  -4  -13.26    7.52
   7 -16  -4    3.48    6.25
   6 -16  -4   -1.19    5.67
   5 -16  -4  -10.03    6.65
   4 -16  -4    4.47    4.04
   3 -16  -4    7.27    6.46
   2 -16  -4   -9.55    6.67
   1 -16  -4  -14.05    7.64
   0 -16  -4   -3.38    5.19
  -1 -16  -4  -16.67    8.19
  -2 -16  -4   -7.17    6.06
  -3 -16  -4  -13.54    7.79
  -4 -16  -4   -9.07    6.88
  -5 -16  -4    1.36    6.59
  -6 -16  -4   -1.22    7.13
  -7 -16  -4    2.31    3.83
  -8 -16  -4  321.87   35.58
  -9 -16  -4    5.15    7.56
 -10 -16  -4    4.22    8.37
 -11 -16  -4    2.98    4.45
 -12 -16  -4  -18.27    9.92
  12 -17  -4   -6.81    6.32
  11 -17  -4   -9.29    6.84
  10 -17  -4    4.20    4.67
   9 -17  -4    1.89    6.90
   8 -17  -4    6.88    6.82
   7 -17  -4   16.77   10.20
   6 -17  -4    9.73    6.29
   5 -17  -4    0.90    3.35
   4 -17  -4    0.47    9.64
   3 -17  -4    7.66    9.77
   2 -17  -4   -4.73    5.49
   1 -17  -4  -11.64    7.37
   0 -17  -4  -10.77    7.14
  -1 -17  -4   -4.50    5.10
  -2 -17  -4   -3.51    5.17
  -3 -17  -4    6.48    6.54
  -4 -17  -4  -11.26    7.40
  -5 -17  -4    8.47    8.26
  -6 -17  -4  -12.80    8.02
  -7 -17  -4    6.19    7.39
  -8 -17  -4  -11.25    7.78
   6 -18  -4   -6.25    6.22
   5 -18  -4   11.39    7.03
   4 -18  -4  -13.66    8.15
   3 -18  -4   -7.72    6.65
   2 -18  -4    7.23    6.53
   1 -18  -4    0.45    7.44
   0 -18  -4  -17.76    9.07
  -1 -18  -4    7.39    5.96
  -2 -18  -4    2.05    4.85
 -30   0   5   15.03   17.78
 -29   0   5  -20.21   13.85
 -28   0   5   24.03   17.00
 -27   0   5   -6.13   12.00
 -26   0   5   -0.03    7.37
 -25   0   5   10.06    9.77
 -24   0   5  -14.27   10.47
 -23   0   5   -6.92    9.77
 -22   0   5    0.18    8.30
 -21   0   5    9.26    9.85
 -20   0   5   -3.87    4.55
 -20   0   5    2.26    8.70
 -19   0   5   -0.51    2.49
 -19   0   5   -4.06    9.13
 -18   0   5    2.39    5.43
 -18   0   5    0.72    2.34
 -17   0   5    0.12    2.62
 -17   0   5   -9.56    9.02
 -16   0   5   -0.21    2.37
 -16   0   5   10.47    7.42
 -15   0   5   -1.88    3.64
 -15   0   5    1.38    6.20
 -14   0   5    2.22    5.49
 -13   0   5   -1.79    4.23
 -12   0   5   -1.49    2.85
 -12   0   5    7.66    5.56
 -11   0   5    0.44    1.83
 -11   0   5    3.44    4.15
 -10   0   5    1.63    2.68
 -10   0   5   -1.38    4.32
  -9   0   5    0.86    1.85
  -9   0   5    2.36    3.80
  -8   0   5   -0.66    1.70
  -8   0   5   -2.70    3.65
   7   0  -5    1.87    2.30
  -7   0   5   -0.71    1.97
  -7   0   5    3.15    3.86
   6   0  -5    1.73    2.56
  -6   0   5    0.48    1.67
  -6   0   5    1.09    3.40
  -5   0   5    0.92    1.64
   5   0  -5    1.07    1.95
   4   0  -5    0.25    1.62
  -4   0   5   -0.72    1.82
   3   0  -5   -0.58    2.01
  -3   0   5   -1.02    1.75
  -2   0   5   -0.71    1.80
   2   0  -5   -2.07    1.90
  -1   0   5    0.14    1.95
   1   0  -5   -0.52    1.80
   0   0   5    1.99    2.11
   0   0  -5   -0.09    1.89
  -1   0  -5    0.50    1.77
   1   0   5   -2.40    3.18
   2   0   5    2.05    1.57
  -2   0  -5   -1.00    2.38
   2   0   5   -0.90    2.44
   3   0   5    2.27    1.81
  -3   0  -5    3.21    3.18
  -4   0  -5    0.56    3.55
   4   0   5    1.64    1.93
   5   0   5   -1.43    2.43
  -5   0  -5    1.43    1.86
  -5   0  -5   -1.44    3.71
  -6   0  -5    2.26    2.35
   6   0   5    2.90    3.03
   7   0   5   -0.06    2.44
  -7   0  -5   -2.20    2.45
   8   0   5   -1.96    2.79
  -8   0  -5    3.07    3.63
  -9   0  -5   -2.12    3.86
   9   0   5    0.36    3.03
 -10   0  -5   -1.46    3.13
  10   0   5   -0.11    2.61
 -11   0  -5   -1.14    3.56
  11   0   5   -0.35    3.38
 -12   0  -5   -3.99    5.20
  12   0   5    1.00    2.75
 -13   0  -5   -3.30    3.91
  13   0   5   -1.32    4.02
 -14   0  -5   -2.29    5.64
  14   0   5   -1.21    3.08
 -15   0  -5    9.07    6.24
 -16   0  -5   -0.27    6.40
 -17   0  -5   -1.61    6.41
 -18   0  -5    0.51    4.26
 -19   0  -5   -2.43    7.18
 -20   0  -5    3.55    4.73
 -21   0  -5    3.92    4.30
 -22   0  -5    5.13    5.47
 -23   0  -5   -9.31    8.83
 -24   0  -5    7.52    9.75
 -25   0  -5    6.45    7.04
 -26   0  -5   11.23    9.22
 -27   0  -5   -1.90    6.65
 -28   0  -5   -5.45    9.71
 -29   0  -5   -3.33    7.26
 -30   0  -5    2.89    5.51
 -31   0  -5    1.59    7.77
 -32   0  -5  -21.18   13.00
 -30   1   5   43.15   23.73
 -30  -1   5    8.61    8.75
 -29  -1   5   10.68   12.61
 -29   1   5  -14.56   15.57
 -28  -1   5    8.05   11.05
 -28   1   5    2.29    8.77
 -27  -1   5   -8.88   13.56
 -27   1   5   -4.95    8.50
 -26  -1   5   16.45   11.27
 -26   1   5   24.62   13.99
 -25  -1   5   -5.34   10.72
 -25   1   5   16.55   11.81
 -24  -1   5    3.35    6.73
 -24   1   5   26.96   14.57
 -23  -1   5   -5.31    7.57
 -23   1   5  -13.61    8.70
 -22   1   5   67.90   19.20
 -22  -1   5   69.90   20.52
 -21  -1   5   13.99   11.08
 -21   1   5    5.86    7.59
 -20   1   5    5.50    3.50
 -20  -1   5    7.21   10.41
 -20   1   5   26.00   11.04
 -20  -1   5    9.56    3.37
 -19   1   5   13.51    5.84
 -19  -1   5    4.83    6.63
 -19   1   5   -7.16    9.73
 -19  -1   5   -1.09    3.02
 -18   1   5   66.23   11.55
 -18   1   5   82.58   18.90
 -18  -1   5   89.36   20.78
 -18  -1   5   77.95   12.23
 -17   1   5    0.62    1.98
 -17  -1   5   -6.58    7.68
 -17   1   5   -0.61    5.96
 -17  -1   5    1.26    1.81
 -16   1   5   93.29   12.91
 -16   1   5   77.38   16.85
 -16  -1   5  112.50   21.28
 -16  -1   5  106.77   13.37
 -15  -1   5   14.00    7.18
 -15   1   5   18.63    9.54
 -15  -1   5   21.36    5.72
 -14  -1   5   40.29   12.73
 -14   1   5   48.99   14.28
 -13  -1   5   10.09    7.18
 -13   1   5   16.32    9.05
 -12  -1   5   57.34    8.58
 -12  -1   5   63.66   13.41
 -12   1   5   92.47   16.36
 -11  -1   5   18.40    4.76
 -11  -1   5   19.42    7.99
 -11   1   5   22.71    7.68
 -10  -1   5   94.32   10.14
 -10  -1   5   81.91   14.35
   9  -1  -5   33.92    6.47
  -9  -1   5   40.03    6.24
  -9  -1   5   35.11    9.58
   8  -1  -5  114.11   10.86
  -8  -1   5  124.96   10.59
  -8  -1   5  110.71   15.36
  -7  -1   5    5.37    2.33
   7  -1  -5    7.86    3.27
  -7  -1   5    9.68    5.04
  -6  -1   5   20.84    4.03
  -6  -1   5   22.92    6.39
   6  -1  -5   20.76    4.81
   5   1  -5   36.48    4.68
   5  -1  -5   45.52    6.35
  -5  -1   5   34.33    4.85
  -5  -1   5   26.68    7.29
   4   1  -5   94.13    7.11
  -4  -1   5   90.43    7.50
  -4  -1   5   95.04   11.06
   4  -1  -5   84.18    8.40
   3   1  -5   18.90    3.29
   3  -1  -5   17.84    4.15
  -3  -1   5   23.59    3.56
  -3  -1   5   22.79    5.10
   2   1  -5   50.77    4.95
  -2  -1   5   43.84    4.88
  -2  -1   5   54.08    6.65
   2  -1  -5   45.97    6.28
   1  -1  -5   37.44    5.69
   1   1  -5   41.27    4.32
  -1  -1   5   33.45    4.28
  -1  -1   5   39.38    4.68
   0  -1  -5  104.30    9.57
   0  -1   5   94.32    7.70
   0   1  -5   96.78    6.91
   1  -1   5   32.48    4.94
  -1  -1  -5   43.33    6.70
   1   1   5   37.50    7.18
  -1   1  -5   40.61    4.80
  -2  -1  -5  100.84   10.58
   2   1   5   95.60   11.40
  -2   1  -5   98.40    8.55
  -3   1  -5   25.37    4.94
   3   1   5   25.89    4.90
   3   1   5   23.02    5.93
  -3  -1  -5   27.96    6.21
  -4   1  -5   28.14    6.11
  -4   1  -5   29.94    3.62
   4   1   5   26.69    5.50
  -4  -1  -5   36.45    8.08
   5   1   5    7.55    3.59
  -5   1  -5    8.22    2.85
  -5  -1  -5   15.34    4.97
   6   1   5   30.87    6.95
  -6   1  -5   22.68    4.73
  -6  -1  -5   23.58    5.64
  -6  -1  -5   26.68    7.28
  -7  -1  -5   16.83    6.67
   7   1   5   13.93    4.98
  -7   1  -5   10.97    4.19
   8   1   5   64.55   11.05
  -8   1  -5   69.28   10.16
  -8  -1  -5   69.00   10.19
  -9  -1  -5   17.36    6.35
   9   1   5   19.84    6.90
  -9   1  -5    7.04    4.06
  10   1   5   38.74    9.57
 -10  -1  -5   33.46    8.31
 -10   1  -5   26.10    6.91
 -11  -1  -5    4.17    4.13
 -11   1  -5    3.20    3.40
  11   1   5    4.78    4.39
  12   1   5   30.91    8.90
 -12  -1  -5   31.40    8.86
 -12   1  -5   26.69    7.85
 -13   1  -5    6.83    6.35
 -13  -1  -5    4.61    4.61
  13   1   5    0.01    4.67
 -14  -1  -5   15.55    7.23
 -14   1  -5    3.95    3.76
 -15   1  -5   -0.29    3.52
 -15  -1  -5    2.20    4.34
 -16  -1  -5   19.52    8.35
 -16   1  -5   12.59    6.23
  16   1   5   16.60    8.90
 -17  -1  -5   11.72    7.39
 -17   1  -5    5.93    4.19
  17   1   5    2.44    4.82
 -18  -1  -5    3.95    6.05
  18   1   5   22.42   10.83
 -18   1  -5   13.31    7.75
 -19  -1  -5    2.42    5.53
  19   1   5    3.28    5.22
 -19   1  -5   -2.75    4.85
 -20   1  -5    4.42    6.43
 -20  -1  -5   -1.97    4.88
  20   1   5    6.48    7.88
 -21   1  -5   28.88   11.21
 -21  -1  -5   36.88   14.01
 -22  -1  -5   28.25   11.58
 -22   1  -5   22.65   11.04
 -23  -1  -5   24.73   13.73
 -23   1  -5   16.75   10.56
 -24  -1  -5    4.63    5.30
 -24   1  -5   13.07    9.40
 -25   1  -5  -11.15   10.10
 -25  -1  -5    3.59    6.57
 -26   1  -5    2.38    5.48
 -26  -1  -5    3.88    7.17
 -27  -1  -5    5.96    7.97
 -27   1  -5   -0.91    6.33
 -28   1  -5   10.97    7.03
 -28  -1  -5   20.53   14.57
 -29  -1  -5    6.98   10.08
 -29   1  -5    3.57    8.61
 -30   1  -5   17.68   15.22
 -30  -1  -5   -2.82    9.91
 -31  -1  -5    8.04    9.81
 -31   1  -5   -4.51   10.09
 -32   1  -5  -32.76   15.63
 -30  -2   5  -15.68   17.85
 -30   2   5   26.34   16.87
 -29   2   5   23.80   11.47
 -29  -2   5   29.87   15.42
 -28  -2   5   -7.39   13.62
 -28   2   5    8.41    9.50
 -27  -2   5   36.63   18.73
 -27   2   5    2.32    9.82
 -26  -2   5    7.18   10.12
 -26   2   5   39.79   17.46
 -25  -2   5   75.38   23.05
 -25   2   5   77.83   23.55
 -24  -2   5   26.56   15.54
 -24   2   5   14.43   10.90
 -23  -2   5   60.11   20.01
 -23   2   5   83.04   23.21
 -22  -2   5   -6.74   10.51
 -22   2   5    5.46    6.76
 -21   2   5   58.24   19.36
 -21  -2   5   30.60   13.84
 -20   2   5   21.08    7.99
 -20  -2   5   21.47   12.02
 -20   2   5   10.85    7.80
 -19   2   5  106.82   15.42
 -19  -2   5  120.78   24.24
 -19   2   5  100.71   21.90
 -18  -2   5    4.91    4.96
 -18   2   5    2.22    2.80
 -18   2   5    2.68    7.18
 -17  -2   5  131.19   24.49
 -17   2   5  158.61   17.58
 -17   2   5  140.53   24.35
 -16  -2   5   31.16   11.19
 -16   2   5   23.44    9.93
  16   2  -5   14.26    7.81
 -15  -2   5   85.68   19.02
 -15   2   5  127.68   22.14
 -14  -2   5    4.15    6.02
 -14   2   5   -3.20    8.35
 -13  -2   5  108.63   19.61
 -12  -2   5   -2.44    6.17
  12   2  -5    7.83    6.09
  11   2  -5   79.89   14.76
 -11  -2   5   70.00   14.86
  11  -2  -5   64.83    9.53
  10  -2  -5   31.02    6.57
 -10  -2   5   27.70    9.03
  10   2  -5   19.91    7.14
   9  -2  -5  161.24   14.18
  -9  -2   5  160.91   12.17
  -9  -2   5  161.47   19.80
   9   2  -5  145.55   17.93
   8  -2  -5   34.65    6.51
  -8  -2   5   27.99    7.76
   8   2  -5   31.41    8.27
  -8  -2   5   34.38    5.27
   7  -2  -5   60.13    8.35
  -7  -2   5   61.83    6.68
  -7  -2   5   61.05   11.62
   7   2  -5   56.94   10.17
  -6  -2   5    3.86    1.62
  -6  -2   5    9.66    5.14
   6  -2  -5    6.89    3.85
   6   2  -5    6.43    4.26
  -5  -2   5  108.04    7.74
   5  -2  -5  110.15   10.81
  -5  -2   5  119.53   13.54
   5   2  -5  111.29   12.83
  -4  -2   5   53.90    5.04
  -4  -2   5   57.99    8.85
   4  -2  -5   56.95    7.53
   4   2  -5   46.11    7.38
  -3  -2   5  168.80   13.17
  -3  -2   5  167.26    8.22
   3   2  -5  159.30   12.49
   3  -2  -5  169.31   12.82
   2   2  -5   17.91    2.32
   2   2  -5   19.00    4.19
  -2  -2   5   19.75    4.08
  -2  -2   5   19.74    2.59
   2  -2  -5   20.08    4.79
   1   2  -5  100.68    5.13
  -1  -2   5  105.55    7.49
   1   2  -5  100.54    7.70
   1  -2  -5  100.75   10.02
  -1  -2   5   92.69    5.63
   0  -2  -5    7.60    4.21
   0  -2   5    5.79    1.85
   0   2  -5    6.16    1.42
  -1   2  -5  246.39    9.43
  -1  -2  -5  259.05   17.06
  -2  -2  -5  192.60   15.44
  -2   2  -5  199.10   10.38
  -3  -2  -5   85.10   11.74
   3   2   5   78.39    9.71
  -3   2  -5   82.60    7.81
  -4  -2  -5    5.59    3.05
   4   2   5    7.97    4.09
  -4   2  -5    5.84    2.03
  -5  -2  -5   72.01   11.56
   5   2   5   65.49    9.83
  -5   2  -5   62.65    6.39
   6   2   5    2.11    3.12
  -6  -2  -5    1.29    3.42
  -6   2  -5   -3.07    3.01
  -7  -2  -5  159.85   15.73
  -7   2  -5  154.90   12.83
   7   2   5  148.50   16.48
  -7  -2  -5  158.30   18.33
  -8  -2  -5   41.39    8.89
  -8  -2  -5   46.16   10.52
   8   2   5   64.36   11.55
  -8   2  -5   55.05    8.70
  -9   2  -5  153.23   15.19
   9   2   5  160.85   18.63
  -9  -2  -5  148.14   16.41
  10   2   5   48.87   11.59
 -10  -2  -5   41.24    9.52
 -10   2  -5   37.29    8.34
 -11   2  -5  119.22   15.40
 -11  -2  -5  112.57   15.88
  11   2   5   87.32   15.26
 -12   2  -5   14.16    5.50
  12   2   5   17.62    8.01
 -12  -2  -5   11.12    5.13
 -13  -2  -5   75.61   14.29
 -13   2  -5   86.24   14.47
 -14  -2  -5    0.98    4.56
 -14   2  -5   -0.98    4.07
 -15  -2  -5   59.26   13.29
 -15   2  -5   49.77   11.66
  15   2   5   75.75   16.13
  16   2   5   -7.28    5.83
 -16  -2  -5   -0.48    4.20
 -16   2  -5   -0.50    4.69
 -17  -2  -5   45.04   12.90
 -17   2  -5   43.83   13.09
  17   2   5   41.58   13.07
 -18   2  -5   -0.12    5.73
 -18  -2  -5   -3.25    6.43
  18   2   5    0.13    4.67
 -19   2  -5    5.37    7.27
  19   2   5   -4.34    7.62
 -19  -2  -5    3.23    4.65
 -20   2  -5   34.70   12.03
 -20  -2  -5   51.22   14.44
  20   2   5   57.46   16.90
 -21  -2  -5   19.93   10.42
 -21   2  -5   50.23   14.88
  21   2   5   48.49   14.67
 -22  -2  -5   16.69   10.31
 -22   2  -5    4.02    6.98
 -23  -2  -5   48.20   15.82
 -23   2  -5   54.58   16.23
 -24   2  -5   23.08   11.79
 -24  -2  -5   28.41   13.66
 -25  -2  -5   33.13   13.61
 -25   2  -5   33.60   15.10
 -26   2  -5    3.06    9.78
 -26  -2  -5   22.11   12.11
 -27   2  -5   25.24   11.91
 -27  -2  -5   10.07    6.85
 -28  -2  -5   -0.82    6.95
 -28   2  -5    6.61   12.19
 -29   2  -5   -4.26    8.43
 -29  -2  -5   13.63   10.83
 -30   2  -5   -4.33   10.81
 -30  -2  -5   28.55   14.86
 -31  -2  -5    3.93    7.31
 -31   2  -5   23.07   13.18
 -32   2  -5   -5.10    6.10
 -30  -3   5   21.31   12.86
 -30   3   5   16.86   11.74
 -29  -3   5   40.96   26.29
 -29   3   5   38.08   20.43
 -28  -3   5   34.62   19.74
 -28   3   5   10.65   11.79
 -27   3   5    0.20    7.06
 -27  -3   5   26.44   15.56
 -26  -3   5   34.31   16.58
 -26   3   5   27.14   14.92
 -25   3   5   56.17   19.51
 -25  -3   5   51.19   20.30
 -24   3   5   98.01   25.75
 -24  -3   5  128.83   28.44
 -23  -3   5   24.45   13.81
 -23   3   5   13.16   15.80
 -22   3   5   23.03   11.64
 -22  -3   5   27.56   15.11
 -21  -3   5   34.58   12.04
 -21   3   5   33.72   14.10
 -20   3   5   78.03   19.13
 -20  -3   5   85.46   21.73
 -19   3   5   41.43    9.65
 -19  -3   5   49.38   16.15
 -19   3   5   35.73   13.86
  19   3  -5   48.92   16.23
 -18   3   5  126.77   16.81
  18   3  -5  133.17   23.89
 -18   3   5  139.76   25.73
 -18  -3   5  117.53   23.05
 -17   3   5   80.85   12.68
 -17  -3   5   73.76   18.61
  17   3  -5   94.25   19.85
 -17   3   5   72.89   17.89
 -16  -3   5   56.72   15.67
  16   3  -5   66.77   16.33
 -15  -3   5   17.48   10.57
  15   3  -5   16.09    7.50
 -14  -3   5  102.16   19.72
  14   3  -5  109.78   19.26
 -13  -3   5   37.33   11.52
  13   3  -5   50.15   12.60
 -12  -3   5  131.18   20.62
  12   3  -5  132.54   20.07
  12  -3  -5  132.66   14.10
  11  -3  -5   39.33    7.63
 -11  -3   5   35.92   10.42
  11   3  -5   31.83   10.39
  10  -3  -5   44.84    8.08
 -10  -3   5   37.57   10.22
  10   3  -5   47.86   11.67
  -9  -3   5   51.34   11.83
   9  -3  -5   40.87    7.68
   9   3  -5   50.53   11.61
   8  -3  -5   21.11    5.65
  -8  -3   5   15.02    7.03
   8   3  -5   13.67    6.22
   7  -3  -5    5.86    3.17
  -7  -3   5    1.80    4.21
   7   3  -5   -1.00    3.14
   6   3  -5   59.43   10.77
  -6  -3   5   47.85    9.28
   6  -3  -5   71.50    9.42
  -5  -3   5    2.07    3.78
   5   3  -5   -2.96    4.21
   5  -3  -5   -0.83    3.17
  -5  -3   5    1.12    1.11
  -4  -3   5  156.21    7.68
   4  -3  -5  159.52   13.59
  -4  -3   5  157.79   14.55
   4   3  -5  140.79   14.31
  -3  -3   5  124.81    6.00
   3   3  -5  121.33   12.10
   3  -3  -5  119.83   11.60
  -3  -3   5  115.19   11.34
   2   3  -5  147.67   12.69
   2  -3  -5  144.30   12.92
  -2  -3   5  166.04   12.36
   1   3  -5    1.16    2.46
   1  -3  -5   -1.83    2.90
   0   3  -5  281.08   13.67
   0  -3  -5  278.44   18.49
  -1   3  -5   30.47    4.15
  -1  -3  -5   30.84    6.88
  -2  -3  -5  236.68   18.37
  -2   3  -5  211.49    8.96
  -3  -3  -5  178.11   17.15
   4   3   5  187.69   16.94
  -4  -3  -5  178.89   17.48
   5   3   5   15.59    4.53
  -5  -3  -5   14.96    6.12
  -6  -3  -5   73.35   12.27
   6   3   5   84.24   12.50
   7   3   5  198.70   19.81
  -7  -3  -5  188.99   20.47
   8   3   5  165.40   19.29
  -8   3  -5  161.88   14.68
  -8  -3  -5  168.37   19.85
  -9  -3  -5   93.74   16.27
   9   3   5   85.40   14.55
  -9   3  -5  102.81   12.61
  -9  -3  -5  115.87   15.88
 -10   3  -5  155.61   16.07
  10   3   5  177.40   21.53
 -10  -3  -5  157.76   18.37
 -10  -3  -5  158.52   21.38
 -11  -3  -5   55.96   11.81
 -11   3  -5   59.24   10.78
  11   3   5   58.01   13.35
 -12  -3  -5   98.08   15.80
 -12   3  -5   88.17   13.51
 -13  -3  -5   13.03    6.41
 -13   3  -5   16.45    6.53
 -14   3  -5   73.26   14.02
 -14  -3  -5   75.69   14.92
  14   3   5   59.69   14.28
 -15  -3  -5    1.19    4.81
  15   3   5   -0.15    5.69
 -15   3  -5    8.98    6.61
 -16  -3  -5   44.96   12.76
 -16   3  -5   27.86    9.21
  16   3   5   28.92   10.99
 -17   3  -5   17.63    6.97
  17   3   5   14.39    7.74
 -17  -3  -5   13.24    7.28
 -18   3  -5    2.46    5.31
 -18  -3  -5    4.05    6.56
  18   3   5   -1.50    6.97
 -19  -3  -5    9.64    6.96
 -19   3  -5    7.10    7.31
  19   3   5    9.31    9.75
 -20   3  -5   36.07   13.26
 -20  -3  -5   39.39   13.65
  20   3   5   53.46   15.70
 -21  -3  -5   25.60   12.48
 -21   3  -5   39.74   14.28
 -22  -3  -5   21.92    8.11
 -22   3  -5   35.04   12.87
 -23  -3  -5   10.81    8.06
 -23   3  -5   22.19    9.60
 -24   3  -5    9.39    5.94
 -24  -3  -5   31.90   11.92
 -25   3  -5    4.14    7.44
 -25  -3  -5   11.36    9.31
 -26   3  -5   44.41   16.00
 -26  -3  -5   53.22   18.43
 -27   3  -5    7.14    6.40
 -27  -3  -5   26.53   14.61
 -28  -3  -5   48.53   18.13
 -28   3  -5    9.43    6.80
 -29  -3  -5  -14.59    6.10
 -29   3  -5   13.01   11.87
 -30  -3  -5    3.16    9.67
 -30   3  -5   -5.41    9.38
 -31   3  -5  -19.49   12.40
 -30   4   5   28.72   13.67
 -29  -4   5    0.63    8.93
 -29   4   5   -1.81   12.32
 -28  -4   5   24.69   19.00
 -28   4   5   31.32   16.63
 -27  -4   5    4.41    9.03
 -27   4   5   34.04   19.00
 -26  -4   5   30.21   15.76
 -26   4   5   12.61    7.08
 -25  -4   5    7.90    9.54
 -25   4   5   20.46   13.84
 -24  -4   5   73.45   22.57
 -24   4   5   65.12   21.32
 -23  -4   5   12.10    9.71
 -23   4   5   16.50   13.25
 -22  -4   5   81.65   21.46
 -22   4   5   59.57   19.85
 -21  -4   5   41.77   16.19
 -21   4   5   57.09   18.81
 -20  -4   5   56.73   18.31
 -20   4   5   88.82   23.39
 -19  -4   5   60.60   17.43
  19   4  -5   52.82   16.08
 -19   4   5   59.64   18.30
 -18   4   5  147.25   18.28
 -18  -4   5  151.39   26.49
  18   4  -5  123.62   23.77
 -17   4   5   85.58   14.04
 -17  -4   5   56.21   17.34
  17   4  -5   69.91   18.21
 -16   4   5  112.78   15.47
 -16  -4   5  108.32   21.85
  16   4  -5  102.63   20.38
 -15  -4   5   54.86   15.65
  15   4  -5   72.38   17.12
 -14  -4   5  143.80   22.63
  14   4  -5  147.84   23.90
  13  -4  -5   48.75    9.78
 -13  -4   5   44.57   12.19
  13   4  -5   54.82   14.78
  12  -4  -5  164.99   16.44
 -12  -4   5  165.92   22.43
  12   4  -5  169.49   23.94
  11  -4  -5  104.18   12.98
 -11  -4   5  102.12   17.67
  11   4  -5   82.95   15.67
  10  -4  -5  139.84   14.69
  10   4  -5  126.75   19.05
 -10  -4   5  117.13   18.16
   9  -4  -5    2.13    3.15
  -9  -4   5    3.93    4.95
   9   4  -5   -1.88    5.02
   8  -4  -5   25.10    6.00
   8   4  -5   34.41   10.48
  -8  -4   5   21.48    7.18
   7   4  -5   18.82    7.38
  -7  -4   5   15.44    6.41
   7  -4  -5   17.25    5.05
  -6  -4   5   24.85    7.42
   6  -4  -5   21.29    5.54
   6   4  -5   20.59    7.23
   5  -4  -5   31.95    7.21
   5   4  -5   28.84    7.35
  -5  -4   5   31.60    7.96
  -4  -4   5    0.36    3.41
   4   4  -5    1.15    3.27
   4  -4  -5    2.80    3.37
   3  -4  -5   94.05   11.06
  -3  -4   5  118.26   12.40
   3   4  -5   92.89   11.97
   2  -4  -5   47.44    8.13
   2   4  -5   46.64    7.80
   1   4  -5  220.67   15.68
   1  -4  -5  217.74   17.07
   0   4  -5  150.04   11.83
   0  -4  -5  149.44   14.39
  -1   4  -5   89.50    8.91
  -1  -4  -5   89.31   11.64
  -2  -4  -5  178.04   16.85
  -3   4  -5   88.82    5.06
  -3  -4  -5   96.69   13.02
  -4  -4  -5  368.62   26.17
  -4   4  -5  358.54   11.59
   4   4   5  352.79   25.56
   5   4   5   85.58   13.37
  -5  -4  -5   89.28   13.56
   6   4   5  267.59   23.82
  -6  -4  -5  269.83   24.25
  -7  -4  -5   38.84    9.50
   7   4   5   44.33   10.10
   8   4   5  139.96   18.57
  -8  -4  -5  134.32   18.56
  -9  -4  -5   59.49   13.15
   9   4   5   46.10   11.31
 -10  -4  -5   60.15   14.68
 -11  -4  -5   35.24    9.88
 -11  -4  -5   33.81   11.79
 -11   4  -5   52.10   10.73
 -12  -4  -5   30.53   10.75
 -12  -4  -5   13.83    7.57
 -12   4  -5   16.99    6.76
 -13  -4  -5   27.63    9.45
 -13  -4  -5   25.74   10.88
 -13   4  -5    9.90    4.72
  13   4   5   20.28    8.66
 -14  -4  -5   12.61    5.90
  14   4   5   12.81    7.72
 -14   4  -5    7.82    3.94
 -15  -4  -5    4.99    4.98
  15   4   5   13.79    8.01
 -15   4  -5   10.27    6.51
 -16  -4  -5   15.32    7.95
  16   4   5   40.09   13.82
 -16   4  -5   23.60    9.03
  17   4   5    9.64    6.11
 -17   4  -5   11.42    6.30
 -17  -4  -5    3.24    7.74
 -18   4  -5   -6.54    7.36
  18   4   5    5.83    4.59
 -19  -4  -5   15.62    8.83
 -19   4  -5   13.01    7.24
  19   4   5    8.11    6.63
 -20   4  -5   88.46   19.63
 -20  -4  -5   77.95   19.50
 -21  -4  -5   22.22    9.60
 -21   4  -5   14.00    8.28
 -22  -4  -5   41.32   15.20
 -22   4  -5   40.42   14.88
 -23  -4  -5   15.75    9.25
 -23   4  -5   -0.11    6.39
 -24  -4  -5   16.69   10.96
 -24   4  -5    4.73    6.57
 -25  -4  -5   16.36    9.36
 -25   4  -5   29.21   13.18
 -26  -4  -5   54.92   19.67
 -26   4  -5   35.34   14.33
 -27   4  -5   -4.30    8.13
 -27  -4  -5    3.41    9.06
 -28   4  -5   -6.98   11.62
 -28  -4  -5   -4.65   11.69
 -29  -4  -5    3.87    5.74
 -29   4  -5   -7.06   11.41
 -30  -4  -5   20.32   16.62
 -30   4  -5   35.16   16.60
 -31   4  -5    0.37    9.00
 -29   5   5   41.66   21.11
 -29  -5   5   50.36   20.06
 -28  -5   5   14.32    8.88
 -28   5   5    1.75    9.57
 -27  -5   5   71.96   23.08
 -27   5   5   64.95   23.18
 -26  -5   5   -4.83   11.11
 -26   5   5    0.53    9.96
 -25  -5   5   41.80   17.87
 -25   5   5   72.04   24.13
 -24  -5   5   32.46   17.12
 -24   5   5   15.58   12.51
 -23   5   5  138.67   30.82
 -23  -5   5  180.74   33.92
 -22  -5   5   19.18   12.95
 -22   5   5   16.30   10.58
 -21  -5   5  123.81   27.09
 -21   5   5  120.94   26.93
 -20  -5   5   -0.21    7.40
 -19  -5   5  180.72   30.41
 -18  -5   5    8.02    7.27
 -18   5   5    0.39    3.79
  18   5  -5   11.73   12.40
 -17   5   5  145.74   19.18
 -17  -5   5  150.11   26.18
  17   5  -5  152.59   26.74
 -16  -5   5   55.34   14.69
 -16   5   5   52.41   10.78
  16   5  -5   70.07   18.06
  15   5  -5  244.60   31.89
 -15   5   5  296.46   25.31
 -15  -5   5  266.19   31.94
  14  -5  -5    7.69    4.78
 -14   5   5   18.72    6.68
 -14  -5   5   -3.07    7.41
  14   5  -5   11.29    6.58
  13  -5  -5  279.05   22.52
  13   5  -5  262.75   31.74
 -13  -5   5  240.05   28.78
  12  -5  -5   14.11    5.20
 -12  -5   5   12.28    5.96
  12   5  -5   11.72    8.47
  11  -5  -5  208.10   18.81
  11   5  -5  179.78   24.43
 -11  -5   5  205.49   25.02
  10  -5  -5    0.11    3.05
 -10  -5   5   -2.65    4.47
  10   5  -5   -0.74    6.99
   9   5  -5  113.98   18.75
   9  -5  -5  133.68   14.50
  -9  -5   5  126.00   17.90
   8   5  -5   11.50    6.34
   8  -5  -5   15.67    4.90
  -8  -5   5   17.12    7.45
  -7  -5   5   80.36   13.54
   7  -5  -5   90.23   11.82
   7   5  -5   77.38   14.58
   6  -5  -5   17.95    6.18
  -6  -5   5   10.74    5.63
   6   5  -5   11.02    6.11
  -5  -5   5  133.80   15.87
   5   5  -5  132.54   16.90
   5  -5  -5  140.18   14.40
   4   5  -5    3.34    4.77
   4  -5  -5    4.68    3.93
   3   5  -5    1.41    3.29
  -3  -5   5    6.68    2.18
   3  -5  -5    7.84    4.74
   2  -5  -5   36.00    7.55
   2   5  -5   37.57    7.77
   1   5  -5  362.36   22.18
   1  -5  -5  381.09   23.94
   0  -5  -5    3.34    3.58
   0   5  -5    5.00    3.36
  -1  -5  -5  212.83   18.82
  -2  -5  -5   -0.41    3.46
  -3  -5  -5  160.16   17.90
  -3   5  -5  149.51    7.06
  -4  -5  -5   20.73    8.46
  -4   5  -5   21.32    3.49
  -5   5  -5  761.38   19.69
   5   5   5  765.05   41.64
  -5  -5  -5  725.26   39.82
   6   5   5   -1.09    3.66
  -6   5  -5   10.76    3.30
  -6  -5  -5    3.36    4.46
  -7   5  -5  101.19    8.56
  -7  -5  -5  102.70   16.61
  -8  -5  -5    4.38    6.06
  -8   5  -5    3.86    2.15
  -9   5  -5   56.06    7.23
  -9  -5  -5   49.92   12.18
 -10   5  -5    5.23    2.95
 -10  -5  -5    1.46    4.37
 -11  -5  -5   35.59   11.43
  11   5   5   28.53   11.17
 -11   5  -5   30.68    6.16
  12   5   5   19.52   16.76
 -12  -5  -5    1.57    7.26
 -12   5  -5    4.32    3.49
 -13  -5  -5   26.41    9.78
  13   5   5   35.15   12.51
 -13   5  -5   39.34    7.74
 -13  -5  -5   33.93   12.13
 -13   5  -5   38.55   10.61
 -14  -5  -5   14.50    5.11
  14   5   5   15.23    8.37
 -14  -5  -5   16.37    8.39
 -14   5  -5    7.26    5.74
 -14   5  -5   17.41    5.37
 -15  -5  -5   25.48   10.72
 -15  -5  -5   36.27   12.92
  15   5   5   17.69    7.40
 -15   5  -5   21.99    9.01
 -15   5  -5   28.98    7.35
 -16  -5  -5   55.13   14.74
  16   5   5   51.41   15.59
 -16  -5  -5   71.32   17.65
 -16   5  -5   62.26   14.01
 -16   5  -5   66.42   10.94
 -17  -5  -5   10.42    9.98
 -17  -5  -5    4.61    8.33
 -17   5  -5    2.36    3.68
  17   5   5    4.34    5.09
 -17   5  -5    6.65    6.81
 -18   5  -5   -0.29    2.59
  18   5   5    0.32    5.34
 -18   5  -5   -3.88    6.05
 -18  -5  -5    0.93    6.75
 -19  -5  -5  144.49   25.01
 -19   5  -5  114.53   21.01
 -19   5  -5  155.52   18.57
 -20   5  -5   -1.91    6.60
 -20  -5  -5   -5.74    6.56
 -20   5  -5  -10.09    6.62
 -21  -5  -5   69.91   18.37
 -21   5  -5   57.61   16.12
 -22   5  -5    2.23    5.50
 -22  -5  -5   -1.97    7.44
 -23  -5  -5   10.24    6.21
 -23   5  -5   41.66   14.73
 -24  -5  -5   -2.49    5.97
 -24   5  -5    5.46    5.39
 -25  -5  -5   11.69    7.36
 -25   5  -5   26.71   12.64
 -26  -5  -5   17.80    8.39
 -26   5  -5    3.00    7.81
 -27   5  -5   20.62   12.01
 -27  -5  -5   30.60   15.51
 -28   5  -5   15.81    9.49
 -28  -5  -5   10.43    8.02
 -29  -5  -5   23.19   14.65
 -29   5  -5   20.15   12.26
 -30   5  -5  -34.79   15.99
 -31   5  -5  -28.28   15.01
 -29   6   5   14.28   14.07
 -28  -6   5   90.28   26.64
 -28   6   5   46.86   20.23
 -27  -6   5   -8.34   13.50
 -27   6   5  -12.79   14.02
 -26  -6   5   60.19   20.31
 -26   6   5   38.88   18.71
 -25  -6   5   20.18   14.04
 -25   6   5   -1.38    8.28
 -24  -6   5   60.49   21.97
 -24   6   5   76.47   22.35
 -23   6   5   55.29   22.06
 -23  -6   5   -0.72    8.83
 -22  -6   5  158.27   30.03
 -21  -6   5    6.44    8.75
 -20  -6   5  159.47   29.26
 -19  -6   5    4.14    8.78
 -18  -6   5  185.25   29.58
  17   6  -5   22.95   14.40
 -17   6   5    9.98    6.00
 -17  -6   5   18.42    9.09
 -16   6   5  202.13   22.09
 -16  -6   5  165.12   26.47
  16   6  -5  193.95   30.49
 -15   6   5   -0.10    4.52
  15   6  -5    1.69    5.94
 -15  -6   5   -0.69    6.02
  15  -6  -5    0.06    3.44
  14  -6  -5  348.05   25.94
  14   6  -5  308.63   36.00
 -14  -6   5  350.95   36.47
 -14   6   5  359.45   28.60
  13  -6  -5   15.25    5.91
  13   6  -5   24.79    9.64
 -13   6   5   14.49    6.55
 -13  -6   5   13.78    7.26
 -12   6   5  242.34   23.11
  12   6  -5  240.62   31.06
 -12  -6   5  236.76   28.00
  12  -6  -5  263.76   22.09
  11  -6  -5   60.62   10.75
  11   6  -5   46.11   13.36
 -11  -6   5   47.34   12.74
  10  -6  -5  172.73   17.52
  10   6  -5  154.26   22.72
 -10  -6   5  174.86   22.25
  -9  -6   5   15.69    7.50
   9  -6  -5   12.60    5.96
   9   6  -5   16.32    7.53
   8  -6  -5  215.77   18.82
  -8  -6   5  218.09   22.93
   8   6  -5  203.96   24.75
  -7  -6   5   99.34   15.53
   7  -6  -5  101.96   13.39
   7   6  -5   63.66   13.44
   6  -6  -5  265.41   20.82
  -6  -6   5  259.27   23.90
   6   6  -5  241.06   24.47
   5   6  -5   55.17   11.95
   5  -6  -5   61.03   10.31
  -5  -6   5   58.87    7.92
   4   6  -5  153.48   18.05
   4  -6  -5  175.98   17.01
  -4  -6   5  174.60   11.57
   3   6  -5   37.39    8.85
  -3  -6   5   28.65    4.24
   3  -6  -5   32.19    7.86
   2  -6  -5  230.00   19.44
  -2  -6   5  224.44    8.95
   2   6  -5  220.96   19.88
  -1  -6   5   36.67    3.12
   1  -6  -5   47.58   10.11
   1   6  -5   35.76    7.87
   0   6  -5  354.24   23.47
   0  -6  -5  351.17   24.54
  -1  -6  -5   40.44    8.95
  -2   6  -5  297.57   11.15
  -2  -6  -5  316.39   24.66
  -3   6  -5   83.56    6.16
  -3  -6  -5   75.89   13.32
  -4  -6  -5  260.31   23.79
  -4   6  -5  284.31   12.08
  -5  -6  -5   43.12   10.64
  -5   6  -5   42.21    5.22
  -6   6  -5  397.68   16.42
  -6  -6  -5  451.47   33.45
  -7   6  -5   29.18    5.16
  -7  -6  -5   20.06    7.79
  -8   6  -5  130.04   10.69
   8   6   5  105.57   18.64
  -8  -6  -5  132.42   19.39
  -9   6  -5   46.03    6.89
   9   6   5   36.92   11.30
  -9  -6  -5   44.47   12.94
 -10   6  -5   86.83   10.05
 -10  -6  -5  102.12   18.60
  10   6   5   85.23   17.12
 -11   6  -5   62.02    8.84
 -11  -6  -5   47.85   13.76
  11   6   5   54.16   15.17
 -12   6  -5   60.71    8.92
  12   6   5   46.13   13.89
 -12  -6  -5   60.59   15.68
 -13   6  -5  101.54   12.23
  13   6   5  111.45   22.14
 -13  -6  -5   80.36   16.77
 -14   6  -5   37.41    7.95
 -14  -6  -5   33.80   13.11
  14   6   5   42.62   14.79
 -15   6  -5  158.68   16.27
 -15  -6  -5  147.28   23.77
 -15  -6  -5  145.72   25.15
  15   6   5  146.61   26.80
 -16   6  -5   14.60    5.49
 -16  -6  -5    5.02    5.60
  16   6   5    9.46    9.78
 -16  -6  -5   17.32   10.82
 -16   6  -5    9.17    7.31
 -17   6  -5   39.44    8.85
 -17  -6  -5   35.60   12.96
  17   6   5   54.77   17.65
 -17  -6  -5   31.09   11.71
 -17   6  -5   35.33   11.66
 -18   6  -5  143.92   17.85
 -18  -6  -5  135.95   24.35
 -18  -6  -5   99.58   22.50
 -18   6  -5  139.40   22.97
 -19   6  -5    9.41    5.85
 -19  -6  -5    0.48    6.02
 -19   6  -5   10.57    5.03
 -19  -6  -5    9.81    8.57
 -20  -6  -5   74.87   19.58
 -20  -6  -5   88.05   22.09
 -20   6  -5   82.13   19.21
 -21   6  -5   24.15   11.18
 -21  -6  -5    5.80    9.28
 -22  -6  -5   54.43   17.14
 -22  -6  -5   48.61   16.83
 -22   6  -5   50.73   15.38
 -23  -6  -5    3.25    6.14
 -23  -6  -5    6.57    7.95
 -23   6  -5    8.22    4.76
 -24  -6  -5   37.06   14.54
 -24   6  -5   26.85   14.21
 -24  -6  -5   56.45   18.77
 -25  -6  -5   23.71   12.10
 -25  -6  -5    5.73    7.74
 -25   6  -5   11.45   11.22
 -26  -6  -5   31.51   13.92
 -26   6  -5   35.27   15.05
 -27  -6  -5    6.73    6.42
 -27   6  -5   41.54   16.47
 -28  -6  -5    9.14    7.49
 -28   6  -5   34.14   18.40
 -29   6  -5   56.81   20.76
 -30   6  -5    7.02    9.41
 -28   7   5   16.40   10.96
 -27  -7   5   32.03   15.80
 -27   7   5   34.98   18.76
 -26  -7   5   23.97   15.55
 -26   7   5   16.86   15.19
 -25  -7   5   70.26   21.63
 -25   7   5   78.52   25.36
 -24  -7   5   44.98   19.32
 -24   7   5   25.04   14.54
 -23  -7   5  100.34   24.16
 -22  -7   5   49.70   17.98
 -21  -7   5  152.88   29.75
 -20  -7   5   39.79   15.11
 -19  -7   5  183.13   30.37
 -18  -7   5   60.64   18.92
 -17  -7   5  138.29   25.76
  16   7  -5  105.22   24.42
 -16  -7   5  116.16   22.80
  16  -7  -5  107.42   15.84
  15  -7  -5   80.45   13.39
 -15  -7   5   90.27   20.02
 -15   7   5   77.77   14.08
  15   7  -5   81.92   19.86
  14  -7  -5   58.76   11.67
 -14  -7   5   71.93   17.76
  14   7  -5   58.79   16.66
 -14   7   5   49.04   11.93
  13  -7  -5  207.58   20.88
  13   7  -5  162.47   26.70
 -13  -7   5  158.78   24.28
 -13   7   5  180.13   20.93
  12  -7  -5  123.48   16.21
 -12  -7   5  110.62   20.15
 -12   7   5  144.36   18.90
  12   7  -5  126.38   23.14
  11  -7  -5  185.91   19.06
 -11  -7   5  150.83   22.35
  11   7  -5  184.79   27.02
 -11   7   5  190.73   20.96
  10  -7  -5  120.13   15.13
 -10   7   5  118.28   16.78
 -10  -7   5  106.39   18.50
  10   7  -5   92.28   19.28
   9  -7  -5  133.49   15.66
   9   7  -5  148.83   22.71
  -9  -7   5  145.59   20.31
  -9   7   5  148.06   18.64
   8   7  -5   45.34   12.57
  -8  -7   5   58.56   13.02
   8  -7  -5   38.40    8.63
  -7  -7   5  272.52   19.90
   7  -7  -5  287.52   22.47
   7   7  -5  270.36   28.39
  -6  -7   5   70.18    9.64
   6   7  -5   77.42   14.14
   6  -7  -5   80.10   12.04
   5   7  -5  222.78   24.06
   5  -7  -5  236.61   20.44
  -5  -7   5  219.39   15.24
  -4  -7   5   90.93    8.64
   4   7  -5   84.18   14.31
   4  -7  -5   88.94   12.75
   3  -7  -5  265.10   21.67
   3   7  -5  257.97   24.11
  -3  -7   5  277.86   13.13
  -2  -7   5  204.46   10.19
   2   7  -5  207.71   20.87
   2  -7  -5  222.31   19.96
   1   7  -5  117.15   15.37
  -1  -7   5  135.87    7.50
   1  -7  -5  119.23   14.78
   0  -7   5  146.18    7.27
   0   7  -5  166.75   18.04
   0  -7  -5  155.60   17.32
   1  -7   5  221.06    8.81
  -1  -7  -5  221.67   20.89
  -1   7  -5  214.15   11.75
  -2   7  -5  168.47   10.50
  -2  -7  -5  173.61   19.14
  -3   7  -5  341.60   14.67
  -3  -7  -5  304.44   25.56
  -4  -7  -5  121.13   17.08
  -4   7  -5  121.72    9.00
   5   7   5  123.27   19.45
  -5   7  -5  104.66    8.70
  -5  -7  -5  104.34   16.80
  -6  -7  -5   69.32   14.12
  -6   7  -5   65.81    7.29
   6   7   5   59.87   14.26
  -7  -7  -5  164.51   21.54
  -7   7  -5  194.99   13.09
   7   7   5  200.60   25.48
  -8   7  -5   28.33    5.43
  -8  -7  -5   22.09    6.92
   8   7   5   32.70   11.30
  -9   7  -5  146.65   12.53
   9   7   5  146.16   23.09
  -9  -7  -5  162.80   22.25
 -10   7  -5   92.52   10.29
  10   7   5   88.46   19.11
 -10  -7  -5   84.35   16.49
 -11  -7  -5  152.77   22.43
 -11   7  -5  107.21   11.71
  11   7   5  114.59   21.88
  12   7   5  186.36   27.87
 -12   7  -5  145.68   14.11
 -12  -7  -5  138.20   22.52
 -13  -7  -5   82.29   18.26
 -13   7  -5   99.52   12.31
  13   7   5   97.87   20.69
 -14   7  -5  182.73   17.18
  14   7   5  219.26   32.39
 -14  -7  -5  178.40   26.77
  15   7   5   64.86   17.55
 -15  -7  -5   69.87   17.17
 -15   7  -5   63.41   10.42
 -16  -7  -5   61.51   16.46
 -16   7  -5   88.40   13.03
 -17   7  -5  154.56   17.87
 -17   7  -5  151.47   24.39
 -17  -7  -5  145.71   25.68
 -18   7  -5   40.66    9.24
 -18  -7  -5   18.27    8.00
 -18   7  -5   42.15   13.62
 -19   7  -5   66.62   13.20
 -19  -7  -5   78.86   19.54
 -19   7  -5   65.56   17.68
 -19  -7  -5   77.86   20.13
 -20  -7  -5   34.53   15.45
 -20   7  -5   36.89   14.12
 -20  -7  -5   37.62   12.17
 -21  -7  -5   56.28   17.49
 -21   7  -5   49.59   16.04
 -21  -7  -5   53.42   16.86
 -22  -7  -5   29.53   14.66
 -22   7  -5    3.11    5.69
 -22  -7  -5   15.79    9.65
 -23  -7  -5   30.93   12.57
 -23   7  -5   61.27   19.03
 -23  -7  -5   47.63   17.37
 -24  -7  -5   57.35   19.59
 -24   7  -5   33.49   14.22
 -24  -7  -5   42.55   16.14
 -25  -7  -5   10.59    9.62
 -25   7  -5   21.39   11.94
 -25  -7  -5   44.36   18.90
 -26   7  -5   33.24   17.20
 -26  -7  -5   68.38   20.77
 -27  -7  -5   -3.18    8.22
 -27   7  -5    3.14    7.18
 -28   7  -5   76.97   24.21
 -29   7  -5   10.85    9.56
 -27  -8   5    6.86   11.52
 -27   8   5    6.01   12.67
 -26  -8   5   48.89   20.07
 -26   8   5   57.53   23.91
 -25  -8   5   58.83   20.27
 -24  -8   5   57.63   17.82
 -23  -8   5   37.71   17.01
 -22  -8   5   61.16   19.62
 -21  -8   5   63.66   20.11
 -20  -8   5  103.81   23.48
 -19  -8   5   59.94   17.70
 -18  -8   5   80.21   20.75
 -17  -8   5   78.59   19.93
  16  -8  -5   91.08   15.71
 -16  -8   5   82.78   19.26
  15  -8  -5  167.63   19.88
 -15  -8   5  140.20   24.63
  14  -8  -5   17.26    7.03
  14   8  -5    3.72    5.55
 -14  -8   5   14.32    9.40
 -14   8   5   22.57    7.93
 -13  -8   5   98.30   20.28
  13   8  -5   92.59   21.08
  13  -8  -5  119.25   16.45
 -13   8   5   98.74   16.46
  12  -8  -5  109.90   15.20
 -12  -8   5   93.04   19.44
  12   8  -5  100.18   20.85
 -12   8   5   94.22   15.46
  11  -8  -5  112.23   15.28
 -11  -8   5  104.87   19.55
  11   8  -5  110.42   22.25
 -11   8   5  101.17   16.48
 -10   8   5   71.71   13.51
  10   8  -5   52.17   14.58
 -10  -8   5   64.24   15.16
  10  -8  -5   75.94   12.40
 -10  -8   5   60.41   11.48
  -9  -8   5   75.44   12.52
   9  -8  -5   87.47   13.57
   9   8  -5   82.30   18.20
  -9   8   5  125.29   23.11
   8   8  -5  155.70   23.35
  -8  -8   5  155.87   16.53
  -8   8   5  172.95   20.49
   8  -8  -5  167.94   18.24
  -7   8   5   39.99   10.01
   7   8  -5   28.58    9.99
   7  -8  -5   39.29    8.73
  -7  -8   5   33.08    7.55
  -6  -8   5  205.96   16.49
   6  -8  -5  206.20   20.18
   6   8  -5  192.97   24.43
  -6   8   5  220.44   22.95
  -5   8   5   52.62   11.67
   5   8  -5   55.33   12.58
   5  -8  -5   60.09   11.35
  -5  -8   5   49.54    7.53
   4   8  -5  205.70   23.75
   4  -8  -5  206.21   19.98
  -4  -8   5  220.47   14.03
  -4   8   5  191.93   21.46
  -3   8   5  180.38   20.98
   3   8  -5  165.68   20.54
   3  -8  -5  176.85   18.46
  -3  -8   5  186.41   11.84
  -2   8   5  136.52   18.65
   2   8  -5  151.66   19.36
  -2  -8   5  145.82    9.72
   2  -8  -5  144.76   16.82
  -1   8   5  259.12   26.26
   1  -8  -5  251.74   22.90
  -1  -8   5  267.14   12.46
   1   8  -5  257.25   24.51
   0  -8   5   55.23    5.40
   0  -8  -5   58.38   11.33
   0   8  -5   53.34   11.48
   0   8   5   48.12   11.35
   1  -8   5  213.60   10.37
  -1  -8  -5  203.84   20.97
  -1   8  -5  191.07   13.20
   1   8   5  219.89   25.32
   2  -8   5  105.49    7.31
  -2  -8  -5   97.42   15.00
  -2   8  -5  101.36    9.49
   2   8   5   80.57   16.11
  -3   8  -5  184.11   12.66
   3   8   5  195.58   25.01
  -3  -8  -5  165.90   19.57
  -4  -8  -5   84.41   14.29
   4   8   5   66.35   15.89
  -4   8  -5   78.61    8.20
   5   8   5  111.24   19.91
   5   8   5   77.96   15.98
  -5   8  -5  104.85    9.63
  -5  -8  -5  101.80   16.42
   6   8   5   43.22   12.13
  -6  -8  -5   49.75   11.96
  -6   8  -5   45.74    6.43
  -7  -8  -5   81.70   16.07
   7   8   5   74.87   16.80
  -7   8  -5   75.45    8.82
  -8   8  -5  106.79   10.86
   8   8   5  100.28   20.02
  -8  -8  -5  129.44   19.94
  -9  -8  -5   46.38   12.37
  -9   8  -5   59.32    8.45
   9   8   5   37.69   12.26
 -10   8  -5  152.54   13.93
 -10  -8  -5  156.52   23.90
  10   8   5  162.04   26.44
  11   8   5  105.18   22.07
 -11   8  -5  110.74   12.66
 -11  -8  -5   95.60   18.32
 -12   8  -5  107.11   12.58
  12   8   5   89.84   20.33
 -12  -8  -5  111.14   21.60
 -13   8  -5  142.59   15.01
  13   8   5  143.38   27.07
 -13  -8  -5  142.59   24.73
 -14  -8  -5   51.81   14.81
 -14   8  -5   55.21    9.94
 -15   8  -5   71.17   11.43
 -15  -8  -5   81.06   19.11
 -16   8  -5  123.25   15.51
 -16  -8  -5  118.72   23.75
 -17   8  -5   70.58   12.10
 -17  -8  -5   64.69   18.30
 -18   8  -5   58.34   11.98
 -18  -8  -5   40.15   14.88
 -19   8  -5   66.91   12.66
 -19  -8  -5   76.44   20.21
 -19   8  -5   54.27   15.67
 -20  -8  -5   44.53   17.43
 -20   8  -5   20.09    9.92
 -21  -8  -5   70.40   21.00
 -21   8  -5   69.85   19.64
 -22  -8  -5   24.55   12.28
 -22   8  -5   -0.49    7.96
 -23  -8  -5   61.24   19.82
 -23   8  -5   91.29   23.00
 -24  -8  -5   22.44   12.57
 -24   8  -5   64.70   18.99
 -25   8  -5   75.34   21.82
 -26   8  -5   19.39   11.84
 -26  -8  -5   14.53    7.90
 -27   8  -5   64.36   20.18
 -28   8  -5   34.78   18.75
 -25  -9   5   12.28   11.86
 -24  -9   5   26.79   13.18
 -23  -9   5   16.63   11.63
 -22  -9   5   15.73    9.43
 -21  -9   5   29.79   14.00
 -20  -9   5   50.03   16.93
 -19  -9   5   30.49   14.02
 -18  -9   5   41.25   15.28
 -17  -9   5   39.36   14.82
  17  -9  -5   34.37    9.47
  16  -9  -5   61.26   12.25
 -16  -9   5   69.98   18.77
  15  -9  -5   33.90    9.62
 -15  -9   5   42.32   15.34
  14  -9  -5  103.72   15.89
 -14  -9   5  131.08   24.34
 -14  -9   5   90.14   17.90
  13  -9  -5    4.03    4.18
 -13  -9   5   -2.26    6.95
  13   9  -5    4.97    9.98
 -13  -9   5   -8.14    7.05
 -12   9   5   40.19   10.96
  12   9  -5   65.97   18.94
 -12  -9   5   34.84   10.34
  12  -9  -5   50.46   11.51
  11   9  -5   26.39   11.19
 -11   9   5   59.39   13.37
  11  -9  -5   31.36    8.51
 -11  -9   5   32.08    9.52
  10  -9  -5   49.90   11.06
 -10  -9   5   52.09   11.69
  10   9  -5   62.53   17.28
 -10   9   5   50.77   12.56
  -9  -9   5   72.35   12.58
   9   9  -5   69.45   16.87
  -9   9   5   68.51   14.06
   9  -9  -5   77.64   13.17
   8   9  -5   17.76    9.33
  -8   9   5   24.44    8.05
   8  -9  -5   32.90    8.81
  -8  -9   5   16.98    6.20
  -7  -9   5   50.08    9.30
  -7   9   5   75.65   14.39
   7   9  -5   43.17   12.70
   7  -9  -5   54.86   11.19
  -6   9   5   24.25    9.12
   6   9  -5    5.40    4.78
   6  -9  -5   30.54    9.81
  -6  -9   5   31.95    7.00
   5   9  -5   84.45   17.01
  -5   9   5   97.89   16.75
   5  -9  -5   77.47   13.12
  -5  -9   5   95.90   10.58
   4   9  -5   64.95   14.37
   4  -9  -5   66.90   12.17
  -4  -9   5   71.72    8.55
  -4   9   5   46.92   11.93
  -3  -9   5   98.74    9.49
   3  -9  -5   79.67   13.35
   3   9  -5   60.86   13.07
  -3   9   5   69.22   13.98
  -2   9   5  116.78   18.73
   2   9  -5  147.27   20.43
  -2  -9   5  148.74   11.02
   2  -9  -5  147.58   17.87
   1  -9  -5   37.93    9.79
  -1   9   5   40.47   11.32
  -1  -9   5   41.89    5.80
   1   9  -5   31.45    9.73
   0   9   5  158.74   22.06
   0  -9   5  168.27   10.81
   0  -9  -5  134.38   17.80
   0   9  -5  156.73   20.87
  -1  -9  -5   21.02    7.55
  -1   9  -5   10.87    3.53
   1  -9   5   25.26    4.27
   1   9   5   33.44   13.49
   2  -9   5  128.29    9.28
  -2   9  -5  109.20   11.33
  -2  -9  -5  115.36   16.72
   2   9   5  118.91   20.29
  -3  -9  -5   25.54    8.35
  -3   9  -5   24.93    5.61
   3   9   5   19.54    8.25
   3  -9   5   22.28    3.89
  -4   9  -5   78.78    9.53
  -4  -9  -5   86.21   15.22
   4   9   5   88.19   17.85
  -5   9  -5   34.43    6.27
   5   9   5   20.06    9.57
   5   9   5   24.95   10.16
  -5  -9  -5   27.55    9.22
   6   9   5   64.63   16.86
  -6   9  -5   63.79    8.52
  -6  -9  -5   54.50   13.23
  -7   9  -5   34.25    6.53
   7   9   5   34.57   13.56
  -7  -9  -5   39.59   11.71
  -8  -9  -5   62.00   14.17
   8   9   5   48.67   15.13
  -8   9  -5   63.38    9.07
   9   9   5   67.47   17.60
  -9  -9  -5   53.94   13.08
  -9   9  -5   53.48    8.56
 -10  -9  -5   55.61   14.62
 -10   9  -5   70.60    9.98
  10   9   5   65.91   18.57
 -11  -9  -5   37.99   13.54
 -11   9  -5   36.92    8.02
 -12   9  -5   70.49   10.80
 -12  -9  -5   76.75   17.17
 -13   9  -5   35.92    8.03
 -13  -9  -5   31.50   12.15
 -14   9  -5   55.57   10.17
 -14  -9  -5   50.62   16.74
 -15   9  -5   58.99   10.86
 -15  -9  -5   50.12   16.50
 -16  -9  -5   44.56   15.91
 -16   9  -5   29.79    8.20
 -17  -9  -5   23.59   12.70
 -17   9  -5   12.79    4.14
 -18  -9  -5   11.66    8.82
 -18   9  -5   31.96    8.59
 -19  -9  -5    4.24    8.95
 -20   9  -5   48.62   16.26
 -20  -9  -5   35.94   14.75
 -21   9  -5   -1.59    7.45
 -21  -9  -5   22.16   12.65
 -22  -9  -5   30.73   15.76
 -22   9  -5   62.77   19.78
 -23  -9  -5   24.17   10.67
 -23   9  -5    6.83    5.79
 -24   9  -5   39.70   16.59
 -25   9  -5   58.40   21.15
 -26   9  -5   33.95   15.65
 -27   9  -5   11.34   10.85
 -24 -10   5   -0.61    5.69
 -23 -10   5   31.75   14.09
 -22 -10   5   -0.14    6.20
 -21 -10   5    6.18    9.81
 -20 -10   5  -12.67   11.14
 -19 -10   5   12.23   10.95
 -18 -10   5   -4.34    6.66
 -18 -10   5    6.96    6.62
  17 -10  -5   23.37    8.39
 -17 -10   5   28.63   13.58
 -17 -10   5   22.41   10.87
  16 -10  -5   10.31    7.85
 -16 -10   5    0.76    7.31
 -16 -10   5    2.89    7.05
  15 -10  -5   38.22   10.56
 -15 -10   5   47.10   13.48
  14 -10  -5    1.54    4.22
 -14 -10   5    5.14    6.00
 -13 -10   5   48.62   12.60
  13 -10  -5   62.66   13.01
 -12 -10   5   -3.75    6.17
  12 -10  -5   -4.08    5.42
 -11 -10   5   16.65    7.45
  11 -10  -5    8.50    5.16
  11  10  -5   24.15   10.53
  10  10  -5   12.70    8.49
  10 -10  -5   15.23    6.34
 -10 -10   5    8.05    4.45
  -9 -10   5   22.73    7.59
   9 -10  -5   11.38    5.27
   9  10  -5   27.76   12.47
  -9  10   5   10.35    6.64
   8 -10  -5   14.49    6.08
  -8 -10   5   10.84    5.08
  -8  10   5    6.71    4.47
   8  10  -5    8.40    8.37
   7 -10  -5    5.61    4.68
   7  10  -5   31.58   11.72
  -7  10   5   12.53    6.20
  -7 -10   5   21.83    6.23
   6  10  -5    2.51    4.60
   6 -10  -5    4.46    4.00
  -6 -10   5   10.71    4.75
  -6  10   5   18.24    8.62
   5  10  -5   22.26   10.00
  -5 -10   5    6.80    3.49
   5 -10  -5   17.85    6.36
  -5  10   5   11.32    6.86
  -4 -10   5   18.91    5.10
   4  10  -5   19.84    8.37
   4 -10  -5   15.07    5.48
  -4  10   5   11.25    6.43
   3  10  -5   16.57    8.20
  -3  10   5   26.24    9.78
   3 -10  -5   36.64    9.50
  -3 -10   5   35.51    6.34
  -2  10   5   11.35    6.55
   2  10  -5   10.81    7.86
  -2 -10   5    4.57    3.17
   2 -10  -5    6.50    5.12
   1  10  -5   59.56   13.99
  -1  10   5   59.69   14.08
  -1 -10   5   50.66    6.92
   1 -10  -5   42.26    9.96
   0 -10  -5    0.69    3.79
   0  10  -5    1.91    4.08
   0 -10   5    4.53    2.38
   0  10   5   -4.67    6.98
   1  10   5   53.50   14.63
  -1 -10  -5   50.79   11.72
   1 -10   5   49.57    6.48
  -1  10  -5   43.68    7.80
  -2 -10  -5    2.36    5.15
   2 -10   5    0.61    1.85
  -2  10  -5    7.64    4.33
   2  10   5    2.23    5.72
   3 -10   5   30.48    5.14
  -3 -10  -5   39.56   10.40
  -3  10  -5   33.41    6.84
   3  10   5   22.20    8.81
   4  10   5   -4.04    4.44
   4  10   5   -1.92    7.82
  -4 -10  -5    2.99    3.13
  -4  10  -5    3.40    4.20
   5  10   5    6.91    7.05
  -5 -10  -5   21.69    8.62
   5  10   5    7.57    5.11
  -5  10  -5   15.06    5.11
  -6  10  -5   14.39    4.72
  -6 -10  -5   13.71    7.85
  -7  10  -5   16.00    4.95
  -7 -10  -5   11.82    7.51
  -8  10  -5    8.14    3.69
  -8 -10  -5    7.08    6.15
  -9 -10  -5   15.59    7.80
  -9  10  -5   38.25    7.94
 -10 -10  -5    4.87    6.03
 -10  10  -5    8.19    4.51
 -11 -10  -5   31.95   12.60
 -11  10  -5   21.36    6.01
 -12 -10  -5   20.24   11.23
 -12  10  -5   13.61    5.26
 -13 -10  -5   15.23    9.71
 -13  10  -5   24.55    6.84
 -14 -10  -5   17.12    9.27
 -14  10  -5    8.31    4.34
 -15  10  -5    7.30    4.75
 -15 -10  -5   16.25   10.51
 -16  10  -5    2.01    3.52
 -16 -10  -5   -4.76    7.02
 -17  10  -5   17.04    7.49
 -17 -10  -5   18.39   12.19
 -18 -10  -5   -2.29    7.40
 -19 -10  -5   -7.43   10.73
 -20 -10  -5    5.19    6.27
 -21 -10  -5    5.10    8.56
 -21  10  -5    5.20    5.60
 -22  10  -5   -4.34   11.77
 -22 -10  -5    3.68    9.72
 -23  10  -5   34.45   18.01
 -24  10  -5   69.32   21.10
 -25  10  -5   32.88   17.98
 -26  10  -5   -2.81    6.92
 -26 -11   5    0.03    7.96
 -25 -11   5   -7.34    8.55
 -24 -11   5    0.49    9.63
 -23 -11   5    9.97    9.44
 -23 -11   5   -2.82    5.83
 -22 -11   5    3.30    6.48
 -22 -11   5   -1.53    8.44
 -21 -11   5   37.48   16.05
 -21 -11   5    3.56    8.64
 -20 -11   5   -0.64    8.80
 -20 -11   5   -5.32    6.43
 -19 -11   5   -1.55    5.09
 -18 -11   5    4.95    9.22
  18 -11  -5   -4.41    5.95
  17 -11  -5    0.54    4.41
 -17 -11   5   10.51    8.44
  16 -11  -5   12.71    7.04
 -16 -11   5    7.25    8.34
  15 -11  -5   -0.50    3.32
 -15 -11   5  -12.86    7.60
  14 -11  -5    3.64    5.71
 -14 -11   5   -0.16    5.44
  13 -11  -5    9.75    7.50
 -13 -11   5   -1.67    3.60
  12 -11  -5    4.87    4.37
 -12 -11   5    9.48    6.13
  11 -11  -5   10.62    5.44
 -11 -11   5    7.15    6.04
  10 -11  -5   -2.21    4.50
 -10 -11   5   -1.21    4.90
  -9 -11   5    3.78    3.88
   9 -11  -5    4.78    4.85
   8 -11  -5    0.47    3.25
   8  11  -5    7.53    5.06
  -8 -11   5    6.97    4.40
   7  11  -5    3.45    4.94
  -7 -11   5   -5.98    4.23
   7 -11  -5    5.61    5.18
  -6 -11   5    3.47    2.36
   6 -11  -5   -2.48    3.22
   5 -11  -5   -1.08    4.89
   5  11  -5    0.58    7.00
  -5  11   5    4.84    6.20
  -5 -11   5   -4.22    2.77
  -4  11   5    7.29    5.95
   4  11  -5    9.52    6.68
   4 -11  -5    1.68    3.50
  -4 -11   5    3.55    2.68
   3  11  -5   -0.87    4.57
   3 -11  -5   -2.92    5.08
  -3 -11   5    4.52    2.57
  -3  11   5   -5.02    5.39
   2  11  -5    6.03    7.30
  -2  11   5   -2.12    6.44
  -2 -11   5    1.84    2.97
   2 -11  -5   -2.37    4.44
  -1 -11   5    0.75    2.03
  -1  11   5   -6.07    6.83
   1 -11  -5   -3.80    5.40
   0 -11  -5    7.47    5.77
   0 -11   5    9.34    3.76
   0  11  -5   11.28    8.90
   0  11   5    2.24    6.55
  -1  11  -5    0.42    4.72
  -1 -11  -5    2.70    5.18
   1  11   5  -11.11   10.06
   1 -11   5    3.23    2.55
   2 -11   5    4.06    2.56
  -2 -11  -5   -8.22    5.94
  -2  11  -5   -4.47    3.69
  -3  11  -5   -4.38    3.34
   3 -11   5    0.47    2.53
  -3 -11  -5   -5.92    5.01
  -4  11  -5    3.05    3.97
   4 -11   5    2.33    2.70
  -4 -11  -5    5.86    5.52
  -5  11  -5   -0.07    3.62
  -5 -11  -5    9.87    7.99
  -6 -11  -5    3.32    5.45
  -6  11  -5    5.09    4.07
  -7  11  -5    6.17    4.29
  -7 -11  -5    9.90    5.75
  -8 -11  -5   10.35    8.37
  -8  11  -5    2.21    2.91
  -9  11  -5    0.97    3.20
  -9 -11  -5    5.86    5.69
 -10  11  -5    8.78    3.56
 -10 -11  -5    9.50    8.21
 -11  11  -5   -2.47    2.68
 -11 -11  -5    5.85    5.39
 -12 -11  -5   -7.85    7.02
 -12  11  -5    4.02    2.98
 -13  11  -5   -0.66    2.46
 -13 -11  -5   -6.19    6.60
 -14 -11  -5    9.92    7.37
 -14  11  -5   -6.57    4.37
 -15  11  -5    0.53    4.67
 -15 -11  -5   16.36   12.38
 -16 -11  -5    4.01    6.54
 -16  11  -5    9.78    5.26
 -17 -11  -5   -2.11    6.68
 -18 -11  -5   -7.05    8.44
 -19 -11  -5    7.71    7.07
 -20 -11  -5    7.96   10.95
 -21 -11  -5   11.39    9.37
 -22  11  -5    3.68   13.45
 -23  11  -5   15.76   12.45
 -24  11  -5    0.99    8.41
 -25  11  -5   30.89   16.67
 -26 -12   5    5.62   11.31
 -25 -12   5    0.63    7.12
 -24 -12   5   19.17   13.18
 -23 -12   5   10.53    9.33
 -22 -12   5    7.11    8.70
 -21 -12   5    2.58    6.82
 -20 -12   5   33.11   13.77
 -19 -12   5   -4.88    6.30
 -18 -12   5    2.69    5.12
  18 -12  -5    6.62    5.64
  17 -12  -5    1.45    3.37
 -17 -12   5   -9.48    7.28
  16 -12  -5   -1.65    3.46
 -16 -12   5    5.75    5.34
  15 -12  -5    6.12    5.50
 -15 -12   5    3.25    5.45
  14 -12  -5    8.98    6.26
 -14 -12   5    6.14    5.86
  13 -12  -5    4.31    4.93
 -13 -12   5    3.60    3.49
  12 -12  -5    7.88    5.93
 -12 -12   5    9.57    5.94
  11 -12  -5   92.88   21.85
 -11 -12   5    7.32    5.52
  10 -12  -5   33.48   10.11
 -10 -12   5   42.39   10.26
   9 -12  -5   -1.56    4.61
  -9 -12   5    5.56    4.82
  -8 -12   5    9.34    4.74
   8 -12  -5    5.56    5.37
  -7 -12   5    7.70    5.03
   7 -12  -5    5.48    5.28
  -6 -12   5    3.77    3.22
   6 -12  -5   14.87    6.90
   5 -12  -5   -1.15    5.01
  -5 -12   5   -2.38    3.71
   4 -12  -5   11.16    5.36
  -4 -12   5   15.10    5.13
   4  12  -5   -8.55    8.79
   3  12  -5    5.60    5.97
  -3 -12   5    9.21    4.69
   3 -12  -5    4.00    4.83
  -2 -12   5   22.00    5.99
   2 -12  -5    8.87    4.97
   2  12  -5   15.37    9.18
  -1 -12   5   10.46    4.29
   1  12  -5   17.53    7.54
   1 -12  -5    7.47    5.18
   0  12  -5   12.96    8.75
   0 -12   5    5.45    3.35
   0 -12  -5    4.11    3.86
  -1 -12  -5   11.09    5.66
  -1  12  -5   13.43    6.95
   1 -12   5   12.69    3.70
   2 -12   5   19.54    5.12
  -2  12  -5    5.77    5.29
  -2 -12  -5   15.16    7.70
   3 -12   5   25.36    5.77
  -3 -12  -5   16.89    9.04
  -3  12  -5   15.15    7.65
   4 -12   5    4.74    3.90
  -4 -12  -5   -6.18    6.19
  -4  12  -5   11.69    9.35
  -5  12  -5   18.12    7.63
  -5 -12  -5    4.13    6.27
  -6  12  -5    3.86    4.27
  -6 -12  -5    4.07    4.21
  -7 -12  -5    2.20    4.29
  -7  12  -5    4.93    4.63
  -8 -12  -5    2.35    5.43
  -8  12  -5    7.43    5.46
  -9  12  -5    4.53    4.28
  -9 -12  -5  -14.56    8.15
 -10  12  -5  -11.13    5.49
 -10 -12  -5   -5.22    6.09
 -11  12  -5   11.21    5.77
 -11 -12  -5   -0.44    7.99
 -12  12  -5   47.79   10.19
 -12 -12  -5    6.82    7.74
 -13 -12  -5    9.20    8.32
 -13  12  -5   14.22    5.42
 -14 -12  -5   -0.71    6.18
 -15 -12  -5    3.81    9.21
 -16 -12  -5   -2.74    5.69
 -17 -12  -5   -6.24   11.64
 -18 -12  -5    2.78    6.10
 -19 -12  -5    2.13    6.08
 -23  12  -5    9.48    8.89
 -24 -13   5   16.20   12.13
 -23 -13   5   -0.03    7.03
 -22 -13   5  -13.43    9.63
 -21 -13   5    7.92    8.19
 -20 -13   5    7.34    8.49
 -19 -13   5   12.60    8.72
 -18 -13   5    6.77    8.77
  18 -13  -5    6.52    5.69
  17 -13  -5   17.30    7.53
 -17 -13   5    6.47    9.63
  16 -13  -5   -1.30    4.05
 -16 -13   5   -2.82    5.12
  15 -13  -5   10.75    7.17
 -15 -13   5   34.96   11.29
  14 -13  -5   12.86    7.62
 -14 -13   5   85.80   17.05
 -13 -13   5   -1.14    3.81
  13 -13  -5   10.32    7.73
  12 -13  -5   13.66    7.95
 -12 -13   5    7.40    5.24
 -11 -13   5   14.61    6.21
  11 -13  -5   20.67    9.02
  10 -13  -5   23.72    9.47
 -10 -13   5   11.42    5.60
   9 -13  -5   21.47    7.96
  -9 -13   5   42.76   10.77
  -8 -13   5   37.42    9.79
   8 -13  -5   16.60    8.16
  -7 -13   5   15.83    6.00
   7 -13  -5   10.65    5.32
  -6 -13   5    4.91    3.36
   6 -13  -5    6.64    4.96
   5 -13  -5   15.94    5.67
  -5 -13   5   17.40    5.65
  -4 -13   5   18.96    6.74
   4 -13  -5   16.73    7.70
  -3 -13   5   21.81    6.57
   3 -13  -5   15.87    7.51
  -2 -13   5   15.50    5.20
   2 -13  -5   17.57    7.41
  -1 -13   5   20.21    6.02
   1 -13  -5   11.98    7.94
   0 -13  -5   25.05    9.77
   0 -13   5   86.19   11.17
   1 -13   5   16.79    5.42
  -1 -13  -5   10.87    6.76
  -2 -13  -5   20.76    9.15
   2 -13   5   33.29    7.34
  -3  13  -5   38.04   11.47
   3 -13   5   25.73    6.09
  -3 -13  -5   11.16    6.85
   4 -13   5   37.75    7.35
  -4 -13  -5   26.12   11.00
  -4  13  -5   33.09   10.64
  -5 -13  -5   13.85    8.40
  -5  13  -5   12.30    4.38
  -6 -13  -5   14.95    8.92
  -6  13  -5   18.71    7.66
  -7 -13  -5   -1.85    7.24
  -7  13  -5  -11.32    6.55
  -8 -13  -5    4.41    4.99
  -8  13  -5   18.40    6.63
  -9 -13  -5    4.55    5.09
 -10 -13  -5   18.77   10.28
 -11 -13  -5   15.76    9.71
 -12 -13  -5   32.05   14.23
 -13 -13  -5   16.22   10.97
 -14 -13  -5    6.31    8.03
 -15 -13  -5    7.07    7.78
 -16 -13  -5   15.14   15.43
 -17 -13  -5   13.11    8.37
 -22 -14   5   -1.01    5.12
 -21 -14   5    4.22    7.00
 -20 -14   5    9.86   11.13
 -19 -14   5   -7.71    7.21
 -18 -14   5    0.23    7.53
  18 -14  -5   -3.79    5.66
  17 -14  -5   14.14    8.55
 -17 -14   5    0.29    6.28
  16 -14  -5   -4.08    5.89
 -16 -14   5    4.53    7.19
 -15 -14   5    1.08    3.99
  15 -14  -5   11.03    7.68
  14 -14  -5   12.67    7.47
 -14 -14   5    3.85    6.77
  13 -14  -5    8.90    8.06
 -13 -14   5   20.31    9.83
 -12 -14   5   -0.32    4.22
  12 -14  -5   -3.81    6.93
 -11 -14   5   19.51    7.59
  11 -14  -5   13.47    5.75
 -10 -14   5   19.34    7.31
  10 -14  -5   11.66    7.86
  -9 -14   5   31.03    9.23
   9 -14  -5    5.13    4.43
  -8 -14   5   14.49    6.37
   8 -14  -5    5.48    5.87
  -7 -14   5   13.62    6.82
   7 -14  -5   18.38    8.50
   6 -14  -5   23.02    8.96
  -6 -14   5    6.91    3.69
   5 -14  -5   21.85    9.80
  -5 -14   5   11.53    4.85
   4 -14  -5    3.23    5.11
  -4 -14   5    5.61    4.32
  -3 -14   5   13.78    5.62
   3 -14  -5    7.12    6.82
  -2 -14   5   12.87    5.33
   2 -14  -5    3.79    6.02
  -1 -14   5   16.28    5.35
   1 -14  -5   13.00    7.62
   0 -14   5   20.08    6.01
   0 -14  -5   17.31    7.92
   1 -14   5   16.19    5.96
  -1 -14  -5   26.02    9.42
   2 -14   5   17.87    6.05
  -2 -14  -5   13.74    8.18
  -3 -14  -5   15.10    8.47
   3 -14   5   13.56    4.92
   4 -14   5   22.60    5.97
  -4 -14  -5   10.50    6.74
  -5 -14  -5   10.12    9.62
  -6 -14  -5    6.63    5.76
  -7 -14  -5   18.45    8.76
  -8 -14  -5   15.25   10.12
  -9 -14  -5   16.44   11.27
 -10 -14  -5    8.29    7.53
 -11 -14  -5    8.09    8.07
 -12 -14  -5    3.17    8.62
 -13 -14  -5    5.36    9.15
 -14 -14  -5   20.58   12.91
 -15 -14  -5    1.16    6.25
  17 -15  -5   10.57    6.02
  16 -15  -5   15.58    7.47
  15 -15  -5  236.74   29.78
  14 -15  -5    4.83    5.80
  13 -15  -5    8.24    5.82
  12 -15  -5   26.06    9.79
  11 -15  -5    3.69    4.66
  10 -15  -5   12.57    7.58
  -9 -15   5    1.87    4.00
   9 -15  -5    7.84    6.25
  -8 -15   5    2.96    4.07
   8 -15  -5    1.34    4.70
   7 -15  -5   -5.89    6.53
   6 -15  -5    8.36    6.62
   5 -15  -5    7.00    5.45
   4 -15  -5   10.92    6.37
   3 -15  -5   -4.33    4.12
   2 -15  -5   13.36    7.17
   1 -15  -5    9.86    6.65
   0 -15  -5   15.19    8.48
  -1 -15  -5   22.60    9.62
  -2 -15  -5   16.99    7.24
  -3 -15  -5    2.25    5.09
  -4 -15  -5    5.33    5.77
  -5 -15  -5   53.74   13.38
  -6 -15  -5    8.65    7.62
  -7 -15  -5    7.43    5.14
  -8 -15  -5    8.03    7.26
  -9 -15  -5  -15.44    8.84
 -10 -15  -5   16.51   11.42
 -11 -15  -5    4.04    7.27
 -12 -15  -5    8.80    4.95
 -13 -15  -5    7.39    7.19
  14 -16  -5   -5.75    6.03
  13 -16  -5    7.66    5.59
  12 -16  -5    6.56    5.31
  11 -16  -5    8.76    5.22
  10 -16  -5   -0.78    6.70
   9 -16  -5    3.32    4.89
   8 -16  -5   13.47    8.13
   7 -16  -5   -6.73    5.91
   6 -16  -5    1.91    3.69
   5 -16  -5  -12.47    7.57
   4 -16  -5    6.06    6.71
   3 -16  -5    8.90    7.96
   2 -16  -5    9.83    6.77
   1 -16  -5   -2.16    6.68
   0 -16  -5    0.85    5.99
  -1 -16  -5    1.13    5.21
  -2 -16  -5    5.66    6.24
  -3 -16  -5   -8.28    6.85
  -4 -16  -5   -1.71    5.24
  -5 -16  -5  -13.29    8.19
  -6 -16  -5    7.56    8.09
  -7 -16  -5   -5.04    4.85
  -8 -16  -5   -0.08    4.32
  -9 -16  -5    8.53    8.68
 -10 -16  -5    2.14    6.43
   9 -17  -5   16.18    6.37
   8 -17  -5  -12.19    7.48
   7 -17  -5   -2.44    5.66
   6 -17  -5    4.45    5.69
   5 -17  -5    0.33    5.32
   4 -17  -5   10.61    7.54
   3 -17  -5    1.12    4.75
   2 -17  -5    1.10    5.17
   1 -17  -5   -5.51    5.76
   0 -17  -5    5.63    5.70
  -1 -17  -5  -13.36    7.96
  -2 -17  -5    3.38    6.27
  -3 -17  -5  -13.69    8.22
  -4 -17  -5    0.26    3.98
  -5 -17  -5   14.41    8.56
 -30   0   6   88.04   28.38
 -29   0   6   35.69   20.13
 -28   0   6   67.01   24.27
 -27   0   6   24.23   13.78
 -26   0   6   60.47   21.76
 -25   0   6   42.80   18.73
 -24   0   6   76.53   22.83
 -23   0   6   28.22   14.26
 -22   0   6   54.94   20.34
 -21   0   6   14.29   11.04
 -20   0   6  132.54   16.86
 -20   0   6  111.02   23.48
 -19   0   6   68.92   12.06
 -19   0   6   58.57   17.73
 -18   0   6  325.91   25.48
 -18   0   6  271.31   34.36
 -17   0   6   27.49    7.20
 -17   0   6   28.21   12.67
 -16   0   6  231.08   20.34
 -16   0   6  191.15   27.46
 -15   0   6   42.56    8.62
 -15   0   6   32.23   10.88
 -14   0   6  465.64   27.09
 -14   0   6  427.77   37.67
 -13   0   6    3.02    4.29
 -12   0   6  189.32   23.52
 -11   0   6   26.34    5.85
 -11   0   6   21.15    7.91
 -10   0   6  251.97   17.45
 -10   0   6  267.80   25.73
  -9   0   6   70.65    9.07
  -9   0   6   68.98   12.84
   8   0  -6  639.89   24.66
  -8   0   6  658.89   26.65
  -8   0   6  630.41   35.28
   7   0  -6   69.89    8.26
  -7   0   6   75.24    8.74
  -7   0   6   84.57   12.55
   6   0  -6   10.84    3.56
  -6   0   6   10.10    3.48
   5   0  -6   50.01    6.66
  -5   0   6   55.20    7.43
   4   0  -6  649.53   22.37
  -4   0   6  651.35   23.93
   3   0  -6   55.04    6.42
  -3   0   6   61.65    7.43
  -2   0   6  859.69   26.72
   2   0  -6  785.19   24.20
  -1   0   6   58.81    7.52
   1   0  -6   61.85    7.10
   0   0   6  152.95   12.22
   0   0  -6  152.78   10.92
   1   0   6   45.54    7.66
  -1   0  -6   44.97    6.19
  -2   0  -6 1408.02   37.49
   2   0   6 1362.61   25.06
   2   0   6 1381.10   41.20
  -3   0  -6  133.65   12.61
   3   0   6  138.13    8.95
   4   0   6 1037.37   27.36
  -4   0  -6 1104.84   37.95
   5   0   6   44.17    6.62
  -5   0  -6   40.59    7.96
   6   0   6  467.66   22.34
  -6   0  -6  467.55   20.01
  -6   0  -6  480.02   28.23
  -7   0  -6   88.24   12.93
   7   0   6  104.01   11.70
  -7   0  -6   99.08   10.25
  -8   0  -6 2223.64   52.76
   8   0   6 2268.31   56.90
  -9   0  -6  106.53   12.64
   9   0   6   93.16   12.64
 -10   0  -6  231.25   19.58
  10   0   6  199.12   18.71
 -11   0  -6   26.03    7.09
  11   0   6   42.65    9.24
 -12   0  -6  116.37   15.64
  12   0   6   94.02   14.55
 -13   0  -6    3.15    5.08
  13   0   6    7.31    4.82
 -14   0  -6   59.36   12.23
  14   0   6   53.58   12.34
 -15   0  -6   12.59    7.11
 -16   0  -6   88.11   16.46
 -17   0  -6   19.84    9.51
 -18   0  -6   84.16   16.36
 -19   0  -6   -2.25    5.11
 -20   0  -6  164.33   24.87
 -21   0  -6   19.01    8.42
 -22   0  -6  331.14   37.39
 -23   0  -6   19.14    8.57
 -24   0  -6  183.71   29.57
 -25   0  -6   32.28   13.85
 -26   0  -6   97.37   22.24
 -27   0  -6   28.63   11.54
 -28   0  -6   37.53   12.68
 -29   0  -6   10.55    7.82
 -30   0  -6   17.47   12.69
 -31   0  -6  -14.47   10.91
 -30   1   6   11.31    8.61
 -30  -1   6   30.04   19.65
 -29  -1   6   40.05   18.02
 -29   1   6   41.03   22.72
 -28   1   6   11.56   11.55
 -28  -1   6   36.73   20.52
 -27  -1   6   31.22   12.40
 -27   1   6   35.83   16.30
 -26  -1   6   37.97   17.29
 -26   1   6   74.58   23.30
 -25  -1   6   26.48   15.60
 -25   1   6   46.46   21.29
 -24   1   6   17.32   13.79
 -24  -1   6   12.55    9.81
 -23  -1   6   51.58   18.44
 -23   1   6   34.32   15.73
 -22  -1   6   22.28   11.89
 -22   1   6   21.10   10.64
 -21  -1   6   69.78   20.62
 -21   1   6   65.19   17.81
 -20  -1   6   56.48   10.97
 -20   1   6   56.78   11.32
 -20   1   6   68.28   19.31
 -20  -1   6   45.51   15.65
 -19  -1   6  161.92   18.35
 -19   1   6  161.14   18.92
 -19  -1   6  134.07   25.29
 -19   1   6  159.87   26.98
 -18  -1   6   37.20    8.25
 -18   1   6   46.85   10.06
 -18  -1   6   45.57   15.42
 -18   1   6   41.85   15.36
 -17  -1   6  212.44   19.84
 -17   1   6  238.79   21.62
 -17  -1   6  196.68   28.86
 -17   1   6  215.15   29.73
 -16  -1   6   41.80    8.65
 -16   1   6   34.16    8.44
 -16  -1   6   51.30   14.56
 -16   1   6   38.62   12.24
 -15  -1   6  296.79   21.81
 -15   1   6  314.68   23.56
 -15  -1   6  300.88   33.19
 -15   1   6  305.58   33.58
 -14   1   6   39.15    8.11
 -14  -1   6   33.44   11.33
 -14   1   6   44.57   12.01
 -13  -1   6  225.13   27.29
 -13   1   6  211.64   25.54
 -12  -1   6   33.72    6.74
 -12   1   6   13.12    6.25
 -12  -1   6   40.42   11.25
 -11  -1   6  159.08   14.02
 -11  -1   6  147.47   20.50
 -11   1   6  170.46   21.59
 -10  -1   6   91.66   10.11
 -10   1   6   97.33   11.49
 -10  -1   6   90.48   15.46
  10  -1  -6   90.44   10.52
   9  -1  -6  236.85   16.56
  -9  -1   6  238.48   15.59
  -9   1   6  213.18   16.46
  -9  -1   6  266.46   24.94
   8  -1  -6   74.26    9.13
  -8  -1   6   77.10    8.85
  -8   1   6   67.71    9.52
  -8  -1   6   78.92   13.10
  -7  -1   6  163.25   12.14
  -7   1   6  192.38   15.19
   7  -1  -6  172.96   13.43
  -7  -1   6  187.45   18.90
   6   1  -6   68.17    6.98
   6  -1  -6   73.27    8.75
  -6   1   6   69.61    8.80
  -6  -1   6   66.06    7.30
  -6  -1   6   62.52   10.33
   5   1  -6  154.20   10.14
  -5  -1   6  173.66   15.54
   5  -1  -6  152.69   12.08
  -5  -1   6  155.47   10.71
  -5   1   6  153.27   12.81
  -4   1   6   53.16    7.76
  -4  -1   6   65.89    6.82
   4   1  -6   62.98    6.43
   4  -1  -6   63.46    7.80
  -4  -1   6   69.34    9.43
   3   1  -6  382.84   14.86
   3  -1  -6  381.86   18.60
  -3   1   6  380.61   19.61
  -3  -1   6  376.27   15.73
  -3  -1   6  403.30   20.05
   2  -1  -6   89.16    8.96
  -2  -1   6  104.72    9.31
  -2  -1   6   99.78    8.11
   2   1  -6   99.14    7.50
  -2   1   6  102.44   10.28
  -1   1   6  220.55   15.46
  -1  -1   6  229.90   12.44
   1   1  -6  239.17   11.55
  -1  -1   6  232.15   11.46
   1  -1  -6  224.58   14.39
   0   1  -6   29.51    4.49
   0   1   6   29.88    6.04
   0  -1  -6   28.11    5.54
   0  -1   6   26.82    4.77
  -1  -1  -6  399.07   20.48
   1   1   6  427.34   23.47
   1  -1   6  386.30   18.67
  -1   1  -6  407.06   16.47
  -2  -1  -6   81.78   10.08
  -2   1  -6   83.37    8.35
   2   1   6   84.37   11.25
   3   1   6  447.64   26.63
  -3  -1  -6  471.99   24.80
   3   1   6  445.70   19.44
  -3   1  -6  431.60   20.55
  -4   1  -6   57.15    8.57
   4   1   6   56.01    7.71
  -4  -1  -6   51.26    8.65
  -5  -1  -6  396.43   25.40
   5   1   6  391.39   21.20
  -5   1  -6  401.15   14.09
  -5   1  -6  385.67   22.54
  -6   1  -6   88.52    8.03
  -6  -1  -6  100.23   13.29
   6   1   6   83.41   10.68
   7   1   6  975.23   38.48
  -7  -1  -6  969.10   34.93
  -7  -1  -6  933.03   43.03
  -7   1  -6 1011.32   30.90
  -8  -1  -6  104.62   12.13
   8   1   6   96.27   13.06
  -8   1  -6  104.03   11.32
  -8  -1  -6   86.22   14.31
  -9  -1  -6  579.24   30.07
  -9   1  -6  555.70   27.65
   9   1   6  609.51   34.22
 -10   1  -6   53.78    9.44
 -10  -1  -6   53.06   10.44
  10   1   6   47.59   10.47
 -11   1  -6  109.98   14.10
  11   1   6  111.87   16.20
 -11  -1  -6  111.67   14.95
 -12   1  -6   16.04    5.96
 -12  -1  -6    8.50    4.56
  12   1   6   25.23    8.81
 -13  -1  -6   45.52   10.64
 -13   1  -6   47.80   10.66
  13   1   6   38.49   10.73
 -14  -1  -6   24.66    9.36
 -14   1  -6    8.84    3.73
 -15  -1  -6   79.08   14.65
 -15   1  -6   53.03   13.09
 -16   1  -6   14.58    7.51
 -16  -1  -6   -3.09    5.32
  16   1   6   16.59    8.25
 -17  -1  -6   79.92   16.33
 -17   1  -6   60.20   13.78
  17   1   6   66.57   15.12
 -18  -1  -6    6.81    5.50
 -18   1  -6    4.46    5.31
  18   1   6   10.52    6.18
 -19  -1  -6   52.93   14.54
 -19   1  -6   57.85   14.84
  19   1   6   66.07   16.83
 -20  -1  -6   16.58    9.19
 -20   1  -6   26.13   10.68
  20   1   6   13.93    8.86
 -21   1  -6  195.28   28.62
 -21  -1  -6  233.83   30.94
 -22  -1  -6   27.42   12.42
 -22   1  -6   14.58    7.73
 -23  -1  -6  148.37   26.13
 -23   1  -6  140.84   25.11
 -24  -1  -6   17.34    9.58
 -24   1  -6   18.37    9.08
 -25   1  -6   95.68   21.54
 -25  -1  -6   91.31   21.08
 -26   1  -6    5.25    7.61
 -26  -1  -6   26.75   11.69
 -27   1  -6   34.36   14.28
 -27  -1  -6   25.09   11.86
 -28  -1  -6   16.09   13.22
 -28   1  -6    5.09    9.83
 -29   1  -6   18.76    8.33
 -29  -1  -6   17.59   12.26
 -30  -1  -6    9.68    8.83
 -30   1  -6   -5.10   10.89
 -31  -1  -6   18.38   11.60
 -31   1  -6   26.33   17.08
 -30   2   6   15.39    7.70
 -30  -2   6  -10.78   16.27
 -29   2   6   18.06   14.89
 -29  -2   6   -1.99    7.88
 -28   2   6   29.77   17.56
 -28  -2   6    0.20    8.81
 -27  -2   6   37.41   18.63
 -27   2   6   35.75   17.64
 -26  -2   6   -0.06   10.67
 -26   2   6   20.03   12.88
 -25  -2   6   56.50   18.32
 -25   2   6   26.65   11.68
 -24  -2   6   25.96   13.90
 -24   2   6   19.83   13.83
 -23  -2   6   44.03   16.60
 -23   2   6   27.50   14.02
 -22  -2   6   52.10   17.79
 -22   2   6   46.95   17.55
 -21  -2   6   90.49   21.90
 -21   2   6   89.53   22.55
 -20  -2   6   77.09   21.37
 -20   2   6   66.04   19.50
 -20  -2   6   70.04   12.41
 -19   2   6   45.06    9.93
 -19  -2   6   40.60    9.22
 -19  -2   6   38.71   13.30
 -19   2   6   35.39   12.97
 -18   2   6   48.21   10.29
 -18  -2   6   54.84   16.84
 -18   2   6   37.75   13.08
 -18  -2   6   50.25    9.64
 -17   2   6   87.45   13.87
 -17  -2   6   78.19   18.63
 -17   2   6   69.44   16.88
 -17  -2   6   85.53   12.47
 -16   2   6  105.14   14.39
 -16   2   6   94.88   20.33
 -16  -2   6  118.39   21.75
 -16  -2   6  130.72   14.75
 -15   2   6   54.31   10.01
 -15  -2   6   44.33   12.86
 -15   2   6   40.75   12.46
 -15  -2   6   63.06    9.94
 -14  -2   6   40.99   12.86
 -13  -2   6   94.86   18.55
  13   2  -6   88.57   16.45
 -12  -2   6   69.63    9.27
 -12  -2   6   59.99   14.11
  12   2  -6   63.61   13.87
  11  -2  -6   92.68   11.27
 -11  -2   6   92.05   10.23
 -11  -2   6   72.91   15.22
  11   2  -6   99.87   16.35
 -10  -2   6   20.66    4.98
  10  -2  -6   24.42    6.50
 -10  -2   6   23.94    9.56
  10   2  -6   18.93    6.65
  -9  -2   6  117.88   10.65
   9  -2  -6  121.68   12.65
   9   2  -6  126.96   16.80
  -9  -2   6  135.09   18.40
  -8  -2   6   18.67    4.24
   8  -2  -6   20.41    5.45
  -8  -2   6   22.00    7.66
   8   2  -6   14.65    5.21
  -7  -2   6   78.71    8.05
   7  -2  -6   75.27    9.79
  -7  -2   6   70.74   11.97
   7   2  -6   68.17   11.09
  -6  -2   6  434.61   17.34
   6  -2  -6  436.43   22.36
  -6  -2   6  431.34   27.16
   6   2  -6  445.49   26.39
  -5  -2   6   55.51    6.17
   5  -2  -6   51.34    7.67
  -5  -2   6   55.47    9.37
   5   2  -6   47.00    8.04
  -4  -2   6   22.23    3.59
   4  -2  -6   25.28    5.74
  -4  -2   6   26.28    6.24
   4   2  -6   30.27    6.65
   3   2  -6   58.12    5.00
  -3  -2   6   57.91    8.04
  -3  -2   6   53.32    5.19
   3  -2  -6   58.09    8.08
   3   2  -6   50.76    7.25
   2   2  -6   33.51    3.65
  -2  -2   6   32.89    3.93
  -2  -2   6   30.45    5.27
   2  -2  -6   35.51    6.27
   1  -2  -6   27.29    6.17
  -1  -2   6   23.12    3.46
   1   2  -6   26.59    3.19
  -1  -2   6   29.85    3.92
   0  -2   6  143.42    9.14
   0   2  -6  148.83    7.62
   0  -2  -6  135.73   12.47
   1   2   6   69.69   10.51
  -1   2  -6   68.59    5.72
  -1  -2  -6   69.15    9.66
  -2   2  -6    2.54    2.07
   2   2   6    2.94    2.61
  -2  -2  -6   11.05    4.99
  -3   2  -6  105.09    9.11
  -3  -2  -6   95.36   12.18
   3   2   6  107.08   13.70
  -4   2  -6    5.79    3.33
   4   2   6    1.03    2.34
  -4  -2  -6    1.81    3.43
   4   2   6    1.80    3.25
   5   2   6   90.53   11.42
  -5   2  -6   75.24    6.28
  -5  -2  -6   87.98   12.93
   6   2   6  322.21   22.57
  -6   2  -6  320.42   15.13
  -6  -2  -6  313.06   24.74
  -7   2  -6  125.84   10.60
   7   2   6  146.28   16.26
  -7  -2  -6  138.54   17.26
   8   2   6   12.43    5.79
  -8  -2  -6   10.18    6.31
  -8   2  -6    7.63    4.11
  -9  -2  -6   98.15   16.38
  -9  -2  -6  103.03   13.76
  -9   2  -6  117.12   12.99
   9   2   6   86.93   13.84
 -10  -2  -6  209.56   23.90
 -10   2  -6  236.82   19.45
 -10  -2  -6  216.39   20.72
  10   2   6  204.64   22.31
 -11  -2  -6   62.54   11.74
 -11   2  -6   61.23   10.87
  11   2   6   64.46   12.90
 -12  -2  -6   54.34   11.32
  12   2   6   61.11   13.16
 -12   2  -6   56.04   10.62
 -13   2  -6   36.75    9.95
 -13  -2  -6   47.95   11.59
 -14  -2  -6   43.56   11.40
 -14   2  -6   38.58    9.92
 -15   2  -6   42.52   10.89
 -15  -2  -6   42.49   11.13
  16   2   6   36.42   11.73
 -16  -2  -6   35.56   12.10
 -16   2  -6   29.82    9.42
 -17  -2  -6   34.30   11.27
 -17   2  -6   15.79    7.26
  17   2   6   27.98   10.80
 -18  -2  -6   22.70    9.74
 -18   2  -6   31.99   10.60
  18   2   6   10.82    4.18
 -19  -2  -6   20.54    8.20
 -19   2  -6   26.32    9.27
  19   2   6   47.48   13.41
 -20  -2  -6   68.18   17.40
 -20   2  -6   68.25   15.77
  20   2   6   82.42   19.68
 -21   2  -6    7.29    5.56
 -21  -2  -6   36.53   13.43
  21   2   6   27.81   10.92
 -22   2  -6   27.07   10.86
 -22  -2  -6   47.61   14.83
 -23  -2  -6   41.24   14.30
 -23   2  -6   44.18   14.16
 -24  -2  -6   37.39   14.82
 -24   2  -6   48.92   15.75
 -25  -2  -6   30.85   13.77
 -25   2  -6   44.38   15.54
 -26  -2  -6   40.35   16.76
 -26   2  -6   42.73   15.60
 -27  -2  -6   27.75   14.90
 -27   2  -6   13.48    8.08
 -28  -2  -6   25.25   13.27
 -28   2  -6   11.35    6.09
 -29  -2  -6   20.48   11.84
 -29   2  -6   15.96   10.99
 -30  -2  -6   -4.94    6.50
 -30   2  -6   38.88   16.78
 -31   2  -6  -11.15   10.46
 -31  -2  -6   13.49   10.50
 -30   3   6   48.15   23.28
 -30  -3   6   48.57   20.12
 -29  -3   6   -5.25    9.26
 -29   3   6   -4.20    9.00
 -28  -3   6   37.35   18.57
 -28   3   6    8.83    8.09
 -27  -3   6    1.20    8.86
 -27   3   6   -3.12   10.96
 -26  -3   6   23.60   12.50
 -26   3   6   37.12   17.94
 -25  -3   6   -6.33   11.42
 -25   3   6   52.60   18.49
 -24  -3   6   19.52    8.85
 -24   3   6   48.72   18.04
 -23  -3   6   -3.02    6.25
 -23   3   6  -12.97   10.65
 -22  -3   6   71.99   20.03
 -22   3   6   57.72   18.56
 -21  -3   6   18.06   10.70
 -21   3   6   16.49    9.98
 -20  -3   6   36.78   14.48
 -20   3   6   22.97   11.33
 -19   3   6    4.04    4.50
 -19  -3   6    1.56    5.40
 -19   3   6   18.82   12.29
  19   3  -6   15.15    9.98
 -18   3   6  108.85   15.90
 -18  -3   6  114.92   23.73
 -18   3   6   97.87   22.31
  18   3  -6  108.80   22.15
 -17   3   6    1.37    2.95
 -17  -3   6    0.17    6.55
  17   3  -6   -2.84    6.24
 -17   3   6    1.62    5.51
 -16   3   6   89.10   13.64
 -16  -3   6  100.84   20.62
  16   3  -6  114.33   21.58
 -15   3   6    5.78    4.29
 -15  -3   6   16.09   10.80
  15   3  -6   19.28    9.46
 -14  -3   6  108.89   19.97
  14   3  -6  109.48   19.58
 -13  -3   6    5.80    6.17
  13   3  -6   26.90    9.98
  13  -3  -6   14.33    5.39
  12  -3  -6  117.83   13.66
  12   3  -6  145.10   21.31
 -12  -3   6  116.10   19.51
  11  -3  -6    4.70    4.46
 -11  -3   6   -5.42    5.50
  11   3  -6    1.47    4.47
  10  -3  -6  122.51   13.44
 -10  -3   6  140.30   19.29
  10   3  -6  112.02   16.90
 -10  -3   6  132.44   11.46
   9  -3  -6    9.44    3.69
  -9  -3   6   15.36    6.63
   9   3  -6    1.94    3.17
  -9  -3   6   10.89    3.30
  -8  -3   6   87.86    8.39
   8  -3  -6   79.24   10.42
  -8  -3   6   72.26   12.87
   8   3  -6   88.03   14.26
  -7  -3   6   80.18    7.48
   7  -3  -6   72.83    9.97
  -7  -3   6   78.12   12.69
   7   3  -6   78.06   12.20
   6   3  -6   91.86   12.96
  -6  -3   6  113.39    8.48
   6  -3  -6   98.54   11.35
  -6  -3   6   99.31   13.51
   5   3  -6  161.37   16.23
  -5  -3   6  182.42    9.67
  -5  -3   6  189.99   17.27
   5  -3  -6  178.76   14.96
  -4  -3   6   82.00    6.05
  -4  -3   6   83.64   10.84
   4   3  -6   88.29   11.16
   4  -3  -6   75.46    9.90
  -3  -3   6    0.36    2.78
  -3  -3   6    0.05    0.97
   3   3  -6   -0.43    2.63
   3  -3  -6    4.40    2.78
   2   3  -6   48.55    7.12
  -2  -3   6   43.69    6.36
  -2  -3   6   38.36    3.38
   2  -3  -6   48.02    7.59
   1  -3  -6    9.06    3.39
   1   3  -6    6.99    2.19
   0   3  -6  120.60    8.76
   0  -3  -6  146.96   14.15
  -1   3  -6    9.74    1.59
  -1   3  -6   10.86    2.42
  -1  -3  -6    7.18    3.59
  -2  -3  -6  123.70   13.73
  -2   3  -6  110.01    6.79
  -3  -3  -6   51.54    9.94
  -3   3  -6   46.00    5.60
   4   3   6  207.43   18.32
  -4  -3  -6  205.06   19.23
  -5  -3  -6   37.64    8.69
  -5   3  -6   30.72    4.48
   5   3   6   37.49    8.52
  -6  -3  -6  242.07   22.71
   6   3   6  235.99   21.10
  -6   3  -6  222.28   13.26
   7   3   6   58.11   10.68
  -7  -3  -6   47.55   10.93
  -7   3  -6   53.73    7.34
   8   3   6  126.40   16.91
  -8   3  -6  141.49   13.22
  -8  -3  -6  126.31   17.57
  -9  -3  -6    7.30    4.08
   9   3   6    7.58    4.38
  -9   3  -6    4.08    3.50
 -10  -3  -6  136.02   17.20
  10   3   6  144.77   19.60
 -10   3  -6  152.57   15.87
 -10  -3  -6  159.95   21.82
 -11  -3  -6   60.42   13.97
 -11  -3  -6   60.64   11.80
  11   3   6   58.29   13.46
 -11   3  -6   81.55   12.26
 -12  -3  -6  130.37   21.01
 -12  -3  -6  102.42   16.28
 -12   3  -6  103.23   14.52
 -13  -3  -6   31.91    9.82
 -13  -3  -6   32.39   10.45
 -13   3  -6   43.05   10.19
 -14   3  -6   99.50   15.83
  14   3   6   75.83   16.58
 -14  -3  -6   90.80   15.99
 -15  -3  -6    4.50    5.35
 -15   3  -6   -2.24    3.88
  15   3   6   -6.11    7.30
 -16  -3  -6   59.45   14.37
 -16   3  -6   45.39   11.40
  16   3   6   66.52   16.69
 -17   3  -6    3.77    3.47
 -17  -3  -6    0.49    6.04
  17   3   6   -2.63    6.49
 -18   3  -6   15.67    7.04
  18   3   6   39.38   13.87
 -18  -3  -6   37.90   12.64
 -19  -3  -6   10.19    7.95
 -19   3  -6    4.17    6.20
 -20  -3  -6   60.33   16.17
 -20   3  -6   86.52   18.61
  20   3   6   60.01   17.30
 -21   3  -6    8.28    5.66
 -21  -3  -6    1.34    6.19
 -22   3  -6   54.50   15.79
 -22  -3  -6   47.79   14.94
 -23  -3  -6   -0.93    6.20
 -23   3  -6    9.55    7.10
 -24  -3  -6   42.47   14.71
 -24   3  -6   16.28    9.74
 -25  -3  -6    3.15    5.16
 -25   3  -6   13.61   10.22
 -26   3  -6   37.18   14.37
 -26  -3  -6   43.82   15.46
 -27   3  -6   -1.63    8.81
 -27  -3  -6   14.11    8.42
 -28   3  -6   25.31    8.58
 -28  -3  -6    7.00   10.77
 -29  -3  -6   -1.07    8.95
 -29   3  -6  -12.09   13.83
 -30   3  -6  -27.16   14.25
 -30  -3  -6    6.52    5.71
 -31   3  -6  -56.57   19.51
 -29  -4   6   18.91   13.05
 -29   4   6   46.28   20.67
 -28  -4   6   11.01   12.18
 -28   4   6    9.70    8.43
 -27  -4   6   17.01   13.25
 -27   4   6   19.98   17.16
 -26  -4   6   22.79   11.00
 -26   4   6  131.21   46.77
 -25  -4   6    6.99    6.39
 -25   4   6   12.17    9.49
 -24  -4   6   20.38   10.73
 -24   4   6   25.68   14.41
 -23  -4   6   95.14   24.08
 -23   4   6   90.85   24.44
 -22  -4   6   16.70   13.02
 -22   4   6    4.99    8.03
 -21  -4   6   27.37   12.08
 -21   4   6   32.28   15.92
 -20  -4   6   24.34   12.54
 -20   4   6   17.34   11.60
 -19  -4   6   63.26   18.57
 -19   4   6   80.07   20.92
 -18  -4   6    2.20    6.70
 -18   4   6   11.35    6.85
  18   4  -6    9.04    6.99
 -17   4   6  110.93   16.22
 -17  -4   6  116.44   23.04
  17   4  -6   99.17   20.95
 -16   4   6   82.62   13.50
 -16  -4   6   81.49   19.10
  16   4  -6   79.99   17.91
 -15   4   6  132.63   16.97
 -15  -4   6   99.95   20.48
  15   4  -6   96.48   19.12
 -14  -4   6   90.35   18.25
  14   4  -6   95.63   18.95
  14  -4  -6  108.01   14.05
  13  -4  -6  157.42   16.58
 -13  -4   6  153.49   23.17
  13   4  -6  176.84   25.29
  12  -4  -6  109.70   13.72
 -12  -4   6   99.35   18.18
  12   4  -6   94.60   17.69
  11  -4  -6  173.08   17.05
 -11  -4   6  167.53   23.01
  11   4  -6  165.49   22.62
 -10  -4   6   92.30   16.30
  10  -4  -6   74.05   11.25
  10   4  -6   64.33   13.78
   9  -4  -6  111.22   13.32
  -9  -4   6  107.05   16.88
   9   4  -6  113.38   17.55
   8  -4  -6   11.70    4.93
  -8  -4   6    9.47    4.55
   8   4  -6   12.35    6.33
  -7  -4   6   75.75   13.14
   7   4  -6  106.20   16.20
   7  -4  -6   84.59   11.43
   6   4  -6    7.79    5.49
   6  -4  -6    8.40    4.82
  -6  -4   6    5.69    5.12
  -6  -4   6    1.89    2.01
  -5  -4   6  151.71    8.30
   5   4  -6  143.95   16.69
   5  -4  -6  162.34   15.21
  -5  -4   6  130.08   14.95
  -4  -4   6   67.99    4.92
   4  -4  -6   57.02    9.01
   4   4  -6   58.59   10.03
  -4  -4   6   62.86    9.28
  -3  -4   6   45.06    8.12
   3   4  -6   41.57    7.99
  -3  -4   6   40.45    3.29
   3  -4  -6   46.95    8.35
   2  -4  -6    9.24    4.22
   2   4  -6   12.47    4.97
   1  -4  -6  211.96   17.86
   1   4  -6  230.49   15.80
   0  -4  -6   20.14    5.60
   0   4  -6   27.57    5.30
  -1   4  -6  173.82   11.62
  -1  -4  -6  186.92   17.27
  -2   4  -6   73.78    7.25
  -2  -4  -6   65.25   10.56
  -3  -4  -6  213.83   20.28
  -3   4  -6  177.80    9.40
  -4  -4  -6   11.19    6.47
   4   4   6    4.84    5.19
   5   4   6  311.22   24.95
  -5  -4  -6  284.39   24.62
   6   4   6  200.21   20.73
  -6  -4  -6  197.29   21.29
  -7  -4  -6  174.77   20.84
   7   4   6  167.26   19.61
   8   4   6   33.06    8.89
  -8  -4  -6   42.56   10.37
  -9  -4  -6  100.58   17.22
   9   4   6   87.18   15.45
  -9   4  -6   93.33   11.79
 -10  -4  -6   16.25    8.44
 -10   4  -6   16.11    5.75
 -11  -4  -6  105.07   18.49
 -11   4  -6   96.63   13.58
 -12  -4  -6    8.17    5.38
 -12   4  -6   15.05    6.39
 -12  -4  -6   11.89    7.39
 -13  -4  -6   81.10   17.57
  13   4   6   81.32   17.13
 -13  -4  -6   82.86   15.42
 -13   4  -6  101.67   15.02
  14   4   6    7.02    5.09
 -14   4  -6    3.51    4.62
 -14  -4  -6    2.57    6.91
 -14  -4  -6    9.38    7.19
  15   4   6   50.13   13.93
 -15  -4  -6   51.45   13.54
 -15   4  -6   64.26   13.57
 -15  -4  -6   50.31   15.03
 -16  -4  -6   20.67    7.95
  16   4   6   18.62    8.52
 -16   4  -6   16.68    7.73
 -16  -4  -6   32.70   12.06
  17   4   6   50.85   14.41
 -17   4  -6   33.60   11.12
 -17  -4  -6   48.78   13.30
 -18  -4  -6    6.96    5.01
 -18   4  -6   -9.33    9.01
  18   4   6    8.78    7.56
 -19  -4  -6   72.11   17.32
 -19   4  -6   78.56   16.90
  19   4   6   76.19   20.13
 -20  -4  -6   37.48   13.23
 -20   4  -6   46.58   13.75
 -21  -4  -6   63.20   17.14
 -21   4  -6   79.53   17.86
 -22  -4  -6   26.08   11.56
 -22   4  -6   32.61   12.22
 -23  -4  -6   49.58   15.50
 -23   4  -6   29.20   12.18
 -24  -4  -6   17.39   11.14
 -24   4  -6   17.58   10.58
 -25  -4  -6   54.81   17.41
 -25   4  -6   59.87   16.96
 -26   4  -6    9.18   10.02
 -26  -4  -6   -4.63   10.02
 -27  -4  -6   16.07    9.42
 -27   4  -6   26.62   13.43
 -28  -4  -6  -12.89   10.80
 -28   4  -6    3.18    7.41
 -29   4  -6  -15.95   11.02
 -29  -4  -6   11.31    9.09
 -30  -4  -6    2.72    9.26
 -30   4  -6   43.60   21.49
 -29  -5   6   21.62   16.07
 -29   5   6   35.02   17.48
 -28  -5   6    1.58    6.64
 -28   5   6   44.70   24.34
 -27  -5   6   53.30   21.34
 -27   5   6   47.62   22.45
 -26  -5   6   -5.45    8.34
 -26   5   6   12.99   12.51
 -25  -5   6   22.65   14.09
 -25   5   6   26.78   15.45
 -24  -5   6   43.91   16.76
 -24   5   6   49.35   18.50
 -23  -5   6   36.52   14.84
 -23   5   6   29.00   13.11
 -22  -5   6   22.85   13.31
 -22   5   6   24.38   15.37
 -21  -5   6   48.71   16.90
 -21   5   6   74.25   21.67
 -20  -5   6   65.36   19.40
 -19  -5   6   53.89   16.59
 -18  -5   6   50.17   14.88
  18   5  -6   70.63   19.07
 -17  -5   6   99.17   21.37
 -17   5   6   70.02   13.23
  17   5  -6   49.08   15.42
 -16  -5   6   92.46   20.08
 -16   5   6   86.24   14.54
  16   5  -6   65.90   16.85
 -15   5   6  184.72   20.49
 -15  -5   6  145.75   23.83
  15   5  -6  155.48   25.84
  15  -5  -6  181.27   18.93
  14  -5  -6   93.97   13.74
 -14   5   6   97.12   14.80
 -14  -5   6  101.55   19.64
  14   5  -6  114.91   20.87
  13  -5  -6  181.86   18.36
  13   5  -6  169.62   25.11
 -13  -5   6  167.35   24.21
 -12  -5   6  103.70   19.07
  12  -5  -6   81.29   12.45
  12   5  -6   91.12   18.41
  11  -5  -6  170.03   17.18
 -11  -5   6  150.71   21.79
  11   5  -6  184.29   27.68
  10  -5  -6  120.86   14.42
 -10  -5   6   83.45   15.87
  10   5  -6  110.24   18.78
   9   5  -6   31.97   10.31
   9  -5  -6   52.75   10.00
  -9  -5   6   53.33   11.70
   8  -5  -6   60.35    9.96
   8   5  -6   49.01   11.55
  -8  -5   6   71.56   13.92
  -7  -5   6  189.70   20.05
   7  -5  -6  184.99   17.02
   7   5  -6  166.82   20.31
  -6  -5   6   99.05   13.80
   6  -5  -6  103.57   12.92
   6   5  -6   95.23   15.23
  -5  -5   6   58.19   10.33
   5   5  -6   52.22   11.08
   5  -5  -6   62.62   10.27
   4   5  -6   77.58   12.85
   4  -5  -6   85.50   11.95
  -4  -5   6   87.26   12.04
  -4  -5   6   75.90    4.98
   3   5  -6    6.51    3.70
   3  -5  -6    5.93    3.39
   2   5  -6  106.20   12.77
   2  -5  -6  101.50   12.97
   1  -5  -6  160.46   16.43
   1   5  -6  158.82   14.75
   0  -5  -6  157.11   16.50
   0   5  -6  133.62   13.04
  -1   5  -6  172.83   13.78
  -1  -5  -6  183.89   19.04
  -2  -5  -6  195.88   19.20
  -3   5  -6   70.36    4.22
  -3  -5  -6   84.88   13.34
  -4   5  -6  223.62    9.17
  -4  -5  -6  186.35   20.02
  -5   5  -6  179.36    9.25
   5   5   6  203.59   21.86
  -5  -5  -6  180.70   20.21
  -6   5  -6  151.53    9.32
  -6  -5  -6  112.71   16.50
  -7   5  -6  184.37   11.23
  -7  -5  -6  166.42   21.29
  -8  -5  -6   65.01   13.88
  -8   5  -6   90.06    8.51
  -9  -5  -6  103.98   17.16
  -9   5  -6  106.96    9.83
 -10  -5  -6   49.49   11.60
  11   5   6   44.78   12.83
 -11  -5  -6   45.92   12.75
  12   5   6   38.91   12.10
 -12  -5  -6   25.74    9.93
 -12   5  -6   46.19   10.73
 -13  -5  -6   11.42    6.58
  13   5   6   25.40   10.51
 -13   5  -6   14.10    6.09
 -14  -5  -6   27.56   11.24
  14   5   6   26.81    9.93
 -14   5  -6   33.72   10.19
 -15  -5  -6   47.89   13.50
 -15  -5  -6   42.82   13.87
  15   5   6   55.88   15.62
 -15   5  -6   26.51    8.98
 -16  -5  -6   23.70   10.26
 -16  -5  -6   17.60    7.75
  16   5   6   30.94   12.74
 -16   5  -6   15.02    6.99
 -17  -5  -6   15.51    8.28
  17   5   6    6.20    6.32
 -17  -5  -6   21.17   10.80
 -17   5  -6   20.92    9.53
 -18  -5  -6   78.67   19.99
 -18  -5  -6   73.41   17.40
  18   5   6   72.13   19.57
 -18   5  -6   68.82   15.14
 -19  -5  -6   72.33   18.85
 -19  -5  -6   77.16   18.27
 -19   5  -6   55.94   14.26
 -20  -5  -6   41.30   14.18
 -20   5  -6   32.88   11.11
 -20  -5  -6   40.69   14.97
 -21  -5  -6   45.30   16.23
 -21  -5  -6   47.91   15.26
 -21   5  -6   49.12   15.12
 -22  -5  -6   12.85    5.24
 -22   5  -6   19.70   10.48
 -22  -5  -6   23.36   12.55
 -23   5  -6   29.54   12.83
 -23  -5  -6   44.87   16.15
 -24  -5  -6   21.63   13.54
 -24   5  -6   31.88   13.34
 -25  -5  -6   28.71   10.90
 -25   5  -6   32.05   13.41
 -26  -5  -6   28.75   13.96
 -26   5  -6   14.90    8.32
 -27  -5  -6   49.21   17.79
 -27   5  -6   30.19   12.40
 -28   5  -6   32.54   15.50
 -28  -5  -6   12.69   10.05
 -29  -5  -6    1.03    7.77
 -29   5  -6   -0.76    5.61
 -30   5  -6   32.41   13.91
 -28  -6   6    7.56    7.97
 -28   6   6   24.27   15.13
 -27   6   6   14.09   12.25
 -27  -6   6   12.70    7.78
 -26  -6   6   63.22   21.54
 -26   6   6   34.24   17.54
 -25  -6   6    1.15    9.74
 -25   6   6   15.46   10.41
 -24  -6   6   36.60   16.17
 -24   6   6   30.67   15.07
 -23  -6   6    7.58    8.62
 -23   6   6  -13.76   13.60
 -22  -6   6   55.15   18.65
 -21  -6   6   68.19   20.61
 -20  -6   6   75.78   19.90
 -19  -6   6   31.10   14.00
 -18  -6   6   82.63   20.86
 -17  -6   6   31.75   13.72
  17   6  -6   49.29   18.89
 -16  -6   6   46.30   13.84
 -16   6   6   45.66   11.60
  16   6  -6   55.90   17.97
  16  -6  -6   57.85   11.16
  15  -6  -6   49.13   10.55
 -15  -6   6   44.42   14.57
 -15   6   6   42.32   10.36
  15   6  -6   32.93   13.68
  14  -6  -6  115.12   16.15
 -14   6   6  140.77   18.43
 -14  -6   6  110.13   20.80
  14   6  -6  109.45   21.43
  13  -6  -6   36.46    8.63
 -13  -6   6   37.02   12.48
  13   6  -6   42.77   14.22
 -13   6   6   44.10   10.80
  12  -6  -6  101.32   14.34
 -12  -6   6   89.65   17.72
 -12   6   6  101.44   15.41
  12   6  -6  123.00   21.88
  11  -6  -6   27.17    7.83
 -11  -6   6   24.56    9.51
  11   6  -6   34.45   11.42
  10  -6  -6   53.71   10.15
 -10  -6   6   69.80   15.15
  10   6  -6   57.91   14.35
  -9  -6   6   12.62    7.43
   9  -6  -6   24.35    7.18
   9   6  -6    2.07    5.61
   8  -6  -6   96.29   13.04
  -8  -6   6   84.70   14.43
   8   6  -6  102.37   17.62
   7  -6  -6   67.24   11.06
   7   6  -6   57.83   12.71
  -7  -6   6   60.88   11.81
  -6  -6   6  124.12   16.39
   6  -6  -6  102.39   13.16
   6   6  -6   96.60   15.78
   5   6  -6   10.60    4.43
  -5  -6   6   14.31    4.07
   4   6  -6  223.34   21.99
  -4  -6   6  227.02   11.59
   4  -6  -6  238.47   20.51
   3   6  -6   65.67   11.39
  -3  -6   6   65.93    4.55
   3  -6  -6   57.19   10.71
   2   6  -6   81.71   12.18
   2  -6  -6   96.25   13.39
   1  -6  -6   46.95    9.83
   1   6  -6   39.37    8.37
   0  -6  -6  177.31   18.23
   0   6  -6  153.15   15.10
  -1   6  -6   58.76    9.44
  -1  -6  -6   58.72   10.97
  -2  -6  -6  143.88   17.52
  -3  -6  -6   75.74   13.14
  -3   6  -6   64.64    4.39
  -4  -6  -6  425.77   31.29
  -4   6  -6  419.98   13.08
  -5  -6  -6   55.08   12.17
  -5   6  -6   61.80    5.80
  -6   6  -6   47.74    5.59
  -6  -6  -6   52.93   11.95
  -7   6  -6   42.01    5.63
  -7  -6  -6   24.65    9.40
   7   6   6   23.19    8.96
  -8   6  -6  107.17    9.37
   8   6   6   92.26   17.41
  -8  -6  -6  108.81   18.70
  -9   6  -6   17.22    4.25
   9   6   6   15.32    8.18
  -9  -6  -6   18.26    8.31
 -10   6  -6  133.13   11.86
  10   6   6  124.47   21.15
 -10  -6  -6  120.10   19.92
 -11  -6  -6    8.97    8.04
 -11   6  -6   20.31    5.52
  11   6   6   13.20    5.10
 -12   6  -6   95.75   11.21
 -12  -6  -6   99.70   19.01
  12   6   6  101.75   20.18
 -13   6  -6    0.49    2.46
 -13  -6  -6    4.89    8.13
  13   6   6    7.06    6.39
 -14   6  -6  105.60   12.90
  14   6   6   71.73   18.09
 -14  -6  -6   84.41   18.53
 -14   6  -6   62.67   13.00
  15   6   6   -6.75    6.16
 -15   6  -6   -3.91    6.24
 -15  -6  -6    4.92    7.07
 -16   6  -6   36.42    8.51
 -16  -6  -6   23.55   11.74
  16   6   6   35.93   15.11
 -16   6  -6   45.47   12.30
 -17   6  -6   37.32    8.55
 -17  -6  -6   13.40    8.64
 -17   6  -6   15.02    7.59
 -18   6  -6  130.72   17.11
 -18  -6  -6   97.84   21.56
 -18  -6  -6   76.10   20.86
 -18   6  -6   91.50   17.89
 -19   6  -6   43.24    9.84
 -19   6  -6   40.12   13.38
 -19  -6  -6   32.74   14.53
 -19  -6  -6   42.96   15.35
 -20  -6  -6   41.11   15.30
 -20   6  -6   32.12   11.13
 -20  -6  -6   36.04   12.78
 -21  -6  -6    1.86    6.60
 -21  -6  -6    4.77    6.83
 -21   6  -6    4.99    7.53
 -22  -6  -6    7.88    7.20
 -22  -6  -6   23.54   11.63
 -22   6  -6    7.60    7.11
 -23   6  -6   22.37   10.45
 -23  -6  -6   34.85   14.98
 -23  -6  -6   25.04   12.06
 -24  -6  -6   36.70   16.89
 -24  -6  -6   34.06   13.47
 -24   6  -6   55.90   17.88
 -25  -6  -6   -1.08    6.42
 -25  -6  -6   11.91    8.30
 -25   6  -6    8.19   10.36
 -26  -6  -6   14.95    7.72
 -26   6  -6   38.34   16.54
 -27   6  -6    1.42    7.75
 -27  -6  -6    2.60    5.99
 -28   6  -6   32.05   16.01
 -28  -6  -6    7.88    6.81
 -29   6  -6   33.55   14.03
 -27  -7   6    0.33   10.75
 -27   7   6    5.94   12.71
 -26  -7   6    3.78    6.29
 -26   7   6  -33.23   17.51
 -25  -7   6   -3.29    7.97
 -25   7   6   35.57   18.39
 -24  -7   6    4.35    7.28
 -23  -7   6   -4.87   13.20
 -22  -7   6    2.69    7.37
 -21  -7   6   34.78   15.28
 -20  -7   6    5.41    7.51
 -19  -7   6   34.78   14.75
 -18  -7   6   -4.58    7.92
 -17  -7   6   16.48   11.05
  17  -7  -6   25.81    8.28
  16  -7  -6   -1.07    4.12
 -16  -7   6    1.36    6.87
  16   7  -6   -6.18    8.68
  15  -7  -6    6.01    4.78
 -15  -7   6   -4.58    7.92
  15   7  -6    2.49    6.89
  14  -7  -6   -1.27    2.72
 -14  -7   6   -4.55    5.89
  14   7  -6    8.29    8.65
 -14   7   6    0.67    4.80
  13  -7  -6   27.89    9.00
  13   7  -6   21.40    9.30
 -13  -7   6   29.96   11.30
 -13   7   6   35.31   10.28
  12  -7  -6    0.63    3.77
  12   7  -6   13.24    8.05
 -12   7   6    8.83    5.27
 -12  -7   6   -5.15    7.05
 -11  -7   6   13.83    6.96
  11   7  -6   14.24    8.68
 -11   7   6    7.32    5.20
  11  -7  -6   21.38    7.04
  10  -7  -6   -2.04    4.45
  10   7  -6   -3.94    5.48
 -10  -7   6   -1.21    4.53
 -10   7   6    3.07    4.44
  -9   7   6   57.22   11.91
   9  -7  -6   62.01   11.44
   9   7  -6   61.59   15.29
  -9  -7   6   57.54   12.99
  -8  -7   6    0.74    4.14
   8  -7  -6    4.16    4.18
   8   7  -6   10.36    7.81
  -7  -7   6   22.46    6.22
   7   7  -6   19.13    9.16
   7  -7  -6   17.37    6.48
  -6  -7   6    2.87    3.07
   6   7  -6    1.67    4.80
   6  -7  -6    4.79    3.97
   5   7  -6  121.71   18.32
  -5  -7   6  152.14   11.36
   5  -7  -6  148.43   16.64
   4   7  -6   -1.38    4.33
  -4  -7   6    2.88    1.30
   4  -7  -6   10.33    4.80
   3   7  -6   69.96   12.36
  -3  -7   6   71.59    5.52
   3  -7  -6   72.61   12.08
   2   7  -6    0.16    3.04
  -2  -7   6    1.19    0.72
   2  -7  -6    0.27    2.99
   1  -7  -6   45.33    9.69
   1   7  -6   39.40    9.10
   0  -7  -6   -2.92    4.25
   0   7  -6    1.59    2.82
  -1   7  -6   84.32   12.43
  -1  -7  -6   79.59   13.33
  -2  -7  -6   -0.95    3.51
  -3   7  -6   80.24    5.98
  -3  -7  -6  109.59   15.96
  -4  -7  -6    8.99    5.40
  -4   7  -6    3.14    1.61
   5   7   6   84.71   16.59
  -5   7  -6   87.63    7.25
  -5  -7  -6   87.01   15.72
  -6  -7  -6   -2.39    4.80
  -6   7  -6    2.81    2.09
   6   7   6    5.06    5.05
  -7  -7  -6   12.28    7.12
  -7   7  -6   13.42    3.30
   7   7   6   18.60    8.40
   8   7   6  -12.21    7.76
  -8  -7  -6   -4.30    5.53
  -9   7  -6   68.79    8.23
   9   7   6   48.26   13.24
  -9  -7  -6   66.60   15.82
 -10  -7  -6   -0.71    5.50
 -10   7  -6    3.06    1.98
 -11   7  -6   83.90   10.28
  11   7   6   78.97   17.97
 -11  -7  -6   57.59   15.69
 -12   7  -6    5.19    2.97
  12   7   6    3.40    6.73
 -12  -7  -6    3.79    5.80
 -13   7  -6   93.82   11.67
 -13  -7  -6   78.56   18.61
  13   7   6   94.60   20.84
 -14  -7  -6   -6.91    8.22
 -14   7  -6    3.06    3.19
 -15   7  -6   33.50    7.53
 -15  -7  -6   25.21    9.87
 -16   7  -6   13.65    5.36
 -16  -7  -6    4.39    7.36
 -16   7  -6   14.52    7.51
 -17   7  -6   78.17   12.55
 -17  -7  -6   65.91   18.05
 -17   7  -6   70.58   16.31
 -18   7  -6    3.05    2.96
 -18   7  -6    9.24    8.68
 -18  -7  -6    6.19    6.86
 -19  -7  -6   29.13   13.93
 -19   7  -6   53.22   11.97
 -19   7  -6   56.60   15.77
 -20  -7  -6   -2.00    8.44
 -20   7  -6    0.45    5.41
 -21  -7  -6    3.92    6.85
 -21   7  -6   11.54    8.39
 -22   7  -6   -2.45    8.07
 -22  -7  -6    4.84    9.49
 -23  -7  -6   25.26   12.92
 -23  -7  -6   37.37   14.03
 -23   7  -6   -0.72    8.12
 -24  -7  -6    9.48   10.40
 -24  -7  -6  -14.72   11.32
 -24   7  -6    4.62    9.34
 -25   7  -6   37.81   14.88
 -25  -7  -6   36.06   15.69
 -25  -7  -6   21.45   15.28
 -26  -7  -6   -6.37   11.40
 -26   7  -6   -1.36   12.76
 -27   7  -6   62.03   20.78
 -27  -7  -6   24.04   10.58
 -28   7  -6   12.02    8.80
 -26  -8   6  -13.01   12.96
 -26   8   6   -8.55   17.33
 -25  -8   6   -7.59    6.59
 -24  -8   6   42.50   16.45
 -23  -8   6   10.46   10.83
 -22  -8   6   -1.67    8.97
 -21  -8   6   15.56   11.29
 -20  -8   6   -2.65    6.40
 -19  -8   6    5.41    9.28
 -18  -8   6    1.02    7.62
  17  -8  -6   19.20    8.32
 -17  -8   6   17.45   11.31
  16  -8  -6   12.38    6.50
 -16  -8   6    1.93    6.06
  15  -8  -6   22.74    7.60
 -15  -8   6   21.36   12.49
  14  -8  -6   -3.76    5.14
  14   8  -6   12.65    9.44
 -14  -8   6    3.51    4.91
  13  -8  -6   36.98    9.86
 -13  -8   6   50.03   14.46
  13   8  -6   31.71   12.54
 -13   8   6   36.27   10.73
  12  -8  -6    8.86    5.22
 -12  -8   6   20.48    9.85
  12   8  -6    6.62    7.34
 -12   8   6   10.29    5.86
  11   8  -6   29.69   12.56
 -11   8   6   15.23    7.94
 -11  -8   6   16.63    8.95
  11  -8  -6   18.37    7.21
 -10   8   6    9.68    4.83
 -10  -8   6    5.90    5.09
  10  -8  -6    6.12    4.76
  10   8  -6    9.51    8.87
 -10  -8   6    7.36    5.08
  -9   8   6    3.06    2.96
  -9  -8   6   11.01    5.53
   9  -8  -6   -0.04    2.90
   9   8  -6    2.10    4.91
  -8   8   6   10.69    5.37
  -8  -8   6   17.93    5.99
   8  -8  -6    3.20    2.92
   8   8  -6    7.61    6.52
  -7   8   6   12.04    6.89
   7   8  -6   12.43    7.65
   7  -8  -6    7.19    5.31
  -7  -8   6    6.49    3.46
  -6  -8   6   20.23    4.82
  -6   8   6   33.17    9.01
   6   8  -6    7.76    3.99
   6  -8  -6   26.45    7.29
  -5   8   6    5.30    4.95
   5   8  -6    3.99    3.53
   5  -8  -6   -0.02    3.29
  -5  -8   6    2.41    1.89
   4   8  -6    9.10    5.68
  -4   8   6    6.39    4.47
   4  -8  -6   17.45    5.69
  -4  -8   6   14.53    3.35
   3   8  -6   17.00    7.84
   3  -8  -6   18.27    6.33
  -3   8   6    8.37    5.48
  -3  -8   6   14.34    2.92
  -2   8   6   20.42    7.83
   2   8  -6   18.91    7.28
  -2  -8   6   21.24    3.12
   2  -8  -6   16.47    6.48
  -1  -8   6   18.05    2.52
   1  -8  -6   23.75    8.17
  -1   8   6   16.05    7.99
   1   8  -6   19.11    7.23
   0  -8  -6   -3.27    4.17
   0   8  -6    7.10    4.39
   0   8   6   -1.82    5.55
   0  -8   6    3.03    0.91
  -1   8  -6   70.42   12.78
  -1  -8  -6   65.98   12.56
   1   8   6   44.51   12.90
   2   8   6   14.44    8.00
  -2  -8  -6   30.23    8.37
  -3  -8  -6   43.29   10.67
  -3   8  -6   34.42    4.94
   3   8   6   57.81   14.30
   4   8   6    5.88    6.59
  -4  -8  -6    9.86    6.63
  -4   8  -6   12.63    3.19
   5   8   6   23.35    9.58
  -5   8  -6   24.95    4.42
  -5  -8  -6   24.72    8.98
   5   8   6   31.30   12.22
   6   8   6   19.30    8.86
  -6  -8  -6   33.55   10.55
   6   8   6   28.72   10.76
  -6   8  -6   30.33    5.05
  -7  -8  -6   14.95    7.58
   7   8   6    7.31    5.83
  -7   8  -6   11.56    3.16
  -8  -8  -6    3.99    4.32
   8   8   6    0.84    5.46
  -8   8  -6    3.09    2.57
   9   8   6   13.09    7.98
  -9   8  -6    7.11    3.33
  -9  -8  -6    9.83    7.11
 -10  -8  -6    3.13    6.01
  10   8   6   10.80    8.87
 -10   8  -6    9.79    3.54
  11   8   6    8.91    5.16
 -11  -8  -6   14.69    8.47
 -11   8  -6   22.06    5.57
  12   8   6   27.13   12.06
 -12  -8  -6   32.78   11.89
 -12   8  -6   44.35    7.85
 -13  -8  -6    8.73    6.74
 -13   8  -6   18.63    5.79
 -14   8  -6   13.88    5.05
 -14  -8  -6   15.47    9.32
 -15  -8  -6    8.21    8.36
 -15   8  -6    6.97    4.05
 -16  -8  -6   31.01   13.10
 -16   8  -6   29.49    7.70
 -17   8  -6   13.93    4.94
 -17  -8  -6    8.93    6.77
 -18  -8  -6   16.56   11.77
 -18   8  -6   19.52    6.85
 -18   8  -6   19.62    9.96
 -19   8  -6   -2.94    5.33
 -19   8  -6    7.36    8.12
 -19  -8  -6   13.85   10.01
 -20  -8  -6   11.02   11.01
 -20   8  -6   16.40   11.85
 -21  -8  -6   -5.05    8.82
 -21   8  -6   -4.71    7.99
 -22  -8  -6    0.90    7.72
 -22   8  -6   -3.64    5.88
 -23   8  -6   28.76   14.91
 -23  -8  -6    8.69   12.49
 -24   8  -6   12.63   10.23
 -24  -8  -6   14.02   10.95
 -25   8  -6   -2.83    9.11
 -26   8  -6   21.19   12.14
 -27   8  -6    5.16   11.05
 -25  -9   6   -0.22   11.33
 -24  -9   6   19.68   15.23
 -23  -9   6    8.34   11.55
 -22  -9   6   10.08   10.63
 -21  -9   6    3.76    9.22
 -20  -9   6   10.66   11.38
 -19  -9   6   12.42   10.67
 -18  -9   6   58.98   17.88
  18  -9  -6   44.99   11.53
 -17  -9   6   -0.41    8.16
  17  -9  -6   11.00    5.85
  16  -9  -6   64.27   13.68
 -16  -9   6   73.14   19.12
  15  -9  -6   -2.36    4.92
 -15  -9   6    5.40    7.63
 -14  -9   6   48.00   15.56
  14  -9  -6   50.61   11.61
 -13  -9   6    2.33    4.15
  13  -9  -6    5.74    5.21
 -13  -9   6    7.01    6.67
  13   9  -6   10.83    7.20
  12   9  -6   80.17   20.23
 -12  -9   6   53.35   12.61
  12  -9  -6   75.37   13.51
 -11  -9   6    5.16    3.97
  11  -9  -6    0.52    4.16
  11   9  -6   12.49    8.62
 -10   9   6   27.49    9.60
  10  -9  -6   23.59    7.69
 -10  -9   6   23.22    7.67
  10   9  -6   28.50   12.02
  -9  -9   6   -0.73    2.60
  -9   9   6   -0.28    3.38
   9  -9  -6    0.17    3.46
   9   9  -6   -9.50    7.27
  -8   9   6    8.09    5.15
  -8  -9   6   15.73    5.16
   8   9  -6   17.53    8.30
   8  -9  -6   18.38    7.69
  -7  -9   6    6.04    3.48
  -7   9   6   -0.50    4.72
   7   9  -6   -4.37    7.03
   7  -9  -6    6.67    5.65
  -6   9   6   31.47   10.15
   6  -9  -6   33.56    9.11
   6   9  -6   19.17   10.33
  -6  -9   6   25.98    5.93
  -5  -9   6    4.53    2.47
   5   9  -6    8.18    6.37
   5  -9  -6    2.46    4.15
  -5   9   6    5.89    3.12
  -4  -9   6   33.16    5.42
   4  -9  -6   23.87    8.05
   4   9  -6   36.91   11.25
  -4   9   6   32.80   10.30
  -3   9   6    4.47    5.59
   3   9  -6   -4.37    5.23
  -3  -9   6   -0.15    1.53
   3  -9  -6    3.55    4.29
   2   9  -6   80.78   15.12
  -2  -9   6   75.47    6.64
  -2   9   6   69.89   15.30
   2  -9  -6   80.95   13.74
   1  -9  -6   -4.59    4.03
  -1  -9   6   -1.38    1.18
   1   9  -6    3.36    4.73
  -1   9   6    5.52    5.50
   0  -9   6   80.66    6.03
   0   9  -6   68.66   13.32
   0  -9  -6   96.07   15.54
   0   9   6   66.15   15.58
  -1  -9  -6    0.29    2.85
  -1   9  -6   -3.39    4.66
   1   9   6   -3.49    6.66
  -2  -9  -6  125.01   17.87
   2   9   6   98.04   18.95
  -3  -9  -6    1.15    6.58
   3   9   6    4.26    4.29
  -3   9  -6    2.44    2.39
  -4  -9  -6   98.05   16.74
   4   9   6  102.51   20.61
  -4   9  -6  104.75   10.15
   5   9   6  -11.29    9.80
   5   9   6    2.17    4.85
  -5  -9  -6   -0.96    3.53
  -5   9  -6   -2.80    1.96
   6   9   6   61.26   17.65
   6   9   6   68.61   16.63
  -6  -9  -6   55.07   12.71
  -6   9  -6   73.19    8.52
   7   9   6    8.94    9.07
  -7   9  -6    5.81    2.98
  -7  -9  -6    7.65    5.75
   8   9   6   43.93   13.39
  -8   9  -6   42.31    7.09
  -8  -9  -6   43.59   12.63
  -9  -9  -6    3.53    6.11
  -9   9  -6   11.49    4.09
   9   9   6   -1.99    4.54
 -10  -9  -6   62.40   15.18
 -10   9  -6   69.30    9.70
 -11  -9  -6    3.56    6.62
 -11   9  -6   -0.64    2.53
 -12  -9  -6   53.63   14.96
 -12   9  -6   59.70    9.50
 -13   9  -6   -1.79    2.60
 -13  -9  -6   -5.02    4.55
 -14  -9  -6   17.03    8.38
 -14   9  -6   41.26    8.77
 -15   9  -6    2.98    3.97
 -15  -9  -6   -2.45    4.88
 -16   9  -6   55.67   10.25
 -16  -9  -6   65.99   17.84
 -17   9  -6    2.34    2.46
 -17  -9  -6    2.42    6.83
 -18  -9  -6   50.03   16.05
 -18   9  -6   44.02   10.31
 -19  -9  -6    3.48    7.27
 -19   9  -6   10.19    8.52
 -20  -9  -6   44.54   16.02
 -20   9  -6   48.50   15.24
 -21  -9  -6   -4.21    7.99
 -21   9  -6    2.64    8.12
 -22  -9  -6   39.37   15.05
 -22   9  -6   37.72   15.37
 -23   9  -6   11.80   12.61
 -24   9  -6   56.97   20.34
 -25   9  -6  -15.84   10.85
 -24 -10   6    8.79    9.03
 -23 -10   6   38.51   15.18
 -22 -10   6   -8.31   13.71
 -21 -10   6   46.49   17.02
 -20 -10   6   19.04   12.60
 -19 -10   6   76.62   21.87
  18 -10  -6   13.51    6.23
 -18 -10   6   12.80    9.08
  17 -10  -6   70.22   14.24
 -17 -10   6   86.86   18.86
  16 -10  -6   -5.19    5.13
 -16 -10   6   -3.42    6.72
 -16 -10   6    5.69    6.82
  15 -10  -6   99.51   16.68
 -15 -10   6   86.10   17.30
  14 -10  -6  -10.71    6.02
 -14 -10   6    7.72    6.57
  13 -10  -6   62.10   12.99
 -13 -10   6   77.86   16.14
 -12 -10   6    3.55    4.18
  12 -10  -6    9.40    4.52
 -11 -10   6   52.50   11.94
  11  10  -6   79.02   20.47
  11 -10  -6   49.49   11.09
  10 -10  -6    2.15    3.53
  10  10  -6    5.42    6.17
 -10 -10   6    7.57    5.33
  -9 -10   6   38.56    8.94
   9 -10  -6   35.40   10.24
   9  10  -6   56.95   17.45
  -8 -10   6    6.84    3.69
   8 -10  -6    2.16    3.92
   7  10  -6   36.14   12.82
   7 -10  -6   39.34   10.18
  -7  10   6   44.62   12.34
  -7 -10   6   38.64    7.60
   6  10  -6   14.91    8.81
  -6 -10   6   16.01    4.64
   6 -10  -6   14.32    6.42
  -6  10   6   28.89   13.74
  -5 -10   6   51.97    7.49
   5  10  -6   46.86   14.03
   5 -10  -6   42.40   10.44
  -5  10   6   57.14   14.18
   4  10  -6   19.30    9.22
   4 -10  -6   16.61    6.75
  -4 -10   6   22.70    4.92
  -4  10   6    4.20    3.67
  -3  10   6   49.96   13.21
  -3 -10   6   72.32    7.91
   3  10  -6   50.53   13.63
   3 -10  -6   52.44   11.74
   2  10  -6   10.13    4.47
  -2 -10   6   12.77    3.35
  -2  10   6    5.23    4.49
   2 -10  -6   12.20    6.20
  -1 -10   6   98.31    8.20
  -1  10   6   92.50   18.93
   1  10  -6   80.01   16.17
   1 -10  -6  100.02   16.39
   0 -10  -6   11.03    6.26
   0 -10   6    3.03    1.21
   0  10   6   -3.34    6.73
   0  10  -6    8.46    5.95
   1 -10   6  126.56    8.47
   1  10   6  139.46   23.38
  -1  10  -6  126.33   19.66
  -1 -10  -6  142.33   19.93
  -2 -10  -6    5.23    4.59
   2  10   6   16.52   10.10
  -3 -10  -6  115.87   18.55
  -3  10  -6   99.61   10.87
   3  10   6   92.73   20.21
  -4 -10  -6   10.83    6.68
  -4  10  -6    7.49    3.17
  -5  10  -6  105.08   11.59
  -5 -10  -6   92.84   17.73
  -6 -10  -6  -11.94    6.99
  -6  10  -6    1.79    1.99
  -7 -10  -6   66.85   15.73
  -7  10  -6  111.24   12.12
  -8  10  -6   -1.43    2.35
  -8 -10  -6    3.51    6.25
  -9  10  -6   98.34   12.06
  -9 -10  -6   75.43   17.44
 -10 -10  -6    2.45    5.91
 -10  10  -6    3.67    3.07
 -11 -10  -6   62.34   16.73
 -11  10  -6   74.44   10.90
 -12 -10  -6    6.65    7.84
 -12  10  -6    5.31    4.08
 -13 -10  -6   51.06   15.61
 -13  10  -6   55.44   10.07
 -14  10  -6    8.22    4.11
 -14 -10  -6   -4.11    6.26
 -15 -10  -6   45.33   15.97
 -15  10  -6   52.52   10.88
 -16  10  -6    1.16    3.38
 -16 -10  -6    6.01    4.73
 -17  10  -6   49.04   10.63
 -17 -10  -6   66.71   20.17
 -18 -10  -6    8.20   10.32
 -19 -10  -6   52.53   18.28
 -20 -10  -6  -13.93   10.38
 -20  10  -6    4.55    5.37
 -21  10  -6   58.51   19.06
 -21 -10  -6   45.88   16.85
 -22  10  -6   -8.52   11.41
 -23  10  -6   58.92   19.43
 -24  10  -6  -11.36   10.04
 -26 -11   6   17.91   11.80
 -25 -11   6    3.11    8.41
 -24 -11   6   30.43   15.67
 -23 -11   6    9.23   10.31
 -23 -11   6    6.29    6.09
 -22 -11   6   30.00   14.19
 -22 -11   6   43.08   18.71
 -21 -11   6   21.92   13.69
 -21 -11   6   -9.77    8.41
 -20 -11   6   58.63   18.17
 -20 -11   6   31.57   16.22
 -19 -11   6    9.14   10.97
  19 -11  -6   17.63    8.77
  18 -11  -6   70.72   14.84
 -18 -11   6   64.66   18.19
 -17 -11   6   15.85    8.77
  17 -11  -6   19.30    8.79
  16 -11  -6   99.25   17.62
 -16 -11   6   62.11   16.03
  15 -11  -6   17.90    7.46
 -15 -11   6    1.80    4.41
  14 -11  -6   98.23   16.97
 -14 -11   6   88.15   17.17
  13 -11  -6    0.14    5.09
 -13 -11   6   -3.01    5.07
 -12 -11   6   46.16   11.38
  12 -11  -6   70.52   14.07
  11 -11  -6   39.35   10.37
 -11 -11   6   13.18    5.40
 -10 -11   6   82.61   13.47
  10 -11  -6   57.02   12.41
   9 -11  -6    5.16    4.67
  -9 -11   6    0.62    3.46
   8 -11  -6   67.77   13.49
   8  11  -6   53.59   16.40
  -8 -11   6   72.11   11.60
  -7 -11   6   33.37    7.34
   7 -11  -6   36.49    9.64
   7  11  -6   29.50   11.08
   6  11  -6   81.36   18.82
   6 -11  -6   64.58   12.77
  -6 -11   6   72.42   10.27
  -5 -11   6   15.07    4.67
   5  11  -6   23.52    9.46
   5 -11  -6   17.94    7.69
   4 -11  -6   55.45   12.69
   4  11  -6   57.43   15.00
  -4 -11   6   73.79    9.24
   3  11  -6   14.58    8.18
  -3 -11   6   22.58    5.09
   3 -11  -6    3.43    4.02
   2  11  -6   78.45   17.59
   2 -11  -6   88.85   15.88
  -2 -11   6   86.99    9.01
   1  11  -6    8.10    6.45
  -1 -11   6   14.21    3.62
   1 -11  -6   15.73    7.49
   0 -11  -6   87.15   15.86
   0 -11   6   84.16    8.09
   0  11  -6  100.42   19.52
  -1 -11  -6    6.71    4.14
   1 -11   6    9.48    2.86
  -1  11  -6   26.14   10.95
  -2 -11  -6   67.46   14.34
  -2  11  -6   89.11   18.50
   2 -11   6   94.28    8.24
  -3 -11  -6   18.71    6.45
  -3  11  -6    6.79    3.73
  -4 -11  -6   67.90   15.42
  -4  11  -6   86.07   11.54
  -5 -11  -6    6.56    5.06
  -5  11  -6   -3.22    2.61
  -6  11  -6   95.48   12.54
  -6 -11  -6   86.39   17.87
  -7 -11  -6    5.35    7.40
  -7  11  -6    9.77    4.64
  -8 -11  -6  113.31   20.65
  -8  11  -6  116.53   14.00
  -9  11  -6   -3.25    4.39
  -9 -11  -6   11.96    9.36
 -10  11  -6   69.43   10.95
 -10 -11  -6   43.34   15.22
 -11  11  -6    6.57    3.03
 -11 -11  -6   17.38   10.84
 -12 -11  -6   61.70   17.24
 -12  11  -6   62.95   10.83
 -13 -11  -6   20.84   12.82
 -13  11  -6    0.45    4.81
 -14 -11  -6   49.81   18.43
 -14  11  -6   36.22    8.82
 -15 -11  -6    2.27    5.55
 -16 -11  -6   28.31   13.66
 -17 -11  -6   30.11   14.27
 -18 -11  -6   37.18   16.36
 -19 -11  -6   -2.20    7.34
 -20 -11  -6   21.62   13.66
 -21  11  -6   -3.19    8.00
 -22  11  -6   63.31   22.16
 -26 -12   6    1.81    9.99
 -25 -12   6   23.93   14.28
 -24 -12   6   12.66   13.20
 -23 -12   6    9.80   10.19
 -22 -12   6    2.39    7.38
 -21 -12   6    8.20    8.64
 -20 -12   6   16.59   11.65
 -19 -12   6   14.10    8.35
  19 -12  -6   54.53   14.33
  18 -12  -6    6.19    4.20
 -18 -12   6   -0.28    5.62
  17 -12  -6   57.89   13.44
 -17 -12   6   42.66   14.68
  16 -12  -6    1.02    4.74
 -16 -12   6    3.12    6.75
  15 -12  -6   64.60   14.82
 -15 -12   6   67.84   15.53
  14 -12  -6   17.65    8.36
 -14 -12   6    0.79    5.89
  13 -12  -6   70.36   15.09
 -13 -12   6   65.07   13.85
  12 -12  -6    2.65    5.17
 -12 -12   6    7.30    6.57
 -11 -12   6   45.53   11.03
  11 -12  -6   41.68   11.04
  10 -12  -6   20.29    8.42
 -10 -12   6   12.88    6.04
  -9 -12   6   57.29   11.20
   9 -12  -6   47.79   12.09
   8 -12  -6    5.84    5.95
  -8 -12   6    9.35    5.08
  -7 -12   6   45.38    9.05
   7 -12  -6   55.08   12.76
  -6 -12   6    4.82    3.31
   6 -12  -6    5.58    5.37
   5  12  -6   39.96   13.90
   5 -12  -6   53.98   12.11
  -5 -12   6   62.04    9.86
   4  12  -6   -1.95    5.63
   4 -12  -6   11.23    6.50
  -4 -12   6    1.81    2.65
   3  12  -6   63.25   17.73
  -3 -12   6   77.60    9.54
   3 -12  -6   84.81   15.68
   2  12  -6   22.86   11.48
   2 -12  -6   10.26    6.32
  -2 -12   6   12.37    3.90
  -1 -12   6   65.27    8.25
   1  12  -6   48.49   14.14
   1 -12  -6   59.57   13.52
   0  12  -6   -1.51    9.48
   0 -12   6    6.27    2.83
   0 -12  -6  -10.76    6.42
  -1 -12  -6   35.91   10.79
   1 -12   6   48.54    6.75
  -1  12  -6   48.07   14.11
  -2 -12  -6   14.69    8.02
  -2  12  -6   12.26    9.03
   2 -12   6    4.26    1.74
  -3 -12  -6   31.68   11.60
  -4 -12  -6    7.02    7.80
  -4  12  -6   16.89    6.59
  -5  12  -6   36.45    8.75
  -5 -12  -6   60.37   14.23
  -6 -12  -6    5.26    5.94
  -6  12  -6   16.58    6.66
  -7  12  -6   69.77   11.85
  -7 -12  -6   69.18   17.06
  -8 -12  -6    1.04    5.99
  -8  12  -6   -3.67    4.88
  -9  12  -6   57.76   11.19
  -9 -12  -6   53.47   16.10
 -10  12  -6   20.96    6.68
 -10 -12  -6    5.89    7.56
 -11 -12  -6   25.44   13.73
 -12 -12  -6  -12.16    8.49
 -13 -12  -6   19.46   11.41
 -14 -12  -6   -1.69    5.77
 -15 -12  -6    0.07    6.10
 -16 -12  -6   -1.82    7.94
 -17 -12  -6   13.53    9.34
 -18 -12  -6   15.32   10.96
 -24 -13   6   15.97   12.44
 -23 -13   6    6.56    9.74
 -22 -13   6   15.13   10.78
 -21 -13   6    5.72    7.82
 -20 -13   6   17.35   14.23
 -19 -13   6    0.70    6.85
  19 -13  -6    4.20    6.51
  18 -13  -6   18.67    9.13
 -18 -13   6    6.79    5.08
  17 -13  -6   -1.28    4.32
 -17 -13   6  -15.70    8.48
  16 -13  -6   13.77    8.76
 -16 -13   6    3.16    4.95
  15 -13  -6   13.17    7.10
 -15 -13   6    9.94    6.43
  14 -13  -6   17.11    8.61
 -14 -13   6   25.69   10.28
 -13 -13   6    6.10    4.81
  13 -13  -6    9.16    7.42
  12 -13  -6   28.10    9.31
 -12 -13   6   30.80   10.00
 -11 -13   6    0.36    4.30
  11 -13  -6  -10.93    7.38
 -10 -13   6   14.94    6.47
  10 -13  -6   27.27    9.83
   9 -13  -6   12.54    7.78
  -9 -13   6    8.48    5.33
  -8 -13   6   24.53    7.33
   8 -13  -6   16.44    6.40
  -7 -13   6    5.85    3.63
   7 -13  -6   -0.09    4.46
   6 -13  -6   23.30    8.65
  -6 -13   6   19.04    6.05
   5 -13  -6   12.76    7.74
  -5 -13   6   -3.49    3.58
  -4 -13   6   28.68    6.93
   4 -13  -6   25.02    9.57
  -3 -13   6   -0.96    2.73
   3 -13  -6    7.03    4.81
   2 -13  -6   19.66    8.65
  -2 -13   6   15.49    5.07
  -1 -13   6    0.91    2.00
   1 -13  -6   -8.77    6.76
   0 -13   6   18.86    5.07
   0 -13  -6    3.20    3.87
   1 -13   6    0.22    1.96
  -1 -13  -6    4.41    5.45
  -2 -13  -6   19.78    8.74
   2 -13   6   17.68    4.53
  -3 -13  -6    3.25    6.29
  -4 -13  -6    6.54    7.68
  -4  13  -6    0.84    4.75
  -5 -13  -6    3.05    5.72
  -6 -13  -6   11.23    8.68
  -7 -13  -6  -12.57    7.84
  -8 -13  -6    6.78    5.61
  -9 -13  -6  -15.26    8.78
 -10 -13  -6   20.92   10.69
 -11 -13  -6    9.05    6.06
 -12 -13  -6   17.17   12.31
 -13 -13  -6    1.67    7.94
 -14 -13  -6    5.82    7.78
 -15 -13  -6    5.84    8.54
 -16 -13  -6   -4.29    5.88
  18 -14  -6    2.76    5.45
  17 -14  -6    3.32    4.37
 -17 -14   6    0.70    3.92
  16 -14  -6    6.17    5.29
 -16 -14   6    0.56    4.80
 -15 -14   6    5.54    6.55
  15 -14  -6   -1.55    4.12
  14 -14  -6    3.07    4.16
 -14 -14   6   -7.39    7.34
 -13 -14   6    8.99    6.01
  13 -14  -6    6.14    6.16
  12 -14  -6   -2.65    5.86
 -12 -14   6    2.52    3.64
 -11 -14   6   12.38    6.33
  11 -14  -6   11.30    7.47
  10 -14  -6   -1.94    5.21
 -10 -14   6   -5.12    5.16
  -9 -14   6    2.54    3.43
   9 -14  -6   -2.47    4.90
  -8 -14   6    2.45    3.30
   8 -14  -6  -12.60    7.12
   7 -14  -6    6.26    5.27
  -7 -14   6    8.42    4.48
   6 -14  -6   -5.55    5.25
  -6 -14   6   -6.77    3.95
   5 -14  -6   -1.91    4.95
  -5 -14   6   -1.24    2.98
  -4 -14   6   -1.23    2.82
   4 -14  -6   -0.35    5.77
  -3 -14   6    7.71    4.13
   3 -14  -6    8.69    7.00
  -2 -14   6    2.67    2.11
   2 -14  -6   -5.95    5.96
  -1 -14   6   45.52    7.31
   1 -14  -6   -3.52    5.41
   0 -14  -6   -6.00    7.92
  -1 -14  -6   -4.99    5.78
  -2 -14  -6  -10.29    6.77
  -3 -14  -6    4.95    5.71
  -4 -14  -6    6.06    4.64
  -5 -14  -6    7.86    6.33
  -6 -14  -6    5.73    7.03
  -7 -14  -6   -6.26    6.26
  -8 -14  -6   -3.62    8.99
  -9 -14  -6    3.16    5.63
 -10 -14  -6   -5.52    6.15
 -11 -14  -6    0.71    5.45
 -12 -14  -6  -10.37    8.09
 -13 -14  -6    1.11    5.48
 -14 -14  -6    0.50    7.69
  15 -15  -6    7.55    7.03
  14 -15  -6   10.68    9.10
  13 -15  -6    2.34    5.96
  12 -15  -6    0.10    3.46
  11 -15  -6    4.54    4.87
  10 -15  -6   -9.58    9.00
   9 -15  -6    4.89    5.31
   8 -15  -6   11.30    7.58
   7 -15  -6   -2.74    4.46
   6 -15  -6   -1.40    4.65
   5 -15  -6    4.65    4.62
   4 -15  -6    5.32    5.88
   3 -15  -6   -9.54    6.57
   2 -15  -6   -8.26    6.38
   1 -15  -6    7.73    7.00
   0 -15  -6    4.10    7.03
  -1 -15  -6   11.61    7.34
  -2 -15  -6    0.34    4.70
  -3 -15  -6   -2.69    4.02
  -4 -15  -6   -2.24    5.77
  -5 -15  -6    5.10    6.22
  -6 -15  -6    0.48    7.97
  -7 -15  -6    0.70    5.26
  -8 -15  -6   -4.98    5.85
  -9 -15  -6  -13.03    8.43
 -10 -15  -6    2.55    7.52
 -11 -15  -6    2.95    6.11
  12 -16  -6  -19.80    9.17
  11 -16  -6    5.42    6.03
  10 -16  -6  -14.76    8.16
   9 -16  -6   -5.19    5.77
   8 -16  -6    0.67    5.04
   7 -16  -6   -7.99    6.35
   6 -16  -6   -4.87    5.40
   5 -16  -6    4.87    5.56
   4 -16  -6    6.44    5.16
   3 -16  -6   -4.12    5.43
   2 -16  -6    2.44    4.48
   1 -16  -6   -2.85    5.01
   0 -16  -6   13.67    8.68
  -1 -16  -6  -15.59    8.35
  -2 -16  -6    1.37    4.04
  -3 -16  -6    0.16    5.56
  -4 -16  -6   -9.54    7.31
  -5 -16  -6   -8.74    7.20
  -6 -16  -6   14.56   10.47
  -7 -16  -6   11.20   10.09
  -8 -16  -6    0.49    6.92
   6 -17  -6   -0.60    6.13
   5 -17  -6   -4.23    5.58
   4 -17  -6   -6.25    5.90
   3 -17  -6    2.48    4.17
   2 -17  -6    2.82    4.13
   1 -17  -6   -3.91    5.18
   0 -17  -6  -25.74   10.69
  -1 -17  -6  -16.36    8.84
 -30   0   7   42.55   19.97
 -29   0   7  -18.04   17.79
 -28   0   7   11.06    9.84
 -27   0   7   -6.63   11.02
 -26   0   7    5.17    7.61
 -25   0   7    0.06    7.29
 -24   0   7  -14.90   13.46
 -23   0   7   -1.71    7.97
 -22   0   7   -2.00    6.91
 -21   0   7   -2.15    7.72
 -20   0   7   -1.10    2.43
 -20   0   7   -0.21    5.93
 -19   0   7   -1.89    2.70
 -19   0   7   -2.55    6.14
 -18   0   7    0.14    2.57
 -18   0   7    1.35    7.00
 -17   0   7    6.89    8.55
 -17   0   7   -3.06    3.36
 -16   0   7   -1.96    4.67
 -16   0   7    3.50    7.67
 -15   0   7    0.27    2.39
 -15   0   7   -0.74    5.75
 -14   0   7   -1.80    3.38
 -14   0   7   -4.81    7.51
 -13   0   7   -0.17    4.61
 -12   0   7   -4.03    6.02
 -11   0   7    1.22    2.21
 -11   0   7    1.75    4.61
 -10   0   7   -0.19    1.98
 -10   0   7    3.33    4.16
   9   0  -7    3.85    3.15
  -9   0   7    2.63    3.25
  -9   0   7    9.80    6.53
   8   0  -7   -2.01    2.32
  -8   0   7   -0.67    2.16
  -8   0   7   -0.55    3.20
   7   0  -7    5.15    3.33
  -7   0   7    1.57    1.99
  -7   0   7    0.18    3.50
   6   0  -7    2.18    2.25
  -6   0   7    1.97    2.68
   5   0  -7    2.65    1.65
  -5   0   7   -1.22    2.22
  -4   0   7    1.09    2.24
   4   0  -7   -0.62    1.86
  -3   0   7    0.73    2.29
   3   0  -7   -0.79    1.73
  -2   0   7    0.00    1.85
   2   0  -7   -0.18    1.57
  -1   0   7    0.80    2.09
   1   0  -7    0.87    1.82
   0   0  -7    1.02    2.49
   0   0   7    4.43    3.77
   1   0   7    0.88    3.59
  -1   0  -7   -4.38    3.28
   2   0   7    2.26    3.16
  -2   0  -7   -0.14    3.06
   2   0   7    0.16    1.33
  -3   0  -7    5.93    4.38
   3   0   7    0.08    1.67
   4   0   7    0.50    2.01
  -4   0  -7   -0.70    3.30
   5   0   7   -1.30    2.33
  -5   0  -7   -3.74    4.13
   6   0   7   -2.62    2.82
  -6   0  -7    1.85    3.81
  -7   0  -7    5.62    5.69
   7   0   7    3.91    4.19
  -8   0  -7    2.49    3.03
  -8   0  -7   -2.26    3.06
   8   0   7    1.85    2.51
  -9   0  -7    5.47    6.46
  -9   0  -7    1.38    3.00
   9   0   7    1.69    2.37
 -10   0  -7    2.48    4.08
  10   0   7   -1.20    3.94
 -11   0  -7    1.34    4.24
  11   0   7    0.50    2.78
 -12   0  -7   -0.20    2.68
  12   0   7    3.69    3.51
 -13   0  -7   -1.42    3.82
  13   0   7    2.50    3.57
 -14   0  -7    2.38    3.58
  14   0   7    0.28    3.27
 -15   0  -7   -0.48    3.27
 -16   0  -7   -1.05    5.80
 -17   0  -7   -3.55    3.88
 -18   0  -7   -4.13    5.34
 -19   0  -7    5.64    6.63
 -20   0  -7   -9.19    9.24
 -21   0  -7    1.97    6.60
 -22   0  -7    9.30    8.68
 -23   0  -7   -0.16    5.09
 -24   0  -7  -11.71    8.95
 -25   0  -7    4.09    6.31
 -26   0  -7   -0.59    7.73
 -27   0  -7    6.48    6.27
 -28   0  -7   -0.92    6.19
 -29   0  -7    8.84   11.31
 -30   0  -7    8.10    7.27
 -30  -1   7   -0.15    7.46
 -30   1   7   -8.59   12.55
 -29  -1   7   71.57   24.59
 -29   1   7   56.49   22.79
 -28  -1   7    2.24    5.69
 -28   1   7  -17.55   13.35
 -27  -1   7   59.40   21.50
 -27   1   7   34.08   16.81
 -26  -1   7  -13.13   14.12
 -26   1   7   -1.32    9.56
 -25  -1   7   44.96   17.19
 -25   1   7   44.82   17.48
 -24  -1   7   -7.01   11.14
 -24   1   7   12.04   10.16
 -23  -1   7   79.10   22.01
 -23   1   7   93.04   23.73
 -22  -1   7   -4.51    7.38
 -22   1   7    6.25    8.57
 -21  -1   7  139.79   27.73
 -21   1   7  123.37   26.35
 -20  -1   7   -3.24    3.49
 -20   1   7   -2.75    6.08
 -20  -1   7    0.07    7.72
 -19  -1   7   12.31    4.71
 -19   1   7    5.78    2.38
 -19  -1   7   -3.46   11.21
 -19   1   7    1.59    7.57
 -18  -1   7    6.47    3.29
 -18   1   7    5.19    2.83
 -18  -1   7    0.04    6.72
 -18   1   7   11.09    8.37
 -17  -1   7  191.38   19.06
 -17  -1   7  188.64   28.59
 -17   1   7  167.07   18.52
 -17   1   7  167.34   26.60
 -16  -1   7    8.30    4.55
 -16   1   7    9.48    4.81
 -16  -1   7    0.52    6.17
 -16   1   7    1.71    5.97
 -15  -1   7  261.81   21.18
 -15   1   7  248.61   21.53
 -15  -1   7  262.34   31.67
 -15   1   7  240.67   30.17
 -14   1   7    9.27    4.94
 -14  -1   7    7.17    6.75
 -14   1   7    7.56    6.01
 -13  -1   7  208.28   25.82
 -13   1   7  186.82   17.91
 -13   1   7  182.98   24.23
 -12  -1   7   11.82    5.13
 -12   1   7   20.25    8.47
 -11  -1   7  349.76   21.20
 -11  -1   7  354.92   31.35
 -11   1   7  329.82   30.76
  11  -1  -7  361.35   21.95
  10  -1  -7   10.11    3.92
 -10   1   7    4.89    2.15
 -10  -1   7   11.31    3.95
 -10  -1   7    0.68    4.72
   9  -1  -7  346.63   20.58
  -9  -1   7  359.73   20.04
  -9   1   7  339.95   21.58
  -9  -1   7  341.29   28.08
   8  -1  -7    1.53    2.89
  -8  -1   7    8.19    3.49
  -8   1   7    1.87    2.26
  -8  -1   7   -0.54    4.27
   7  -1  -7  355.76   19.96
  -7  -1   7  346.10   25.64
  -7  -1   7  375.60   19.00
  -7   1   7  346.49   21.04
   7   1  -7  367.59   17.47
   6   1  -7    5.24    2.65
   6  -1  -7   -0.64    3.32
  -6  -1   7    1.58    1.87
  -6  -1   7    7.09    4.61
  -6   1   7    5.72    3.46
   5   1  -7  113.26    9.32
  -5  -1   7  103.33   12.47
  -5  -1   7  114.42   10.00
  -5   1   7  117.41   11.78
   5  -1  -7  109.29   10.70
  -4   1   7    4.60    2.70
   4   1  -7    7.02    2.99
  -4  -1   7    4.15    3.70
   4  -1  -7    3.58    3.11
  -4  -1   7    5.63    3.21
   3  -1  -7  213.20   14.82
   3   1  -7  204.47   11.91
  -3  -1   7  220.03   15.40
  -3  -1   7  205.39   12.73
  -3   1   7  200.97   15.38
  -2  -1   7    6.03    2.64
   2   1  -7    3.89    2.08
  -2   1   7    7.00    3.69
  -2  -1   7    6.47    2.78
   2  -1  -7    5.40    3.55
  -1   1   7  188.26   15.25
  -1  -1   7  158.86   11.79
   1   1  -7  175.92   10.98
  -1  -1   7  179.17   10.65
   1  -1  -7  167.47   13.51
   0   1  -7    5.32    2.12
   0   1   7    4.62    3.26
   0  -1   7    3.60    2.14
   0  -1   7    1.34    1.35
   0  -1  -7    3.32    3.12
   1   1   7  313.03   21.57
   1  -1   7  319.93   18.51
  -1   1  -7  300.73   15.48
  -1  -1  -7  302.32   18.75
   2   1   7   39.74    8.44
  -2  -1  -7   34.96    6.73
  -2   1  -7   36.07    6.15
   3   1   7  309.66   23.31
  -3  -1  -7  354.57   22.16
   3   1   7  344.61   17.69
  -3   1  -7  325.72   18.51
   4   1   7   21.08    5.27
  -4  -1  -7   17.29    6.70
  -4   1  -7   18.33    5.29
  -5  -1  -7  295.41   22.59
  -5   1  -7  309.77   20.98
   5   1   7  329.79   19.70
  -6   1  -7   13.21    5.95
  -6  -1  -7   12.59    6.14
   6   1   7   20.15    6.38
  -7   1  -7  736.40   35.94
  -7  -1  -7  663.57   36.86
   7   1   7  703.68   32.86
  -7   1  -7  713.16   23.90
  -8  -1  -7   17.89    6.86
   8   1   7   12.50    5.67
  -8   1  -7   15.78    5.17
  -9  -1  -7  176.35   16.43
  -9   1  -7  178.93   15.02
   9   1   7  155.11   17.51
  -9  -1  -7  152.59   19.73
 -10  -1  -7    2.60    3.42
 -10   1  -7   17.01    4.91
  10   1   7   16.07    6.70
 -10  -1  -7   16.51    8.17
 -11  -1  -7  121.43   15.42
 -11   1  -7  127.26   14.48
  11   1   7  104.82   15.52
 -12  -1  -7    2.93    3.76
 -12   1  -7    1.31    3.49
  12   1   7    4.08    5.45
 -13  -1  -7   72.08   13.01
 -13   1  -7   81.82   13.03
  13   1   7   59.70   13.63
 -14  -1  -7   -4.14    6.19
 -14   1  -7    3.11    3.79
 -15  -1  -7   41.76   10.80
 -15   1  -7   26.05    8.47
 -16  -1  -7   -0.45    3.63
 -16   1  -7   -0.51    5.49
 -17  -1  -7   57.48   14.06
 -17   1  -7   26.96    8.53
  17   1   7   50.68   13.55
 -18  -1  -7    1.02    5.02
 -18   1  -7    2.74    5.01
  18   1   7    6.25    5.86
 -19  -1  -7   40.30   12.76
 -19   1  -7   49.52   13.27
  19   1   7   56.35   14.56
 -20  -1  -7    1.77    7.85
 -20   1  -7    5.54    7.75
  20   1   7   -2.94    5.30
 -21  -1  -7  136.22   23.82
 -21   1  -7  142.99   23.92
 -22   1  -7    7.45    8.82
 -22  -1  -7    5.45    7.33
 -23   1  -7   42.41   14.70
 -23  -1  -7   28.68   12.02
 -24  -1  -7    0.42    5.45
 -24   1  -7   16.30    9.78
 -25  -1  -7   50.42   16.49
 -25   1  -7   47.12   16.30
 -26  -1  -7   -1.15    5.08
 -26   1  -7   13.56    9.57
 -27  -1  -7   25.39   11.93
 -27   1  -7   81.10   20.00
 -28  -1  -7   28.40   15.66
 -28   1  -7   -3.63    9.23
 -29  -1  -7   33.60   16.40
 -29   1  -7    7.68    6.92
 -30   1  -7  -15.77   11.04
 -30  -1  -7   13.69   10.41
 -30  -2   7  133.55   33.39
 -30   2   7  124.47   33.01
 -29  -2   7   62.78   46.04
 -29   2   7   12.59    9.91
 -28   2   7  282.69   51.81
 -28  -2   7  196.04   39.08
 -27  -2   7   20.21   15.81
 -27   2   7   -8.19   13.67
 -26  -2   7  157.96   32.70
 -26   2   7  131.61   31.47
 -25  -2   7  -12.14    8.89
 -25   2   7   27.40   18.33
 -24  -2   7  258.31   39.97
 -24   2   7  263.42   40.71
 -23  -2   7   14.07   12.16
 -23   2   7   18.86   15.74
 -22  -2   7  295.98   41.73
 -22   2   7  254.27   38.47
 -21  -2   7    5.61    8.18
 -21   2   7  -11.05   11.32
 -20  -2   7  181.90   20.23
 -20  -2   7  182.47   30.68
 -20   2   7  205.52   32.89
 -19  -2   7   -4.81    4.49
 -19   2   7   10.71    5.04
 -19  -2   7   14.33   12.16
 -19   2   7    4.83    7.38
 -18  -2   7  325.39   25.20
 -18   2   7  309.81   26.32
 -18  -2   7  298.96   37.33
 -18   2   7  312.36   37.63
 -17  -2   7   22.87    6.06
 -17   2   7   14.16    5.80
 -17  -2   7   15.45    7.05
 -17   2   7   19.07    8.43
 -16  -2   7  624.23   32.90
 -16   2   7  639.39   36.29
 -16  -2   7  580.07   48.60
 -16   2   7  651.28   51.72
 -15  -2   7   16.83    5.35
 -15   2   7   22.46    6.64
 -15  -2   7   21.22    7.90
 -15   2   7   27.42   10.59
 -14   2   7  600.33   33.68
 -14  -2   7  555.59   45.02
 -13   2   7   33.07    8.53
 -13  -2   7   47.12   13.41
  12  -2  -7  700.79   32.62
 -12  -2   7  722.28   30.91
 -12   2   7  676.10   34.15
 -12  -2   7  725.95   47.72
  11  -2  -7   36.95    7.83
 -11  -2   7   37.40    7.02
 -11  -2   7   45.92   11.92
  10  -2  -7  759.52   32.62
 -10  -2   7  773.38   29.18
 -10  -2   7  749.48   44.44
  -9  -2   7   17.37    6.95
  -9  -2   7   14.97    4.21
   9  -2  -7   22.45    5.57
   8  -2  -7  944.37   35.13
  -8  -2   7  884.61   28.78
  -8   2   7  896.41   36.55
  -8  -2   7  872.57   43.70
   7  -2  -7   -0.24    2.73
  -7  -2   7   -1.18    3.45
  -7   2   7   -1.31    2.75
  -7  -2   7   -0.99    1.62
   6  -2  -7  239.90   17.46
  -6  -2   7  262.38   14.40
  -6  -2   7  260.07   21.58
  -6   2   7  259.00   19.21
  -5   2   7   -2.22    2.66
   5  -2  -7    0.46    2.17
  -5  -2   7    0.53    3.49
  -5  -2   7    3.00    2.23
   4   2  -7  346.04   13.67
  -4  -2   7  358.18   21.65
   4  -2  -7  327.87   19.73
  -4  -2   7  351.48   15.38
  -4   2   7  324.81   21.24
  -3  -2   7   17.02    3.26
   3   2  -7   18.41    3.18
  -3   2   7   19.23    5.52
  -3  -2   7   16.84    3.95
   3  -2  -7   13.35    3.72
   2   2  -7  423.29   14.23
  -2  -2   7  445.23   19.04
   2  -2  -7  404.30   22.13
  -2  -2   7  411.65   15.87
  -2   2   7  445.51   24.82
   1  -2  -7   22.35    5.46
  -1  -2   7   23.08    4.03
  -1  -2   7   20.04    3.60
   1   2  -7   24.48    3.48
  -1   2   7   18.08    5.65
   0   2   7  301.52   21.77
   0   2  -7  301.33   12.45
   0  -2   7  303.87   15.24
   0  -2  -7  319.40   20.29
   1   2   7   17.08    6.00
  -1  -2  -7   20.14    5.87
  -1   2  -7   16.71    3.45
  -2  -2  -7  876.62   35.38
   2   2   7  844.20   39.34
  -2   2  -7  840.50   24.05
  -3   2  -7   72.39    8.03
   3   2   7   59.78   11.22
  -3  -2  -7   63.52   10.15
  -4  -2  -7  749.80   35.62
   4   2   7  720.55   30.79
  -4   2  -7  764.72   28.19
   4   2   7  708.47   38.55
   5   2   7   33.05    7.29
  -5  -2  -7   31.88    8.57
  -5   2  -7   49.38    8.13
  -6   2  -7 1095.96   23.92
  -6   2  -7 1162.69   40.72
   6   2   7 1103.67   42.20
  -6  -2  -7 1100.25   47.33
  -7  -2  -7   42.77    9.89
  -7   2  -7   44.94    6.20
   7   2   7   56.56   10.82
  -8   2  -7 1072.67   32.87
   8   2   7  969.27   44.00
  -8  -2  -7 1057.13   49.91
  -9   2  -7   50.95    7.99
   9   2   7   56.86   11.55
  -9  -2  -7   54.21   11.23
 -10  -2  -7  391.04   27.73
 -10   2  -7  431.66   25.01
  10   2   7  398.25   30.88
 -10  -2  -7  380.48   32.55
 -11  -2  -7   18.74    8.39
 -11   2  -7   23.99    6.96
 -11  -2  -7   15.65    4.71
  11   2   7   15.75    6.56
 -12  -2  -7  283.62   29.92
  12   2   7  263.25   27.31
 -12   2  -7  246.37   21.39
 -12  -2  -7  271.24   24.86
 -13   2  -7   14.40    5.93
 -13  -2  -7   17.44   10.49
 -13  -2  -7   21.59    7.72
 -14   2  -7  217.33   22.10
 -14  -2  -7  199.14   22.69
 -15  -2  -7    3.41    5.75
 -15   2  -7   18.14    8.05
 -16  -2  -7  174.98   24.79
 -16   2  -7  116.02   18.12
  16   2   7  139.89   22.43
 -17   2  -7    4.60    4.52
  17   2   7   16.88    8.80
 -17  -2  -7   12.53    7.23
 -18   2  -7  159.39   22.66
  18   2   7  163.70   25.46
 -18  -2  -7  184.59   24.81
 -19  -2  -7   12.33    9.40
 -19   2  -7    3.23    5.41
  19   2   7    2.69    7.90
  20   2   7  369.36   40.55
 -20   2  -7  324.06   34.36
 -20  -2  -7  327.45   35.40
 -21  -2  -7   -0.95    4.94
 -21   2  -7   -8.86    9.39
  21   2   7    1.81    5.81
 -22  -2  -7  205.54   29.73
 -22   2  -7  178.13   27.34
 -23  -2  -7   10.69    7.78
 -23   2  -7   16.19    9.89
 -24  -2  -7  165.41   28.09
 -24   2  -7  143.51   25.32
 -25  -2  -7    7.96    6.72
 -25   2  -7    0.63    7.41
 -26  -2  -7  112.28   24.36
 -26   2  -7  109.69   23.86
 -27  -2  -7    0.29    7.05
 -27   2  -7   14.69    9.60
 -28  -2  -7  123.07   26.89
 -28   2  -7   92.48   22.73
 -29   2  -7   -0.52    9.53
 -29  -2  -7    3.44   10.92
 -30   2  -7   97.65   23.94
 -30  -2  -7   86.24   23.58
 -29  -3   7  162.55   35.85
 -29   3   7  237.11   45.09
 -28  -3   7    7.08   10.65
 -28   3   7    1.25    9.68
 -27   3   7  231.84   42.94
 -27  -3   7  218.42   40.26
 -26  -3   7   15.85   12.13
 -26   3   7   14.56   10.13
 -25   3   7  259.18   42.97
 -25  -3   7  253.71   40.51
 -24  -3   7  -11.84   13.30
 -24   3   7  -20.47   12.82
 -23  -3   7  403.94   49.08
 -23   3   7  371.46   47.98
 -22  -3   7  -14.87   12.19
 -22   3   7    9.91    8.52
 -21   3   7  228.26   36.16
 -21  -3   7  254.13   37.56
 -20  -3   7   -5.97   10.40
 -20   3   7   -3.28    5.97
 -20  -3   7    8.99    5.55
 -19  -3   7  539.92   51.29
 -19   3   7  574.97   53.98
 -19  -3   7  562.41   33.99
 -18  -3   7   24.80    9.43
 -18   3   7   22.85    7.26
 -18   3   7   31.96   12.44
 -18  -3   7   32.12    7.49
 -17  -3   7  618.68   33.34
 -17   3   7  592.94   36.57
 -17  -3   7  598.70   51.65
  17   3  -7  645.30   51.19
 -17   3   7  628.33   53.81
 -16  -3   7   27.24    6.84
 -16   3   7   26.53    8.09
 -16  -3   7   26.87   10.68
  16   3  -7   16.24    7.87
 -15  -3   7  672.50   32.56
 -15   3   7  662.85   37.77
 -15  -3   7  668.19   50.72
  15   3  -7  626.00   47.82
 -14  -3   7   39.18   12.07
 -14   3   7   53.64   10.54
  14   3  -7   47.06   13.62
  14  -3  -7   30.58    7.85
  13  -3  -7  740.23   35.54
 -13  -3   7  763.27   51.17
  13   3  -7  761.56   49.11
 -13   3   7  786.64   38.93
 -12  -3   7   23.89    5.65
  12  -3  -7   37.57    8.20
 -12  -3   7   32.11   10.01
  12   3  -7   22.68    8.16
 -11  -3   7  856.30   31.33
  11  -3  -7  925.92   38.57
 -11  -3   7  888.71   51.00
  11   3  -7  868.42   49.06
 -10  -3   7   31.86    5.87
  10  -3  -7   40.87    8.16
 -10  -3   7   28.84    8.80
  10   3  -7   24.62    7.91
  -9  -3   7  927.67   29.91
   9  -3  -7  938.02   37.24
  -9  -3   7  849.71   45.98
   9   3  -7  893.19   45.66
   8  -3  -7    3.31    2.41
  -8  -3   7    3.20    4.29
   8   3  -7    6.13    4.76
  -8  -3   7    2.52    1.76
  -7  -3   7  446.72   18.39
   7  -3  -7  455.10   25.42
   7   3  -7  459.00   29.83
  -7  -3   7  445.37   30.28
  -6  -3   7    8.60    2.57
  -6  -3   7    2.42    3.16
   6  -3  -7    9.53    4.61
   6   3  -7    6.59    3.97
   5  -3  -7  388.41   22.95
  -5  -3   7  405.03   25.11
   5   3  -7  393.04   24.59
  -5  -3   7  394.75   15.30
  -4  -3   7    4.62    2.92
   4  -3  -7    5.73    3.75
  -4  -3   7    2.49    1.45
   4   3  -7   -3.17    3.28
  -3  -3   7  503.83   23.10
   3  -3  -7  497.32   25.90
   3   3  -7  515.49   23.95
  -3  -3   7  479.55   14.93
  -2  -3   7   28.12    5.08
  -2  -3   7   13.55    2.55
   2   3  -7   20.69    4.45
   2  -3  -7   13.98    4.35
   1   3  -7  349.48    9.60
  -1  -3   7  325.81   12.50
   1   3  -7  363.47   16.05
   1  -3  -7  379.28   23.09
   0  -3  -7   33.31    7.34
   0   3  -7   26.36    2.81
   0   3  -7   25.63    3.76
  -1   3  -7  541.30   14.14
  -1  -3  -7  584.68   29.94
   2   3   7   40.53    9.32
  -2  -3  -7   41.87    8.23
  -2   3  -7   40.78    4.38
  -3  -3  -7  878.74   39.27
  -3   3  -7  903.65   24.49
   3   3   7  893.72   44.22
  -4   3  -7   27.04    4.95
   4   3   7   25.78    8.85
  -4  -3  -7   27.15    8.18
   4   3   7   34.61    7.83
  -5  -3  -7 1217.44   49.50
   5   3   7 1230.48   45.95
  -5   3  -7 1222.36   36.45
   6   3   7   33.07    8.59
  -6  -3  -7   49.42   11.51
  -6   3  -7   28.97    4.26
  -7   3  -7  941.25   28.12
  -7  -3  -7  968.61   47.69
   7   3   7  983.36   44.90
  -8  -3  -7   57.08   12.08
   8   3   7   31.85    8.34
  -8   3  -7   42.55    6.61
   9   3   7  740.79   42.79
  -9   3  -7  751.99   30.47
  -9  -3  -7  723.81   44.29
  10   3   7   25.05    9.35
 -10   3  -7   19.55    6.55
 -10  -3  -7   28.37    9.95
 -11   3  -7  405.12   26.22
 -11  -3  -7  404.43   35.09
 -12  -3  -7   14.25    8.36
 -12   3  -7    3.03    3.23
 -12  -3  -7   23.06    8.61
 -13  -3  -7  428.19   38.49
 -13   3  -7  410.40   29.44
 -13  -3  -7  461.78   35.30
 -14  -3  -7   27.35   10.74
 -14   3  -7   15.58    6.74
  14   3   7   16.46    8.59
 -14  -3  -7   22.84   12.86
 -15   3  -7  350.51   29.59
 -15  -3  -7  365.56   33.33
  15   3   7  390.98   38.29
 -15  -3  -7  320.84   35.76
 -16  -3  -7   19.68    7.88
 -16   3  -7    6.60    6.64
 -16  -3  -7   31.47   11.73
  16   3   7   34.77   14.97
 -17  -3  -7  230.42   27.63
  17   3   7  246.45   31.96
 -17   3  -7  230.43   26.21
 -18   3  -7   13.70    6.93
 -18  -3  -7   25.55   11.01
  18   3   7   22.91   11.84
 -19   3  -7  562.84   43.74
 -19  -3  -7  534.45   44.78
  19   3   7  494.95   47.59
 -20   3  -7    3.90    4.83
 -20  -3  -7    1.96    6.11
  20   3   7   13.52    9.40
 -21   3  -7  244.26   30.28
 -21  -3  -7  204.99   29.49
 -22  -3  -7   15.60    8.71
 -22   3  -7   38.12   13.04
 -23   3  -7  266.50   33.55
 -23  -3  -7  214.18   31.79
 -24   3  -7    1.55    6.33
 -24  -3  -7    3.19    6.40
 -25  -3  -7  195.52   31.48
 -25   3  -7  180.78   29.45
 -26  -3  -7   14.65   10.08
 -26   3  -7  -12.02   12.26
 -27  -3  -7  159.07   28.32
 -27   3  -7  133.67   26.98
 -28  -3  -7   11.56   10.66
 -28   3  -7    3.65    6.36
 -29  -3  -7  119.25   26.28
 -29   3  -7  127.32   27.83
 -30  -3  -7   21.26    9.05
 -29  -4   7  -29.78   16.21
 -29   4   7   -5.72   12.81
 -28  -4   7  163.42   35.69
 -28   4   7  172.66   38.87
 -27  -4   7   -4.97    8.65
 -27   4   7  -16.20   12.91
 -26  -4   7  205.05   37.58
 -26   4   7  251.38   44.31
 -25  -4   7   -0.53   11.40
 -25   4   7    5.05    6.59
 -24  -4   7  233.99   38.75
 -24   4   7  307.11   46.04
 -23  -4   7  -11.49   12.30
 -23   4   7   12.17    9.52
 -22  -4   7  235.61   36.53
 -22   4   7  299.74   43.69
 -21  -4   7    7.97    7.51
 -21   4   7   -0.75    9.18
 -20  -4   7  397.66   44.77
 -20   4   7  489.63   53.26
 -19  -4   7    6.24    6.64
 -18  -4   7  501.05   48.32
  18   4  -7  476.38   46.34
 -17   4   7   30.12    8.79
 -17  -4   7   46.04   14.95
  17   4  -7   48.10   14.27
 -16   4   7  546.91   35.57
 -16  -4   7  508.39   46.19
  16   4  -7  482.47   44.18
 -15  -4   7   16.65    7.84
 -15   4   7   21.53    6.37
  15   4  -7   21.94    9.65
  15  -4  -7   21.08    6.95
  14  -4  -7  478.27   30.11
 -14   4   7  488.79   32.87
 -14  -4   7  492.05   42.69
  14   4  -7  488.10   42.06
  13  -4  -7   16.74    6.23
 -13   4   7   18.85    5.85
  13   4  -7   19.99    8.59
 -13  -4   7   13.68    7.77
  12  -4  -7  614.69   32.84
  12   4  -7  575.09   42.74
 -12  -4   7  588.80   43.56
 -12  -4   7  604.89   26.84
  11  -4  -7   20.21    6.38
 -11  -4   7    4.14    4.85
  11   4  -7   26.14    9.09
 -11  -4   7   17.94    4.19
 -10  -4   7  849.63   28.94
  10  -4  -7  828.81   37.39
 -10  -4   7  793.30   46.68
  10   4  -7  825.60   48.12
  -9  -4   7    5.19    2.84
  -9  -4   7    2.10    5.34
   9   4  -7    2.73    3.92
   9  -4  -7    2.17    2.53
  -8  -4   7  406.32   17.93
   8  -4  -7  397.46   25.38
  -8  -4   7  352.95   28.57
   8   4  -7  380.71   30.03
  -7  -4   7   15.88    3.54
  -7  -4   7   16.78    7.38
   7  -4  -7   10.29    5.17
   7   4  -7   16.70    6.91
  -6  -4   7  584.61   18.47
  -6  -4   7  556.70   31.99
   6   4  -7  561.70   33.43
   6  -4  -7  575.83   29.67
  -5  -4   7   11.58    5.15
  -5  -4   7   11.27    2.62
   5  -4  -7    3.57    3.60
   5   4  -7    8.54    4.20
   4  -4  -7  599.96   30.14
  -4  -4   7  604.51   28.83
   4   4  -7  587.98   30.81
  -4  -4   7  554.87   15.14
  -3  -4   7    7.40    1.71
  -3  -4   7    6.51    4.01
   3   4  -7    8.89    4.58
   3  -4  -7   13.07    5.01
   2   4  -7  544.65   25.75
   2  -4  -7  533.07   28.83
   1  -4  -7   20.86    6.20
   1   4  -7   21.51    5.11
   0   4  -7  601.33   22.83
   0  -4  -7  615.77   31.76
  -1   4  -7    5.50    2.19
  -1  -4  -7    1.71    3.59
  -2   4  -7  581.10   18.85
  -2  -4  -7  623.11   33.79
  -3   4  -7    7.17    2.53
  -3   4  -7    5.43    1.88
  -3  -4  -7    9.13    5.89
  -4  -4  -7 1209.48   49.61
   4   4   7 1253.96   50.11
  -4   4  -7 1213.84   29.25
   5   4   7   28.37    8.74
  -5  -4  -7   35.23   10.00
   6   4   7  737.82   39.81
  -6  -4  -7  760.47   42.13
   7   4   7    9.89    6.56
  -7  -4  -7   10.09    5.98
  -7   4  -7    1.09    2.31
   8   4   7  510.55   35.84
  -8  -4  -7  488.39   36.39
  -8   4  -7  488.39   23.17
  -9  -4  -7   10.46    6.99
  -9   4  -7    9.47    4.21
 -10   4  -7  477.05   26.55
 -10  -4  -7  465.39   37.69
 -11   4  -7   -1.08    4.66
 -11  -4  -7    8.81    4.38
  12   4   7  394.58   36.54
 -12   4  -7  391.10   27.11
 -12  -4  -7  407.55   37.53
 -13  -4  -7   -1.76    7.13
  13   4   7   -2.76    4.67
 -13   4  -7    0.78    3.74
 -14   4  -7  361.13   29.19
  14   4   7  376.58   38.07
 -14  -4  -7  369.05   37.74
  15   4   7   -4.34    8.55
 -15   4  -7   10.60    7.23
 -15  -4  -7    3.60    7.02
 -15  -4  -7    3.92    5.35
 -16  -4  -7  273.38   34.27
 -16   4  -7  325.96   29.87
 -16  -4  -7  294.08   31.62
  16   4   7  315.03   36.97
 -17  -4  -7   -4.99    6.95
 -17   4  -7    6.21    4.69
  17   4   7   -0.54    8.34
 -17  -4  -7    2.92    6.97
 -18   4  -7  516.68   40.55
 -18  -4  -7  531.78   45.24
 -18  -4  -7  545.20   50.45
  18   4   7  516.42   49.52
 -19  -4  -7  -11.73    8.68
 -19  -4  -7   -0.81    5.62
 -19   4  -7   -4.53    6.67
 -20  -4  -7  234.29   33.81
 -20  -4  -7  251.49   32.57
 -20   4  -7  283.14   31.70
 -21  -4  -7   10.21    9.11
 -21  -4  -7   -3.17    6.03
 -21   4  -7    3.67    5.76
 -22  -4  -7  178.25   29.16
 -22   4  -7  254.96   32.32
 -22  -4  -7  203.15   33.48
 -23  -4  -7   12.97    6.15
 -23   4  -7    8.65    8.65
 -24  -4  -7  168.01   29.67
 -24   4  -7  195.89   29.40
 -25  -4  -7    6.33   10.68
 -25   4  -7   18.43   10.99
 -26  -4  -7  130.50   27.32
 -26   4  -7  158.93   28.14
 -27   4  -7   -0.34    9.49
 -27  -4  -7   -1.10    7.36
 -28  -4  -7   95.97   24.60
 -28   4  -7   98.24   22.57
 -29  -4  -7   -9.58    9.00
 -30  -4  -7   82.39   23.82
 -28  -5   7  -20.79   10.38
 -28   5   7   -7.82    9.96
 -27  -5   7  136.10   32.30
 -27   5   7  101.86   29.80
 -26  -5   7    6.67   11.43
 -26   5   7   -5.55   12.59
 -25  -5   7  115.21   26.72
 -25   5   7   96.12   27.72
 -24  -5   7   -8.98    9.99
 -24   5   7   -1.37    7.51
 -23  -5   7   78.50   23.13
 -23   5   7   86.78   24.48
 -22  -5   7  -12.73   12.24
 -22   5   7   -0.24    6.57
 -21  -5   7  215.86   34.74
 -20  -5   7    2.20    6.80
 -19  -5   7  252.08   35.27
  18   5  -7   -4.43    7.81
 -18  -5   7   -0.11    5.46
 -17  -5   7  179.45   28.47
  17   5  -7  216.56   31.08
 -16  -5   7   27.24   10.74
 -16   5   7   37.19   10.15
  16   5  -7   34.93   13.14
  16  -5  -7   42.30   10.38
  15  -5  -7  253.58   22.90
 -15   5   7  288.80   26.40
  15   5  -7  288.91   34.47
 -15  -5   7  265.43   32.74
  14  -5  -7   13.03    5.81
 -14  -5   7    1.45    6.03
 -14   5   7    3.11    2.92
  14   5  -7    1.79    6.32
  13  -5  -7  310.82   24.85
 -13  -5   7  289.64   31.53
 -13   5   7  297.76   26.64
  13   5  -7  277.56   31.95
  12  -5  -7    1.61    2.82
 -12  -5   7    0.01    5.28
  12   5  -7   -2.86    7.05
  11  -5  -7  366.59   26.17
 -11  -5   7  357.14   32.56
  11   5  -7  332.26   33.12
  10  -5  -7    1.64    2.49
 -10  -5   7   -4.49    6.30
  10   5  -7    2.67    4.23
   9  -5  -7  348.90   24.95
  -9  -5   7  343.70   29.77
   9   5  -7  459.99   40.22
  -8  -5   7    0.93    4.54
   8  -5  -7    5.19    4.40
   8   5  -7   13.28    7.73
  -8  -5   7    3.20    1.73
  -7  -5   7  403.79   16.00
  -7  -5   7  402.78   29.35
   7  -5  -7  376.47   25.20
   7   5  -7  384.57   30.66
  -6  -5   7    4.64    2.18
  -6  -5   7    3.04    4.10
   6  -5  -7    5.65    4.19
   6   5  -7    3.14    3.60
  -5  -5   7  556.77   15.17
  -5  -5   7  578.51   31.65
   5  -5  -7  569.69   30.87
   5   5  -7  575.37   34.55
  -4  -5   7   15.34    2.21
  -4  -5   7   30.15    7.56
   4   5  -7   18.26    6.17
   4  -5  -7   22.11    6.59
   3   5  -7  263.41   21.19
   3  -5  -7  245.37   20.67
   2  -5  -7   14.36    5.59
   2   5  -7   14.74    5.33
   1   5  -7  435.66   24.35
   1  -5  -7  476.12   29.04
   0  -5  -7   11.34    6.26
   0   5  -7    7.02    3.64
  -1   5  -7  438.86   21.29
  -1  -5  -7  420.58   28.24
  -2   5  -7    5.92    3.45
  -2  -5  -7   16.27    7.31
  -3  -5  -7  385.00   28.77
  -3   5  -7  421.03   19.49
  -4   5  -7    3.47    1.46
  -4   5  -7    2.92    2.07
  -4  -5  -7   -0.60    3.85
  -5   5  -7  569.63   15.74
  -5  -5  -7  568.30   36.60
  -6  -5  -7   29.62    9.38
  -6   5  -7   33.10    4.38
  -7  -5  -7  246.97   25.91
  -8  -5  -7   -1.46    6.15
  -9  -5  -7  150.24   21.40
  10   5   7    9.68    7.42
 -10   5  -7   -0.71    2.57
 -10  -5  -7   -3.21    7.64
  11   5   7  249.78   29.74
 -11  -5  -7  243.90   28.83
 -11   5  -7  236.24   20.72
 -12  -5  -7   -2.93    7.77
  12   5   7   12.09    8.75
 -12   5  -7   -4.46    4.46
  13   5   7  188.11   27.38
 -13   5  -7  200.01   21.06
 -13  -5  -7  176.81   25.91
  14   5   7    5.51    5.74
 -14   5  -7   -6.76    6.21
 -14  -5  -7    2.33    5.37
 -15   5  -7  160.67   20.74
  15   5   7  177.88   27.68
 -15  -5  -7  186.86   28.84
 -16  -5  -7   -7.04    9.33
  16   5   7   12.13   10.98
 -16   5  -7   -3.20    6.84
  17   5   7  391.18   43.75
 -17   5  -7  353.80   32.78
 -17  -5  -7  411.19   43.67
 -18  -5  -7   -5.85    8.09
  18   5   7   -7.98    9.41
 -18   5  -7    2.95    5.55
 -18  -5  -7   -0.55    8.54
 -19  -5  -7  107.02   23.33
 -19  -5  -7  115.92   22.19
 -19   5  -7  113.55   19.81
 -20  -5  -7   10.64    8.99
 -20  -5  -7    7.35    7.33
 -20   5  -7   10.35    6.71
 -21  -5  -7  146.49   26.36
 -21  -5  -7  134.92   27.55
 -21   5  -7  136.19   23.37
 -22  -5  -7    8.59    8.73
 -22   5  -7    3.27    7.22
 -22  -5  -7   15.71   15.85
 -23  -5  -7   88.89   22.28
 -23   5  -7   87.57   19.75
 -23  -5  -7   77.26   20.30
 -24  -5  -7    9.82   11.97
 -24  -5  -7   11.63   10.39
 -24   5  -7    7.82    4.07
 -25  -5  -7   72.97   22.13
 -25  -5  -7   75.12   20.46
 -25   5  -7   72.68   18.88
 -26  -5  -7    8.75   11.41
 -26   5  -7   -6.25    9.18
 -26  -5  -7  -15.20   12.17
 -27   5  -7  120.56   25.83
 -27  -5  -7   85.81   22.48
 -28  -5  -7   20.31   10.03
 -28   5  -7    6.28    9.99
 -29  -5  -7   80.92   21.75
 -28  -6   7   38.16   19.39
 -28   6   7   41.02   21.70
 -27   6   7    6.64    7.87
 -27  -6   7   -3.24    9.48
 -26  -6   7   31.33   15.12
 -26   6   7   11.46    9.43
 -25  -6   7   19.41   13.22
 -25   6   7   -5.56    9.78
 -24  -6   7   36.60   16.06
 -24   6   7   57.81   20.67
 -23  -6   7   18.57   13.90
 -23   6   7   -1.48   10.23
 -22  -6   7   55.45   18.92
 -21  -6   7   -7.95   10.39
 -20  -6   7   74.48   20.32
 -19  -6   7   -4.25    7.89
 -18  -6   7   88.80   20.68
 -17  -6   7    1.61    5.16
  17   6  -7   -4.75    7.21
  17  -6  -7    7.44    4.28
  16  -6  -7   44.62   10.45
 -16  -6   7   31.04   12.63
  16   6  -7   55.87   16.71
  15  -6  -7   19.22    7.69
 -15  -6   7    6.49    4.81
 -15   6   7    9.88    4.13
  15   6  -7   -4.48    8.82
 -14  -6   7   78.14   17.32
  14  -6  -7   72.01   12.77
 -14   6   7   75.77   14.30
  14   6  -7   61.07   16.00
  13  -6  -7    8.65   12.15
 -13  -6   7    6.48    4.51
  13   6  -7   -4.87    7.63
 -13   6   7    3.31    4.10
  12  -6  -7   69.54   12.11
 -12  -6   7   79.15   16.27
 -12   6   7  106.86   16.11
  12   6  -7   75.53   17.50
  11  -6  -7    4.24    5.80
 -11  -6   7   -2.52    4.15
  11   6  -7    2.11    4.10
 -11   6   7    4.95    4.66
  10  -6  -7   27.43    7.34
 -10  -6   7   38.09   10.22
  10   6  -7   36.39   11.90
  -9  -6   7    4.83    4.31
   9  -6  -7    0.74    2.59
   9   6  -7   -3.07    4.88
  -8  -6   7  183.30   21.38
   8  -6  -7  198.30   19.53
   8   6  -7  179.99   23.46
  -7  -6   7   12.14    6.61
   7  -6  -7    8.94    4.51
   7   6  -7   17.15    7.23
  -6  -6   7  128.32   16.78
   6  -6  -7  131.58   15.68
   6   6  -7  130.95   18.17
  -5  -6   7    1.22    1.07
  -5  -6   7    1.69    1.72
   5   6  -7    3.44    3.46
   5  -6  -7   -1.63    2.94
  -4  -6   7   57.66    3.79
  -4  -6   7   55.78    4.81
   4   6  -7   83.25   13.16
   4  -6  -7   68.19   11.42
   3   6  -7    4.11    2.79
   3  -6  -7    5.17    3.25
   2   6  -7   61.95   10.54
   2  -6  -7   58.50   10.74
   1  -6  -7   -0.08    2.92
   1   6  -7    9.88    5.34
   0   6  -7  106.06   12.73
   0  -6  -7  114.68   15.43
  -1   6  -7    3.25    2.17
  -1  -6  -7   -0.76    3.08
  -2   6  -7  137.96   13.43
  -2  -6  -7  158.79   18.66
  -3  -6  -7   12.11    7.05
  -4   6  -7   75.80    4.79
  -4  -6  -7   91.34   15.30
  -5   6  -7    4.35    1.91
  -5  -6  -7    1.25    4.78
  -6  -6  -7   58.67   13.11
  -6   6  -7   63.99    5.90
   6   6   7   63.03   13.86
  -7   6  -7    2.94    1.65
   7   6   7    3.84    3.67
  -7  -6  -7    4.68    6.05
  -8   6  -7   41.22    5.65
   8   6   7   54.47   12.82
  -8  -6  -7   50.47   12.48
  -9   6  -7    0.57    1.43
   9   6   7    4.37    3.97
  -9  -6  -7    0.04    3.84
 -10   6  -7   36.01    6.21
  10   6   7   34.22   12.07
 -10  -6  -7   24.32    9.76
 -11   6  -7    2.77    3.03
  11   6   7    3.19    5.16
 -11  -6  -7   11.84    8.21
 -12  -6  -7   37.78   12.86
 -12   6  -7   51.40    7.98
  12   6   7   46.80   15.06
 -13   6  -7    0.92    2.60
 -13  -6  -7   -6.14    7.02
  13   6   7   -4.72    5.68
 -13   6  -7   -4.51    5.85
 -14   6  -7   43.48    8.17
 -14  -6  -7   31.05   13.90
  14   6   7   30.77   12.62
 -14   6  -7   37.90   10.54
 -15   6  -7   10.84    4.30
 -15  -6  -7    2.67    7.13
 -15   6  -7    2.60    5.09
  15   6   7   10.39    7.41
 -16   6  -7  178.69   18.06
 -16   6  -7  159.57   21.68
  16   6   7  153.94   27.45
 -16  -6  -7  206.88   30.92
 -17   6  -7    0.72    3.06
 -17   6  -7    0.64    4.54
 -17  -6  -7    6.04   10.06
 -18  -6  -7   61.26   17.55
 -18   6  -7   40.07    9.52
 -18   6  -7   33.35   11.56
 -19   6  -7   -1.19    2.87
 -19  -6  -7    7.67    6.25
 -19   6  -7    7.43    5.38
 -20  -6  -7   38.76   14.43
 -20   6  -7   28.42   10.43
 -21  -6  -7   -3.65    9.62
 -21   6  -7   -9.02    9.49
 -22  -6  -7   24.26   12.52
 -22  -6  -7   24.68   13.22
 -22   6  -7   32.98   12.56
 -23  -6  -7    0.17    5.98
 -23   6  -7   -6.22    7.41
 -23  -6  -7    0.73    6.73
 -24  -6  -7   26.34   13.07
 -24   6  -7   23.83   12.20
 -24  -6  -7   -2.88   11.71
 -25  -6  -7   16.50   12.24
 -25   6  -7    1.75    5.90
 -25  -6  -7   -8.96   12.26
 -26   6  -7   25.80   13.41
 -26  -6  -7   14.87    8.05
 -27  -6  -7   -1.07    7.18
 -27   6  -7  -13.41    9.98
 -28  -6  -7   12.94   11.59
 -27  -7   7   -0.85    8.34
 -27   7   7    1.23   14.76
 -26   7   7   10.91   11.10
 -26  -7   7   10.96    8.80
 -25  -7   7   -8.97    7.74
 -25   7   7    6.49    7.10
 -24  -7   7   -9.89    9.25
 -23  -7   7    5.57    6.00
 -22  -7   7   -0.13    8.62
 -21  -7   7    1.56    6.74
 -20  -7   7   -1.32   11.01
 -19  -7   7   -6.37    6.66
 -18  -7   7   -1.95    6.53
  17  -7  -7    5.36    5.94
 -17  -7   7   -6.24    8.74
  16  -7  -7   20.76    7.70
 -16  -7   7   10.31    7.11
  16   7  -7   10.52    9.62
  15  -7  -7   -1.29    3.25
 -15  -7   7   -3.55    7.49
  15   7  -7    6.11   10.40
  14  -7  -7    2.16    2.82
 -14  -7   7  -26.23   10.72
  14   7  -7  -13.49   10.95
  13  -7  -7    7.84    4.98
 -13  -7   7   12.67    8.43
  13   7  -7   -0.36    4.38
 -13   7   7   12.11    6.67
  12   7  -7   35.42   13.77
 -12  -7   7   13.81    8.39
  12  -7  -7   13.28    5.23
 -12   7   7   30.45    9.79
  11  -7  -7   -1.07    2.96
 -11  -7   7   10.06    7.95
  11   7  -7    1.49    4.99
 -11   7   7    0.61    3.48
 -10   7   7   16.97    7.34
  10  -7  -7   10.51    5.19
 -10  -7   7   25.95    9.63
  10   7  -7   23.22    8.74
  -9   7   7    0.78    2.21
  -9  -7   7    3.11    5.18
   9  -7  -7   -0.35    3.08
   9   7  -7   -2.00    5.03
  -8  -7   7   14.74    6.67
  -8   7   7   21.70    8.21
   8  -7  -7   13.69    5.77
   8   7  -7   16.86    7.72
  -7  -7   7   18.54    5.15
   7  -7  -7   28.37    7.65
   7   7  -7   20.13    7.64
   6  -7  -7   11.00    5.19
  -6  -7   7   13.35    3.71
   6   7  -7   12.04    6.90
  -5  -7   7    0.20    1.25
   5  -7  -7    1.19    3.77
   5   7  -7   -2.82    5.54
  -4  -7   7    9.58    2.00
   4   7  -7   13.77    7.02
   4  -7  -7   12.83    5.96
  -4  -7   7    9.37    1.71
   3  -7  -7    9.60    5.66
   3   7  -7    8.87    4.79
   2   7  -7   33.15    8.82
   2  -7  -7   20.69    6.68
   1  -7  -7    3.27    3.86
   1   7  -7    2.78    3.52
   0  -7  -7   14.25    6.02
   0   7  -7    9.64    5.40
  -1   7  -7   19.02    6.21
  -1  -7  -7   19.91    7.39
  -2   7  -7    1.89    3.05
  -2  -7  -7    0.43    3.68
  -3  -7  -7    4.93    5.44
  -4  -7  -7    1.87    4.50
   5   7   7   -3.47    6.45
   5   7   7   -8.79    5.95
  -5  -7  -7   -1.91    4.24
  -5   7  -7    1.03    0.84
   6   7   7   -4.32    8.12
  -6   7  -7    1.38    1.63
  -6  -7  -7    4.50    6.18
   6   7   7   -5.28    4.53
   7   7   7    7.50    5.50
  -7  -7  -7    5.58    4.09
  -7   7  -7    1.80    1.81
  -8   7  -7    1.20    1.79
   8   7   7    2.74    4.87
  -8  -7  -7    7.14    7.35
  -9   7  -7    0.28    1.35
   9   7   7   -0.86    3.81
  -9  -7  -7    5.14    6.53
  10   7   7    0.55    3.45
 -10   7  -7    9.47    3.55
 -10  -7  -7    1.23    4.14
 -11   7  -7   -2.52    2.40
  11   7   7   -7.45    8.65
 -11  -7  -7   -0.97    6.29
  12   7   7    3.38    7.08
 -12   7  -7   -1.01    2.47
 -12  -7  -7   -1.90    5.44
 -13   7  -7   -0.69    2.51
  13   7   7    1.81    5.62
 -13  -7  -7   -3.12    6.64
 -14  -7  -7   18.81    8.86
 -14   7  -7   12.27    4.57
  14   7   7   12.23    8.19
 -15  -7  -7   26.43   12.71
 -15   7  -7   22.16    6.39
 -15   7  -7   42.08   11.93
 -16   7  -7    8.46    3.78
 -16  -7  -7   18.46    9.87
 -16   7  -7    7.57    6.35
 -17   7  -7    1.04    3.93
 -17   7  -7    3.62    4.78
 -18   7  -7    5.32    4.36
 -18  -7  -7    9.65   10.04
 -18   7  -7   -4.28    7.74
 -19   7  -7    4.93    2.72
 -19  -7  -7   -8.86    9.88
 -19   7  -7   -0.22    5.54
 -20  -7  -7    4.33    7.35
 -20   7  -7   -4.86    9.42
 -21   7  -7    8.50    6.12
 -21  -7  -7   -2.75    7.07
 -22   7  -7   19.46   10.46
 -22  -7  -7  -14.49   12.22
 -23  -7  -7   -0.96    8.82
 -23   7  -7    7.24    6.42
 -24  -7  -7    3.21    5.80
 -24   7  -7   -3.45    6.62
 -25   7  -7   -6.20   11.21
 -26  -8   7  -11.41   10.24
 -26   8   7   20.01   18.16
 -25  -8   7   18.20   12.91
 -24  -8   7  -12.62   12.91
 -23  -8   7   -3.58    8.90
 -22  -8   7    6.62    9.88
 -21  -8   7   33.67   15.57
 -20  -8   7   13.24   12.54
 -19  -8   7    5.80    7.58
 -18  -8   7   31.31   13.58
  18  -8  -7   19.40    8.39
  17  -8  -7   23.83    8.68
 -17  -8   7    2.55    6.39
  16  -8  -7    1.14    4.59
 -16  -8   7    9.22    6.87
  15  -8  -7   13.02    6.57
 -15  -8   7   20.34    9.97
  14  -8  -7   14.69    8.43
 -14  -8   7    9.16    7.68
  14   8  -7   -1.07    5.89
 -13  -8   7    6.10    6.63
  13  -8  -7   -2.16    4.44
  13   8  -7   -4.15    9.36
  12   8  -7   -0.46    5.34
  12  -8  -7    4.97    3.78
 -12  -8   7   -3.30    6.10
 -11   8   7    5.79    3.21
  11  -8  -7   12.83    5.78
 -11  -8   7   -1.35    6.25
  11   8  -7   -5.65    5.93
 -10   8   7   -0.84    3.72
 -10  -8   7   16.66    8.04
  10  -8  -7    7.90    4.17
  10   8  -7    5.71    5.77
  -9   8   7   24.45    8.50
   9  -8  -7   21.83    7.65
   9   8  -7   20.90   10.51
  -9  -8   7   20.17    6.61
  -8   8   7   12.43    6.65
   8  -8  -7   10.47    5.23
  -8  -8   7    6.89    4.39
   8   8  -7   12.89    9.21
  -7   8   7   19.09    7.71
   7   8  -7   42.68   14.99
   7  -8  -7    6.66    4.70
  -7  -8   7    9.47    3.18
  -6  -8   7    7.41    3.19
   6   8  -7   11.43    8.44
  -6   8   7    8.93    6.31
   6  -8  -7   17.44    7.53
  -5   8   7   29.43    9.22
   5   8  -7   15.41    6.62
  -5  -8   7   25.85    4.19
   5  -8  -7   25.63    8.32
   4   8  -7   59.57   12.82
  -4  -8   7   55.77    4.89
   4  -8  -7   57.43   11.23
  -4   8   7   61.92   13.80
   3   8  -7   35.84   10.14
   3  -8  -7   57.55   12.16
  -3   8   7   45.22   12.76
  -2   8   7   -1.69    6.64
   2   8  -7    3.92    3.68
   2  -8  -7   10.53    5.48
   1  -8  -7   14.38    7.04
   1   8  -7    9.21    5.42
  -1   8   7   21.06    8.85
   0  -8  -7   11.32    6.31
   0   8  -7    2.27    3.71
   0   8   7   13.65    6.61
  -1  -8  -7   13.69    5.59
  -1   8  -7   20.21    7.20
   1   8   7   10.74    6.87
   2   8   7   -1.79    5.51
  -2   8  -7    6.51    4.23
  -2  -8  -7    0.12    3.79
  -3  -8  -7    9.08    6.35
   3   8   7   13.99    7.63
   4   8   7   14.90    7.96
  -4   8  -7    7.53    1.85
  -4  -8  -7   13.45    7.00
   5   8   7    8.07    4.48
   5   8   7    6.34    5.18
  -5   8  -7    7.67    2.39
  -5  -8  -7   10.98    6.58
  -6   8  -7    8.11    2.39
   6   8   7    3.03    4.81
   6   8   7   11.18    8.06
  -6  -8  -7   10.55    5.74
   7   8   7   11.56    7.90
  -7   8  -7    9.17    2.96
  -7  -8  -7   -2.51    5.44
  -8  -8  -7    4.72    4.66
   8   8   7    6.67    7.00
  -8   8  -7    4.74    2.12
  -9  -8  -7   -3.34    5.92
  -9   8  -7    0.05    1.94
   9   8   7    2.80    4.58
 -10   8  -7   11.60    3.68
 -10  -8  -7    1.84    4.52
  10   8   7   13.58    8.62
 -11  -8  -7    1.65    5.62
  11   8   7   -3.43    8.02
 -11   8  -7   15.07    4.72
 -12  -8  -7   -4.24    8.17
 -12   8  -7   19.44    5.12
  12   8   7   22.68   11.38
 -13   8  -7   23.05    6.14
 -13  -8  -7   29.14   10.43
 -14   8  -7    8.17    5.19
 -14  -8  -7   -5.36    7.67
 -15   8  -7   12.02    4.69
 -15  -8  -7   14.80    9.73
 -16   8  -7    8.69    4.15
 -16   8  -7   17.72    8.31
 -16  -8  -7    0.60    5.34
 -17  -8  -7    6.58    8.19
 -17   8  -7   16.16    6.41
 -17   8  -7    2.63    5.60
 -18  -8  -7   17.52    9.48
 -18   8  -7   29.15    8.53
 -18   8  -7   -4.02    6.81
 -19   8  -7    7.14    4.84
 -19  -8  -7   13.71    8.37
 -19   8  -7   -4.06    7.86
 -20  -8  -7    0.69    6.39
 -20   8  -7   11.82    7.55
 -21  -8  -7   17.36   11.37
 -21   8  -7    8.83    4.37
 -22  -8  -7   -9.78    7.82
 -22   8  -7    3.95    7.48
 -23  -8  -7    8.44    9.80
 -23   8  -7    2.20    6.56
 -24   8  -7   -2.28    7.72
 -25  -9   7    0.99    8.31
 -24  -9   7    8.48   11.82
 -23  -9   7   17.84    8.71
 -22  -9   7   14.74   11.43
 -21  -9   7   13.62   11.44
 -20  -9   7   25.18   11.95
 -19  -9   7   87.78   24.42
  19  -9  -7   57.43   13.61
  18  -9  -7   17.40    8.12
 -18  -9   7   13.72    8.00
  17  -9  -7   37.76   10.06
 -17  -9   7   15.26    9.84
  16  -9  -7   44.79   11.54
 -16  -9   7   18.68   10.16
 -15  -9   7    9.51    5.53
  15  -9  -7   25.69    9.22
  14  -9  -7   20.41    8.61
 -14  -9   7   23.96   11.15
 -13  -9   7    4.29    7.79
  13  -9  -7   21.88    7.91
  13   9  -7   18.11    9.32
 -12  -9   7    4.02    4.35
  12  -9  -7   -0.89    3.61
  12   9  -7   -4.12    8.72
 -12  -9   7   11.55    9.59
 -11  -9   7   18.03    6.78
  11  -9  -7   12.05    4.78
  11   9  -7    6.64    5.95
  10  -9  -7    7.80    5.54
 -10  -9   7    0.71    4.38
  10   9  -7    7.89    7.74
   9  -9  -7   11.69    6.45
   9   9  -7   -3.72    5.43
  -9  -9   7   23.54    6.91
  -8   9   7    9.49    4.28
  -8  -9   7    7.12    3.66
   8  -9  -7    4.50    3.10
   8   9  -7    2.00    4.22
  -7  -9   7   33.69    6.49
   7   9  -7   36.54   13.15
   7  -9  -7   46.25   10.56
  -7   9   7   43.84   12.03
   6   9  -7   43.22   12.09
  -6  -9   7   32.61    5.77
   6  -9  -7   37.14   10.05
  -6   9   7   30.78   11.46
  -5  -9   7   40.32    5.34
   5   9  -7   53.28   14.14
   5  -9  -7   31.66    8.86
  -5   9   7   37.17   10.99
   4   9  -7   29.89    9.27
  -4  -9   7   48.54    5.19
   4  -9  -7   56.93   12.24
  -4   9   7   45.67   12.75
  -3   9   7   12.66    7.65
   3   9  -7   22.66    8.85
  -3  -9   7   14.52    2.33
   3  -9  -7   24.55    7.93
   2   9  -7   31.37    9.55
  -2   9   7   40.23   12.48
   2  -9  -7   39.42   10.64
   1  -9  -7   30.16    9.03
   1   9  -7   11.18    6.06
  -1   9   7   26.14   10.39
   0  -9  -7   13.84    6.32
   0   9  -7   22.06    8.08
   0   9   7    6.77    6.20
  -1  -9  -7   30.05    9.41
  -1   9  -7   14.56    5.94
   1   9   7   41.45   13.33
  -2  -9  -7   17.25    6.48
   2   9   7   17.81    8.37
  -2   9  -7   17.88    7.64
  -3  -9  -7   21.01    8.08
   3   9   7   31.47   11.72
  -4   9  -7    9.46    2.61
   4   9   7   -1.75    6.36
  -4  -9  -7    7.56    7.32
  -5   9  -7   18.43    3.71
   5   9   7   18.68   10.93
   5   9   7   20.58   11.51
  -5  -9  -7   16.44    7.91
  -6   9  -7    8.91    3.08
  -6  -9  -7    4.68    4.93
   6   9   7    6.71    7.67
  -7   9  -7   35.07    5.87
   7   9   7   12.90    8.39
  -7  -9  -7   23.82    9.74
   8   9   7   26.88   11.72
  -8  -9  -7   14.86    8.45
  -8   9  -7   19.12    4.69
  -9  -9  -7   29.28   10.42
  -9   9  -7   32.49    6.25
 -10  -9  -7   16.22   10.36
 -10   9  -7   18.73    4.92
 -11   9  -7   31.26    6.53
 -11  -9  -7   24.39   11.45
 -12   9  -7   15.01    4.75
 -12  -9  -7    1.89    5.24
 -13  -9  -7    5.60    5.06
 -13   9  -7   11.81    4.74
 -14   9  -7    4.39    3.38
 -14  -9  -7    3.53    6.78
 -15   9  -7   42.13    9.04
 -15  -9  -7   15.90    9.41
 -16   9  -7    9.46    5.31
 -16  -9  -7    8.93    7.27
 -17   9  -7   31.73    8.45
 -17  -9  -7   23.66   12.35
 -18  -9  -7   -0.43    7.91
 -18   9  -7   -2.75    7.32
 -19   9  -7    9.63    6.75
 -19  -9  -7   10.30    8.07
 -20  -9  -7   15.01   10.91
 -20   9  -7   14.75    9.40
 -21  -9  -7   20.95   13.11
 -21   9  -7   14.05   11.70
 -22  -9  -7  -13.19   12.05
 -22   9  -7   -2.72    8.70
 -23   9  -7   -0.02    7.15
 -24 -10   7    8.57    8.15
 -23 -10   7   17.03   11.11
 -22 -10   7    8.37    9.81
 -21 -10   7    9.87    8.95
 -20 -10   7   19.56   12.64
 -19 -10   7   12.07    8.11
  19 -10  -7   26.48    9.90
  18 -10  -7   27.08    9.37
 -18 -10   7   19.93    9.81
  17 -10  -7   42.88   11.96
 -17 -10   7   23.93   13.36
  16 -10  -7   26.14    9.14
 -16 -10   7   37.89   14.92
 -16 -10   7   21.64    9.64
  15 -10  -7   26.81    9.72
 -15 -10   7   49.10   16.88
 -15 -10   7   26.08   10.46
  14 -10  -7    9.38    6.34
 -14 -10   7   31.99   10.52
  13 -10  -7   41.20   11.11
 -13 -10   7   44.27   11.62
  12 -10  -7    9.20    5.45
 -12 -10   7    7.00    5.04
  11 -10  -7    9.60    5.14
  11  10  -7   -9.37    9.22
 -11 -10   7    6.53    5.30
  10 -10  -7    9.52    7.07
 -10 -10   7   10.92    5.34
  10  10  -7   31.59   13.38
   9  10  -7    3.68    5.52
  -9 -10   7    2.70    3.00
   9 -10  -7   10.80    6.66
   8 -10  -7   29.98    9.48
   8  10  -7   29.65   12.18
  -8 -10   7   20.86    6.13
   7  10  -7    9.57    7.03
   7 -10  -7   15.12    6.58
  -7 -10   7   21.66    5.51
  -6 -10   7   59.28    7.79
   6  10  -7   32.88   11.61
   6 -10  -7   48.34   11.51
   5  10  -7   17.68    8.39
   5 -10  -7   59.56   13.42
  -5 -10   7   37.19    5.77
   4  10  -7   10.93    7.89
  -4 -10   7    2.78    1.64
   4 -10  -7    4.87    4.91
  -3 -10   7   20.38    3.35
   3  10  -7    7.71    5.69
   3 -10  -7   26.87    9.61
  -2 -10   7    8.80    1.89
   2  10  -7   12.59    6.53
   2 -10  -7   16.84    7.27
   1  10  -7    6.11    4.28
   1 -10  -7    7.68    4.58
   0 -10  -7   11.97    5.45
   0  10  -7   16.22    7.50
  -1 -10  -7   17.93    8.70
  -1  10  -7   20.36    9.32
  -2 -10  -7   31.75    9.77
  -2  10  -7   26.17    9.78
  -3 -10  -7   17.87    8.42
  -3  10  -7    6.42    5.63
  -4 -10  -7   22.15    8.64
  -4  10  -7   15.67    3.66
  -5 -10  -7   13.17    8.21
  -5  10  -7    8.55    2.74
  -6 -10  -7   24.15   10.04
  -6  10  -7   33.62    6.05
  -7  10  -7    3.81    2.51
  -7 -10  -7    7.48    7.97
  -8  10  -7   51.18    8.13
  -8 -10  -7   54.65   14.53
  -9  10  -7    7.31    4.21
  -9 -10  -7    8.39    4.99
 -10  10  -7   19.40    5.24
 -10 -10  -7   25.08    9.81
 -11 -10  -7   11.38    6.50
 -11  10  -7   16.61    5.82
 -12 -10  -7   -9.29    7.47
 -12  10  -7    5.55    4.41
 -13 -10  -7   13.34   10.31
 -13  10  -7   12.40    5.01
 -14 -10  -7   20.93   11.02
 -14  10  -7   19.00    5.96
 -15 -10  -7  -14.66   12.65
 -15  10  -7    6.38    4.37
 -16 -10  -7   33.91   13.31
 -17 -10  -7    9.51    7.24
 -18 -10  -7   30.57   14.93
 -19 -10  -7   32.55   15.35
 -19  10  -7    0.02    6.13
 -20 -10  -7    0.90    7.24
 -20  10  -7  -14.66   11.34
 -21  10  -7   12.47   11.54
 -22  10  -7    7.63    8.60
 -23 -11   7    2.35   10.71
 -23 -11   7   -0.02    6.42
 -22 -11   7   -1.47    9.85
 -22 -11   7   -4.02    6.52
 -21 -11   7   13.56    7.62
 -21 -11   7    6.59   10.53
 -20 -11   7   32.80   16.46
 -20 -11   7    9.72    8.63
 -19 -11   7   12.65   13.16
 -19 -11   7  -18.64    9.49
  19 -11  -7   -0.23    4.29
  18 -11  -7   32.15   11.22
 -18 -11   7   17.73    9.61
  17 -11  -7    8.63    5.29
 -17 -11   7   18.82    8.00
  16 -11  -7   20.81    9.57
 -16 -11   7   21.35    9.62
  15 -11  -7   -1.59    4.00
 -15 -11   7   -4.10    5.63
 -14 -11   7   17.91    9.25
  14 -11  -7   24.15    9.45
  13 -11  -7    5.44    3.44
 -13 -11   7   18.02    7.41
  12 -11  -7   11.56    6.53
 -12 -11   7   22.68    8.34
  11 -11  -7    0.16    3.49
 -11 -11   7   -0.20    5.19
 -10 -11   7    7.94    5.51
  10 -11  -7   11.87    8.00
   9 -11  -7    5.15    4.80
  -9 -11   7    3.97    4.08
   8 -11  -7   13.49    7.04
   8  11  -7   17.50   11.96
  -8 -11   7   20.35    5.97
  -7 -11   7   35.58    7.18
   7 -11  -7   32.32    9.56
   7  11  -7   14.77    8.02
  -6 -11   7   32.18    6.36
   6  11  -7   -1.45    6.92
   6 -11  -7   17.06    8.25
   5  11  -7   -4.85    6.59
   5 -11  -7   10.60    6.15
  -5 -11   7    1.74    2.36
   4  11  -7   14.49    8.51
  -4 -11   7   15.87    3.80
   4 -11  -7   31.23   10.70
  -3 -11   7    6.26    2.08
   3  11  -7    3.83    5.49
   3 -11  -7   21.02    9.01
  -2 -11   7   10.29    2.54
   2  11  -7   15.90    7.87
   2 -11  -7   15.19    7.95
  -1 -11   7    7.88    1.88
   1  11  -7   -1.95    6.46
   1 -11  -7    7.40    5.96
   0 -11  -7   18.87    8.52
   0  11  -7    7.59    8.01
  -1 -11  -7   10.02    7.18
  -1  11  -7    8.37    7.00
  -2 -11  -7   17.85    8.96
  -2  11  -7    8.35    7.73
  -3  11  -7    5.32    4.57
  -3 -11  -7    5.65    6.10
  -4 -11  -7   -4.75    5.44
  -5  11  -7   10.64    3.71
  -5 -11  -7   11.40    6.37
  -6  11  -7    1.22    2.38
  -6 -11  -7    5.81    4.33
  -7 -11  -7   21.17   10.58
  -7  11  -7   15.68    5.10
  -8  11  -7   19.67    5.65
  -8 -11  -7   -1.67    5.51
  -9  11  -7   13.91    5.24
  -9 -11  -7   -2.25    4.10
 -10  11  -7    9.01    4.22
 -10 -11  -7    6.74    8.63
 -11  11  -7    4.73    4.00
 -11 -11  -7    1.63    5.93
 -12  11  -7    1.71    3.87
 -12 -11  -7    4.32    9.96
 -13 -11  -7    8.08    6.03
 -14 -11  -7    2.77    8.10
 -15 -11  -7   14.78    9.38
 -16 -11  -7   -4.15    6.65
 -17 -11  -7   -5.67    7.93
 -18 -11  -7    6.84    6.65
 -19 -11  -7    5.03    5.76
 -20  11  -7   -1.71    6.59
 -25 -12   7    6.50    9.07
 -24 -12   7    7.33    6.18
 -23 -12   7   15.57   13.77
 -22 -12   7   15.62   10.39
 -21 -12   7    9.34    9.73
 -20 -12   7    0.30    4.37
  19 -12  -7   -4.66    5.30
 -19 -12   7    7.25    8.03
  18 -12  -7   -5.50    4.05
 -18 -12   7   11.11    8.13
  17 -12  -7   11.41    8.76
 -17 -12   7   -0.05    5.04
  16 -12  -7   -0.83    3.54
 -16 -12   7   -5.72    5.52
  15 -12  -7    3.04    4.44
 -15 -12   7   12.44    7.45
  14 -12  -7   14.34    8.07
 -14 -12   7    1.65    4.28
  13 -12  -7    8.57    6.49
 -13 -12   7   -0.65    5.58
 -12 -12   7   -2.37    3.33
  12 -12  -7    7.09    6.45
  11 -12  -7   11.53    7.70
 -11 -12   7    2.88    4.32
  10 -12  -7   11.18    6.29
 -10 -12   7   -4.36    5.11
   9 -12  -7   10.68    6.35
  -9 -12   7    3.94    3.94
  -8 -12   7   -4.85    3.49
   8 -12  -7    1.38    4.08
  -7 -12   7   -1.24    3.55
   7 -12  -7    4.74    5.56
   6 -12  -7    1.44    3.81
  -6 -12   7   -1.45    2.10
   5  12  -7   -8.51    9.02
   5 -12  -7    9.31    5.77
  -5 -12   7    4.16    3.18
   4  12  -7  -11.94   10.92
  -4 -12   7    5.39    2.59
  -3 -12   7    5.98    2.45
   3  12  -7   15.18    9.46
   2  12  -7   13.14    7.50
  -2 -12   7    0.06    1.23
   2 -12  -7    1.85    5.62
  -1 -12   7    9.21    2.58
   1  12  -7   -8.07    7.71
   1 -12  -7   10.32    8.05
   0  12  -7   -7.46    6.92
   0 -12  -7   -1.98    4.27
  -1 -12  -7    0.94    4.91
  -1  12  -7    0.46    8.46
  -2 -12  -7   -2.12    4.93
  -2  12  -7  -10.95    7.96
  -3 -12  -7    5.75    6.46
  -3  12  -7   15.32   10.31
  -4  12  -7    0.26    5.09
  -4 -12  -7   -1.03    4.57
  -5 -12  -7    3.25    6.61
  -5  12  -7    5.73    3.95
  -6 -12  -7    3.58    5.17
  -6  12  -7    3.92    2.64
  -7  12  -7   17.62    5.92
  -7 -12  -7    4.33    6.20
  -8 -12  -7    2.22    4.03
  -9 -12  -7   12.08    8.33
 -10 -12  -7   -7.14    6.61
 -11 -12  -7  -18.77    9.93
 -12 -12  -7    0.78    6.07
 -13 -12  -7   -0.72    6.58
 -14 -12  -7    3.53    7.85
 -15 -12  -7    5.01    9.08
 -16 -12  -7   -7.05    9.16
 -17 -12  -7    9.85    5.73
 -21 -13   7    4.53    5.41
 -20 -13   7    0.46    5.71
  19 -13  -7   -3.43    6.12
 -19 -13   7  -17.76    9.37
  18 -13  -7   10.98    8.31
 -18 -13   7    1.47    4.57
  17 -13  -7   -2.08    4.62
 -17 -13   7    2.03    4.34
  16 -13  -7   -2.81    4.95
 -16 -13   7  -19.46    8.66
  15 -13  -7   -0.26    3.71
 -15 -13   7   -2.98    4.61
  14 -13  -7    3.96    6.18
 -14 -13   7   -4.23    3.89
  13 -13  -7    8.42    6.19
 -13 -13   7   -2.92    4.68
  12 -13  -7    1.05    4.65
 -12 -13   7   -5.05    3.99
  11 -13  -7    4.21    5.07
 -11 -13   7    5.83    4.47
  10 -13  -7   -3.35    5.21
 -10 -13   7    0.45    2.56
  -9 -13   7    2.79    4.06
   9 -13  -7   -4.33    4.00
  -8 -13   7    0.40    2.79
   8 -13  -7   -1.84    4.04
   7 -13  -7  -16.91    7.72
  -7 -13   7    4.30    2.40
   6 -13  -7   -1.69    5.22
  -6 -13   7    2.56    2.83
  -5 -13   7   -4.97    3.61
   5 -13  -7   10.41    7.62
  -4 -13   7   10.60    3.62
   4 -13  -7   -3.69    5.77
  -3 -13   7    4.90    2.75
   3 -13  -7   -1.33    6.03
  -2 -13   7    3.15    2.08
   2 -13  -7   -2.84    4.80
  -1 -13   7    0.52    1.13
   1 -13  -7   -6.48    5.86
   0 -13  -7   -2.53    5.88
   0 -13   7    0.34    1.12
  -1  13  -7    1.72    4.87
  -1 -13  -7   10.82    8.51
  -2 -13  -7   -4.91    4.76
  -2  13  -7    4.16    8.08
  -3 -13  -7   -1.07    5.31
  -3  13  -7  -15.64    9.62
  -4 -13  -7  -13.18    7.77
  -4  13  -7   -1.38    7.72
  -5 -13  -7    6.10    7.47
  -6 -13  -7   -3.35    4.86
  -7 -13  -7  -17.55    9.20
  -8 -13  -7   -0.29    4.53
  -9 -13  -7   15.47   10.18
 -10 -13  -7    8.15    8.05
 -11 -13  -7    6.97    8.88
 -12 -13  -7    0.42    7.91
 -13 -13  -7   -4.03    6.25
 -14 -13  -7  -26.02   12.08
 -15 -13  -7  -12.36    9.23
  16 -14  -7    0.90    3.76
  15 -14  -7  -17.54    8.49
  14 -14  -7   -2.71    5.30
  13 -14  -7    0.77    3.85
  12 -14  -7   -1.71    5.27
  11 -14  -7    8.72    6.05
  10 -14  -7   -2.33    5.66
   9 -14  -7    5.64    6.28
   8 -14  -7   10.37    6.42
   7 -14  -7   14.17    8.14
   6 -14  -7    6.32    7.16
   5 -14  -7    1.99    6.42
   4 -14  -7    8.51    5.17
   3 -14  -7   -2.68    4.68
   2 -14  -7   -2.77    5.69
   1 -14  -7    4.70    6.27
   0 -14  -7    0.54    4.82
  -1 -14  -7  -11.12    7.12
  -2 -14  -7    3.93    5.06
  -3 -14  -7   12.61    8.32
  -4 -14  -7    0.21    4.33
  -5 -14  -7   13.03    8.60
  -6 -14  -7   -0.02    4.48
  -7 -14  -7    0.55    4.24
  -8 -14  -7    5.92    6.88
  -9 -14  -7  -16.01    9.12
 -10 -14  -7   -3.52    5.55
 -11 -14  -7   -0.67    4.47
 -12 -14  -7  -26.14   11.74
  13 -15  -7    3.09    6.45
  12 -15  -7  -13.88    7.71
  11 -15  -7    2.94    5.00
  10 -15  -7   -0.93    6.92
   9 -15  -7   -9.62    8.32
   8 -15  -7   17.22    9.15
   7 -15  -7    1.76    3.96
   6 -15  -7    5.92    5.64
   5 -15  -7    3.16    4.55
   4 -15  -7    3.10    4.90
   3 -15  -7   -0.02    4.88
   2 -15  -7   10.21    8.23
   1 -15  -7    7.04    6.48
   0 -15  -7   -2.90    5.16
  -1 -15  -7   10.51    6.98
  -2 -15  -7   -2.10    4.47
  -3 -15  -7    1.75    5.08
  -4 -15  -7   -0.79    4.28
  -5 -15  -7   10.15    8.28
  -6 -15  -7   -3.46    4.16
  -7 -15  -7  -20.78   10.04
  -8 -15  -7   -1.32    6.01
  -9 -15  -7  -13.32    8.59
   9 -16  -7   10.10    6.31
   8 -16  -7   14.03    8.41
   7 -16  -7   -1.54    4.35
   6 -16  -7   -7.36    6.21
   5 -16  -7    4.35    4.41
   4 -16  -7    1.68    5.43
   3 -16  -7    7.28    6.89
   2 -16  -7  -13.80    6.70
   1 -16  -7    8.49    8.41
   0 -16  -7   -8.89    6.79
  -1 -16  -7    2.32    4.65
  -2 -16  -7    0.89    5.34
  -3 -16  -7   -1.54    4.75
  -4 -16  -7    7.10    6.57
 -29   0   8  149.14   36.05
 -28   0   8  121.76   32.78
 -27   0   8  106.98   28.75
 -26   0   8  206.50   38.10
 -25   0   8   60.91   21.94
 -24   0   8  186.18   34.75
 -23   0   8  140.38   29.09
 -22   0   8  322.50   43.01
 -21   0   8  353.52   44.18
 -20   0   8  844.28   65.32
 -19   0   8   62.42   11.33
 -19   0   8   47.91   14.29
 -18   0   8  170.10   20.66
 -18   0   8   86.52   19.84
 -17   0   8  157.25   17.99
 -17   0   8  138.93   23.67
 -16   0   8  328.66   25.47
 -16   0   8  299.79   34.31
 -15   0   8  202.96   19.33
 -15   0   8  204.42   27.71
 -14   0   8  405.43   26.73
 -14   0   8  401.02   37.59
 -13   0   8  226.04   19.41
 -13   0   8  226.48   26.79
 -12   0   8  330.71   31.45
 -11   0   8  216.18   24.31
 -10   0   8  487.42   26.29
 -10   0   8  479.61   35.10
  10   0  -8  493.12   24.68
   9   0  -8  250.14   17.12
  -9   0   8  260.19   18.87
  -9   0   8  252.39   24.53
   8   0  -8  862.71   31.03
  -8   0   8  838.63   33.12
  -8   0   8  840.97   42.43
   7   0  -8  809.74   29.66
  -7   0   8  760.06   30.92
  -7   0   8  747.87   38.09
   6   0  -8 1403.55   37.63
  -6   0   8 1438.37   41.73
   5   0  -8  398.17   19.94
  -5   0   8  420.66   22.34
   4   0  -8  818.47   28.06
  -4   0   8  760.32   29.54
   3   0  -8  449.73   20.87
  -3   0   8  408.14   21.68
  -2   0   8  809.08   30.93
   2   0  -8  872.03   29.03
  -1   0   8  543.92   26.46
   1   0  -8  531.65   23.09
   0   0  -8  883.81   30.35
   0   0   8  841.00   33.82
   1   0   8  378.08   23.57
  -1   0  -8  397.53   20.86
   2   0   8  564.43   17.78
   2   0   8  561.40   29.95
  -2   0  -8  557.46   25.59
  -3   0  -8  227.10   17.54
   3   0   8  218.44   11.72
   4   0   8  435.45   17.94
  -4   0  -8  435.39   25.23
   5   0   8  193.99   13.18
  -5   0  -8  206.11   19.02
   6   0   8  386.93   20.03
  -6   0  -8  366.88   26.16
   7   0   8  230.42   16.42
  -7   0  -8  209.92   20.45
  -8   0  -8  194.64   20.57
   8   0   8  211.53   16.88
  -9   0  -8   50.80   10.81
  -9   0  -8   46.94    8.25
   9   0   8   46.76    8.51
 -10   0  -8  266.58   26.56
 -10   0  -8  267.14   20.01
  10   0   8  236.69   20.08
 -11   0  -8  224.46   25.46
  11   0   8  196.13   19.28
 -11   0  -8  216.13   19.09
 -12   0  -8  326.15   24.85
  12   0   8  331.08   26.51
 -13   0  -8  184.49   19.81
  13   0   8  178.94   20.50
 -14   0  -8  281.17   25.57
  14   0   8  274.33   26.44
 -15   0  -8  152.83   19.64
 -16   0  -8  275.65   27.70
 -17   0  -8  119.07   19.09
 -18   0  -8  242.45   27.70
 -19   0  -8  114.77   19.52
 -20   0  -8  197.49   26.97
 -21   0  -8  148.02   23.84
 -22   0  -8  115.32   21.22
 -23   0  -8   56.79   15.66
 -24   0  -8   90.93   20.00
 -25   0  -8   34.51   13.61
 -26   0  -8   66.48   17.82
 -27   0  -8   45.71   15.79
 -28   0  -8   92.54   22.78
 -29   0  -8   55.68   18.88
 -29  -1   8  136.56   33.51
 -29   1   8   95.28   28.78
 -28  -1   8   80.31   23.34
 -28   1   8  125.96   32.95
 -27  -1   8  106.29   28.40
 -27   1   8  157.42   34.68
 -26  -1   8   76.63   24.95
 -26   1   8  106.12   27.33
 -25  -1   8  147.75   30.83
 -25   1   8  185.71   35.38
 -24  -1   8  134.89   29.89
 -24   1   8  122.65   28.90
 -23  -1   8  242.53   38.50
 -23   1   8  218.28   36.44
 -22  -1   8  190.91   33.05
 -22   1   8  179.17   32.42
 -21  -1   8  370.41   44.63
 -21   1   8  430.82   49.30
 -20  -1   8  226.58   23.33
 -20  -1   8  237.99   34.91
 -20   1   8  254.44   36.62
 -19  -1   8  274.61   25.31
 -19   1   8  274.79   25.39
 -19  -1   8  248.69   34.78
 -19   1   8  269.20   36.59
 -18  -1   8  108.25   14.75
 -18   1   8  108.15   15.33
 -18  -1   8  100.71   21.53
 -18   1   8   83.44   19.12
 -17  -1   8  147.63   17.13
 -17   1   8  166.79   19.14
 -17  -1   8  148.11   25.21
 -17   1   8  128.82   24.17
 -16  -1   8  190.70   18.86
 -16   1   8  172.82   18.54
 -16  -1   8  177.59   26.63
 -16   1   8  171.64   26.49
 -15  -1   8  247.09   20.98
 -15   1   8  242.21   21.97
 -15  -1   8  244.13   30.41
 -15   1   8  284.14   33.12
 -14  -1   8  204.07   18.36
 -14   1   8  200.01   19.50
 -14  -1   8  203.23   26.91
 -14   1   8  208.02   27.85
 -13   1   8  207.47   19.19
 -13  -1   8  201.70   25.93
 -13   1   8  202.32   25.79
 -12  -1   8  179.48   23.22
 -12   1   8  196.12   24.76
  11  -1  -8  271.91   19.50
 -11  -1   8  269.84   19.28
 -11  -1   8  262.73   27.08
 -11   1   8  266.68   27.61
  10  -1  -8  178.88   15.92
 -10  -1   8  198.72   16.14
 -10  -1   8  194.08   22.61
   9  -1  -8  400.60   22.98
  -9  -1   8  392.99   21.76
  -9   1   8  420.16   25.35
  -9  -1   8  382.60   30.11
   8  -1  -8  339.62   20.71
  -8  -1   8  320.55   19.42
  -8  -1   8  337.09   26.90
   8   1  -8  362.37   18.87
  -8   1   8  354.49   22.57
   7   1  -8  764.59   26.45
   7  -1  -8  769.85   30.52
  -7  -1   8  779.00   29.28
  -7  -1   8  761.05   38.41
  -7   1   8  797.33   33.54
   6   1  -8  630.43   23.69
   6  -1  -8  617.04   26.94
  -6  -1   8  610.76   25.60
  -6   1   8  624.02   29.22
  -6  -1   8  651.17   33.58
   5   1  -8  626.01   22.89
  -5  -1   8  674.35   26.08
  -5  -1   8  674.96   32.03
  -5   1   8  667.83   29.90
   5  -1  -8  661.48   27.64
   4   1  -8  375.23   17.56
   4  -1  -8  385.06   20.87
  -4  -1   8  394.01   22.85
  -4  -1   8  351.55   18.65
  -4   1   8  321.82   20.72
   3   1  -8  596.95   21.77
   3  -1  -8  555.53   25.37
  -3  -1   8  569.58   25.01
  -3  -1   8  572.77   23.36
  -3   1   8  574.97   27.56
  -2  -1   8  441.01   20.98
  -2   1   8  454.46   25.12
   2   1  -8  444.54   18.99
   2  -1  -8  488.24   23.77
  -2  -1   8  449.99   20.10
  -1   1   8  607.47   29.70
  -1  -1   8  619.09   25.51
   1   1  -8  637.48   22.64
  -1  -1   8  623.74   20.87
   1  -1  -8  615.11   26.89
   0   1  -8  354.53   17.52
   0   1   8  368.64   23.99
   0  -1   8  382.18   20.79
   0  -1   8  314.46   12.26
   0  -1  -8  348.67   20.60
   1   1   8  394.80   25.74
  -1   1  -8  417.59   19.50
  -1  -1  -8  415.75   23.19
   1  -1   8  403.92   22.56
   2   1   8  289.72   22.89
  -2   1  -8  274.23   16.72
  -2  -1  -8  254.66   18.58
   3   1   8  324.06   25.25
  -3  -1  -8  342.78   22.61
  -3   1  -8  319.24   19.11
   3   1   8  335.61   17.96
  -4  -1  -8  221.63   19.18
   4   1   8  231.11   15.70
  -4   1  -8  208.87   16.51
   5   1   8  336.58   19.90
  -5  -1  -8  322.60   24.08
  -5   1  -8  305.54   21.20
  -6  -1  -8  170.32   18.38
  -6   1  -8  193.94   17.82
   6   1   8  180.34   15.72
   7   1   8  164.79   16.00
  -7  -1  -8  154.24   18.24
  -7   1  -8  151.01   16.36
  -8   1  -8  115.18   10.21
   8   1   8  125.38   14.56
  -8  -1  -8  120.63   16.77
  -8   1  -8  118.89   15.79
  -9   1  -8  161.51   18.93
  -9   1  -8  176.89   13.87
   9   1   8  148.56   17.10
  -9  -1  -8  149.21   19.11
 -10  -1  -8  124.24   18.94
 -10   1  -8  112.13   12.47
  10   1   8  134.15   16.72
 -11   1  -8  223.10   18.68
 -11  -1  -8  234.87   21.17
  11   1   8  237.23   23.18
 -11  -1  -8  236.81   26.85
 -12  -1  -8  205.17   25.82
 -12  -1  -8  179.28   19.30
  12   1   8  181.56   21.43
 -12   1  -8  174.96   18.05
 -13   1  -8  268.35   22.94
  13   1   8  275.65   26.89
 -13  -1  -8  252.39   24.08
 -13  -1  -8  244.73   29.04
 -14   1  -8  218.29   22.13
 -14  -1  -8  180.22   21.22
 -15  -1  -8  143.29   19.31
 -15   1  -8  245.33   24.29
 -16   1  -8  174.48   21.85
 -16  -1  -8  108.99   17.66
 -17  -1  -8  157.83   22.00
 -17   1  -8  232.32   26.08
  17   1   8  193.30   26.02
 -18  -1  -8  102.88   18.45
 -18   1  -8  140.73   21.31
  18   1   8  125.85   21.54
 -19  -1  -8  159.57   23.62
 -19   1  -8  163.31   23.05
  19   1   8  183.27   27.00
 -20   1  -8  132.62   22.77
 -20  -1  -8  148.13   23.84
 -21  -1  -8   87.98   19.10
 -21   1  -8   82.73   18.58
 -22  -1  -8   38.17   13.11
 -22   1  -8   50.76   14.42
 -23   1  -8   71.23   17.69
 -23  -1  -8   69.51   18.42
 -24   1  -8   33.77   13.02
 -24  -1  -8   61.81   18.28
 -25  -1  -8   47.94   15.52
 -25   1  -8   41.46   15.38
 -26  -1  -8   48.54   15.33
 -26   1  -8   22.30   11.95
 -27   1  -8  107.67   24.53
 -27  -1  -8   55.39   17.50
 -28  -1  -8   44.67   17.57
 -28   1  -8   28.70   12.89
 -29  -1  -8   33.13   14.17
 -29   1  -8   51.27   16.64
 -30  -1  -8   27.45   12.25
 -29   2   8  485.46   61.97
 -29  -2   8   71.30   24.38
 -28  -2   8   93.59   27.47
 -28   2   8   75.26   26.47
 -27  -2   8   59.28   20.09
 -27   2   8   98.90   27.19
 -26  -2   8   61.92   21.16
 -26   2   8   67.53   24.77
 -25  -2   8   85.33   24.41
 -25   2   8   96.93   25.96
 -24  -2   8  104.93   26.66
 -24   2   8   90.81   24.23
 -23  -2   8   87.16   23.99
 -23   2   8  112.86   26.74
 -22  -2   8  142.48   28.38
 -22   2   8  130.66   28.33
 -21  -2   8   76.18   20.63
 -21   2   8   83.70   22.09
 -20  -2   8   28.99    9.54
 -20  -2   8   17.09   11.10
 -20   2   8   27.25   13.30
 -19  -2   8  301.97   25.69
 -19  -2   8  264.75   36.11
 -19   2   8  283.49   37.41
 -18  -2   8  187.95   19.53
 -18   2   8  161.57   19.83
 -18  -2   8  186.66   29.35
 -18   2   8  168.68   28.53
 -17  -2   8   84.59   12.93
 -17   2   8  107.53   15.47
 -17  -2   8   70.62   17.10
 -17   2   8   99.26   22.81
 -16  -2   8   57.90   10.65
 -16   2   8   65.57   12.06
 -16  -2   8   52.45   16.29
 -16   2   8   57.07   16.22
 -15  -2   8  144.12   15.88
 -15   2   8  145.55   17.66
 -15  -2   8  131.45   22.90
 -15   2   8  131.80   22.69
 -14   2   8   58.81   10.85
 -14  -2   8   38.86   12.41
 -13   2   8  138.38   16.22
 -13  -2   8  142.85   22.16
  13  -2  -8  140.14   15.19
  12  -2  -8   86.14   11.71
 -12   2   8   87.81   12.98
 -12  -2   8   74.38   15.58
  11  -2  -8   88.35   11.75
 -11  -2   8   87.45   10.67
 -11   2   8   88.01   12.80
 -11  -2   8   79.22   15.48
  10  -2  -8   99.98   12.27
 -10  -2   8   92.32   10.39
 -10  -2   8   87.51   15.84
   9  -2  -8  261.33   20.24
  -9  -2   8  248.92   16.61
  -9  -2   8  263.80   25.28
   8  -2  -8  205.95   16.95
  -8  -2   8  214.79   14.90
  -8  -2   8  229.93   22.73
   7  -2  -8  155.02   14.47
  -7  -2   8  160.68   12.33
  -7  -2   8  161.49   18.60
  -7   2   8  136.83   14.84
  -6  -2   8  104.20    9.62
  -6  -2   8  104.70   14.01
  -6   2   8  102.93   12.63
   6  -2  -8   99.97   11.65
   5   2  -8  380.16   15.86
   5  -2  -8  376.10   22.13
  -5  -2   8  397.46   25.00
  -5  -2   8  386.27   18.08
  -5   2   8  368.63   24.06
   4   2  -8  331.94   14.53
  -4  -2   8  343.54   21.47
   4  -2  -8  339.82   21.17
  -4  -2   8  314.05   15.89
  -4   2   8  318.17   22.05
   3   2  -8  314.94   13.70
  -3  -2   8  307.22   18.36
   3  -2  -8  292.45   19.63
  -3  -2   8  270.41   14.46
  -3   2   8  280.05   20.52
  -2   2   8  206.97   18.33
  -2  -2   8  208.67   12.79
   2   2  -8  211.60   11.11
  -2  -2   8  209.32   13.21
   2  -2  -8  206.24   16.65
  -1   2   8  278.40   21.41
  -1  -2   8  243.18   11.53
  -1  -2   8  244.87   14.42
   1  -2  -8  271.58   19.22
   1   2  -8  261.46   12.46
   0   2  -8  158.55    9.92
   0   2   8  158.24   17.16
   0  -2   8  161.66   12.39
   0  -2  -8  154.87   14.74
   1   2   8  162.83   17.53
  -1   2  -8  177.84   11.11
  -1  -2  -8  180.86   16.42
   2   2   8  168.36   18.69
  -2   2  -8  154.45   11.04
  -2  -2  -8  174.82   16.48
  -3  -2  -8  175.14   17.16
  -3   2  -8  183.58   13.13
   3   2   8  206.71   21.17
  -4  -2  -8   93.36   13.01
  -4   2  -8  103.00   10.69
   4   2   8   98.80   11.63
   4   2   8   96.10   14.93
   5   2   8  127.30   13.85
  -5  -2  -8  137.49   16.69
  -5   2  -8  136.54   13.31
  -6   2  -8   24.88    6.37
   6   2   8   30.11    7.75
  -6  -2  -8   31.00    8.50
  -7   2  -8   74.43    6.36
   7   2   8   74.71   11.90
  -7  -2  -8   81.82   13.75
  -7   2  -8   89.92   12.60
  -8  -2  -8   73.12   13.93
  -8   2  -8   77.02    7.91
  -8   2  -8   81.18   12.82
   8   2   8   80.93   13.35
  -9   2  -8  208.66   14.71
  -9  -2  -8  199.59   23.45
   9   2   8  182.16   20.12
 -10   2  -8   94.67   10.89
  10   2   8   98.05   15.71
 -10  -2  -8  102.90   17.38
 -11  -2  -8  115.79   19.23
 -11   2  -8  145.79   14.91
  11   2   8  121.97   18.31
 -12   2  -8  126.86   15.37
 -12  -2  -8  116.36   19.19
  12   2   8  119.32   18.59
 -13   2  -8  173.53   18.86
 -13  -2  -8  144.47   19.22
 -13  -2  -8  151.82   24.01
 -14   2  -8  144.24   17.77
 -14  -2  -8  101.25   16.64
 -14  -2  -8  121.24   21.60
 -15   2  -8  151.94   19.26
 -15  -2  -8  108.93   17.58
 -15  -2  -8  143.18   23.95
 -16  -2  -8   77.13   15.39
 -16   2  -8  113.27   17.51
 -16  -2  -8   80.54   17.73
  16   2   8  100.54   19.39
 -17  -2  -8   98.93   17.88
 -17   2  -8  101.69   17.87
  17   2   8  120.22   21.32
 -17  -2  -8  100.75   21.62
 -18  -2  -8   90.96   17.51
  18   2   8  101.52   20.04
 -18   2  -8   75.16   16.22
 -19  -2  -8  108.41   20.03
 -19   2  -8  104.70   19.21
  19   2   8  105.08   21.55
 -20  -2  -8   30.02   10.95
 -20   2  -8   14.55    8.68
  20   2   8   26.67   12.47
 -21  -2  -8   21.15   10.63
 -21   2  -8   31.46   12.64
  21   2   8   32.65   11.76
 -22  -2  -8   94.20   22.83
 -22   2  -8    9.98    7.22
 -23  -2  -8   52.13   14.85
 -23   2  -8   53.10   14.84
 -24  -2  -8   12.16   10.02
 -24   2  -8   27.31   11.72
 -25  -2  -8   17.05    8.31
 -25   2  -8   25.98   13.11
 -26  -2  -8   14.79    6.66
 -26   2  -8   33.05   10.95
 -27  -2  -8   15.39    9.28
 -27   2  -8   26.75   10.79
 -28  -2  -8   19.69   11.81
 -28   2  -8   14.13    8.13
 -29  -2  -8   37.73   13.86
 -29  -3   8  -14.72   12.30
 -29   3   8   10.60   12.08
 -28  -3   8   17.96   14.50
 -28   3   8   40.07   18.25
 -27  -3   8    8.49    8.29
 -27   3   8    3.14   10.71
 -26  -3   8   73.02   23.17
 -26   3   8   85.51   26.72
 -25  -3   8   16.45   13.52
 -25   3   8    6.48    8.43
 -24  -3   8   62.47   19.70
 -24   3   8   61.36   20.80
 -23  -3   8   15.32   12.39
 -23   3   8   21.51   15.02
 -22  -3   8   40.08   16.33
 -22   3   8   42.83   17.52
 -21  -3   8    5.16    6.95
 -21   3   8  129.96   40.33
 -20  -3   8   47.33   10.17
 -20  -3   8   36.78   13.45
 -20   3   8   59.84   19.08
 -19  -3   8   12.56    5.70
 -19  -3   8   20.34   12.87
 -19   3   8    2.79    7.12
 -18  -3   8  267.07   22.88
 -18  -3   8  243.93   34.27
 -18   3   8  260.11   36.68
 -17  -3   8   37.13    8.36
 -17   3   8   35.00    9.72
 -17  -3   8   42.03   14.07
 -17   3   8   35.50   12.74
 -16  -3   8   56.84   10.22
 -16   3   8   44.84    9.92
 -16  -3   8   59.59   16.33
 -15   3   8    3.08    3.35
 -15  -3   8    0.66    2.48
 -15  -3   8    0.18    8.55
  14  -3  -8   49.36    9.75
 -14   3   8   52.82   11.10
 -14  -3   8   53.87   16.03
  13  -3  -8    7.39    4.76
 -13  -3   8   15.41    9.44
 -13   3   8    4.68    4.06
 -12  -3   8   81.76   10.38
  12  -3  -8   68.72   11.13
 -12  -3   8   76.15   16.00
 -12   3   8   75.12   12.24
  12   3  -8   76.38   15.74
  11  -3  -8    2.34    2.81
 -11  -3   8    8.85    3.11
 -11  -3   8    1.68    4.48
 -11   3   8    3.87    3.20
  11   3  -8    3.61    4.34
  10  -3  -8   98.84   12.84
 -10  -3   8   95.61   10.21
 -10  -3   8   94.45   16.29
 -10   3   8   76.82   12.59
  10   3  -8   99.03   15.76
   9  -3  -8   22.40    6.45
  -9  -3   8   27.41    5.39
  -9  -3   8   31.31    9.74
   9   3  -8   32.01    9.52
   8  -3  -8   95.74   12.51
  -8  -3   8   80.30    8.78
  -8  -3   8  100.69   15.14
   8   3  -8   92.25   13.86
   7  -3  -8    1.56    2.67
  -7  -3   8    3.98    2.26
  -7  -3   8    6.60    6.00
   7   3  -8    1.50    3.09
   6  -3  -8   66.32    9.98
  -6  -3   8   68.89    7.30
  -6  -3   8   62.15   10.77
   6   3  -8   56.72   10.32
  -5  -3   8   28.07    7.39
   5  -3  -8   34.20    7.16
  -5  -3   8   36.82    5.11
   5   3  -8   31.26    6.65
   4  -3  -8  239.22   18.72
  -4  -3   8  257.70   12.81
  -4  -3   8  237.08   17.67
  -3  -3   8   56.30    7.93
  -3   3   8   49.45    9.40
  -3  -3   8   43.53    5.19
   3  -3  -8   58.85    9.62
   2   3  -8   92.87    5.99
  -2   3   8   93.26   13.04
  -2  -3   8   87.43    7.19
  -2  -3   8  107.54    9.36
   2  -3  -8   96.80   12.06
   1  -3  -8   24.64    6.22
  -1   3   8   20.68    7.11
  -1  -3   8   16.94    3.56
   1   3  -8   16.78    2.54
   0   3  -8   92.85    6.09
   0   3   8   95.76   13.80
   0  -3  -8   86.59   11.95
  -1  -3  -8   35.80    7.51
  -1   3  -8   31.73    3.87
  -2   3  -8  100.84    7.72
  -2  -3  -8   91.35   12.72
  -3  -3  -8    8.34    4.66
  -3   3  -8    7.79    2.92
  -4   3  -8   68.17    8.06
   4   3   8   62.10   10.58
  -4  -3  -8   54.29   10.82
  -5  -3  -8    4.95    3.91
   5   3   8    3.60    4.00
  -5   3  -8    3.68    3.10
   6   3   8   62.21   11.18
  -6  -3  -8   64.16   12.24
  -6   3  -8   58.81    9.41
   7   3   8    4.64    4.04
  -7   3  -8    1.27    1.07
  -7  -3  -8   -3.23    5.05
  -7   3  -8    0.45    3.34
  -8   3  -8   94.75    8.99
   8   3   8   98.15   15.04
  -8  -3  -8   88.16   15.30
  -9  -3  -8   11.12    6.22
   9   3   8   10.00    6.28
  -9   3  -8    9.11    3.60
  10   3   8  111.91   17.47
 -10   3  -8  108.64   11.93
 -10  -3  -8  107.64   18.15
 -11  -3  -8   36.62   12.73
 -11   3  -8   10.94    5.01
 -12   3  -8   46.55    9.16
 -12  -3  -8   59.67   15.60
 -13  -3  -8   20.16    9.34
 -13   3  -8    8.82    5.81
 -14   3  -8   57.08   11.74
 -14  -3  -8   57.16   14.97
  14   3   8   36.92   12.74
 -15  -3  -8   20.07    8.30
 -15   3  -8   14.65    6.78
  15   3   8   15.35    9.89
 -15  -3  -8   18.97    9.25
 -16  -3  -8   52.00   14.77
 -16  -3  -8   70.33   15.28
 -16   3  -8   70.25   13.69
  16   3   8   59.66   16.31
 -17   3  -8   -2.13    6.01
 -17  -3  -8    7.75    6.12
  17   3   8    2.79    3.70
 -18  -3  -8   88.46   18.47
 -18  -3  -8   71.06   18.93
 -18   3  -8   45.71   12.86
  18   3   8   63.09   17.36
 -19   3  -8   -1.83    3.88
 -19  -3  -8    1.32    6.99
 -19  -3  -8    5.92    6.68
  19   3   8   15.97   11.32
 -20  -3  -8   -4.79    7.59
 -20   3  -8    3.93    5.98
 -20  -3  -8    7.31    8.26
  20   3   8   -6.92   10.54
 -21  -3  -8   -8.10    8.42
 -21  -3  -8    5.30    9.41
 -21   3  -8    1.78    4.29
 -22  -3  -8   19.01    6.53
 -22   3  -8   26.23   10.10
 -22  -3  -8   48.10   18.86
 -23   3  -8    3.16    7.76
 -23  -3  -8   -4.71    5.88
 -23  -3  -8    0.08    6.13
 -24  -3  -8   26.74   10.81
 -24   3  -8   30.61   13.44
 -25  -3  -8   -3.51   10.90
 -25   3  -8    0.49    6.62
 -26  -3  -8   29.88   14.75
 -26   3  -8   25.95   13.38
 -27  -3  -8   -6.93   10.02
 -27   3  -8   15.92   10.38
 -28  -3  -8   13.72    9.05
 -29  -3  -8    3.80    9.55
 -29  -4   8   -7.98   10.98
 -28  -4   8    6.61    9.37
 -28   4   8   23.54   13.46
 -27  -4   8    9.51   13.14
 -27   4   8   27.07   13.40
 -26  -4   8   -7.06   10.77
 -26   4   8   16.19   13.18
 -25   4   8    4.90    8.12
 -25  -4   8   -3.34    9.52
 -24  -4   8   -5.23    5.90
 -24   4   8   13.16   12.44
 -23  -4   8   -0.84    7.30
 -23   4   8   16.24    8.44
 -22  -4   8   73.46   21.91
 -22   4   8   65.02   20.88
 -21  -4   8   26.59   14.11
 -21   4   8    4.76    6.65
 -20  -4   8   19.34    6.73
 -20  -4   8   15.96   10.56
 -20   4   8    7.92   12.67
 -19  -4   8   10.39    4.64
 -19  -4   8    3.59    6.81
 -18  -4   8    7.15    4.49
 -18  -4   8    4.13    9.61
  18   4  -8    0.83    6.15
 -17  -4   8  239.15   20.92
 -17  -4   8  198.22   30.02
  17   4  -8  241.57   32.62
 -16  -4   8   -0.78    3.12
 -16  -4   8    4.85    5.72
 -16   4   8    6.30    4.80
  16   4  -8   -0.26    7.40
  15  -4  -8   23.35    7.50
 -15  -4   8   15.40    5.66
 -15  -4   8   10.11    7.21
 -15   4   8    8.61    6.17
  15   4  -8   12.86    6.78
  14  -4  -8   14.74    6.09
 -14  -4   8   10.06    7.66
 -14   4   8    9.97    4.62
  14   4  -8   13.14    7.51
  13  -4  -8   25.70    7.23
 -13  -4   8   13.93    6.72
 -13   4   8   26.43    8.21
  13   4  -8   28.05    9.88
 -12  -4   8   14.75    4.90
  12  -4  -8   18.30    6.64
 -12  -4   8   13.73    8.58
 -12   4   8   13.49    6.90
  12   4  -8   11.71    8.26
 -11  -4   8   62.72    8.48
 -11  -4   8   71.22   14.54
 -11   4   8   52.31   11.02
  11  -4  -8   51.46    9.44
  11   4  -8   53.65   12.53
 -10  -4   8   35.62    6.44
 -10  -4   8   35.24   10.20
  10   4  -8   36.64   10.71
 -10   4   8   31.64    8.88
  10  -4  -8   35.52    8.48
  -9  -4   8   12.35    3.41
   9  -4  -8   10.14    4.26
  -9  -4   8   17.86    6.92
   9   4  -8   15.13    7.09
  -9   4   8   17.00    6.20
  -8  -4   8   78.11    8.15
   8  -4  -8   77.12   11.64
  -8  -4   8   73.63   13.25
   8   4  -8   66.80   12.45
  -7  -4   8   19.99    6.83
   7  -4  -8   21.71    6.26
  -7  -4   8   23.63    4.13
   7   4  -8   20.57    7.14
  -6  -4   8   38.80    9.73
  -6  -4   8   26.28    4.37
   6  -4  -8   21.08    6.94
   6   4  -8   19.22    7.50
  -5  -4   8   56.40    5.76
  -5  -4   8   51.75    9.64
   5  -4  -8   54.31    9.26
   5   4  -8   50.37    9.02
  -4  -4   8   12.38    2.77
  -4  -4   8   17.07    5.98
   4  -4  -8   17.90    6.17
   4   4  -8   16.65    5.47
   3  -4  -8  102.67   13.15
  -3  -4   8  114.03   11.43
   3   4  -8  118.94   12.48
  -3  -4   8   89.53    5.94
   2   4  -8   13.03    4.11
   2  -4  -8   17.63    6.14
   1  -4  -8   41.82    8.60
   1   4  -8   47.03    6.67
   0  -4  -8    7.01    4.38
   0   4  -8   12.37    3.36
  -1  -4  -8   57.61   10.44
  -1   4  -8   47.08    5.15
  -2  -4  -8   32.16    8.47
  -2   4  -8   24.11    2.90
  -3   4  -8   24.43    3.72
  -3  -4  -8   14.10    5.15
  -4   4  -8  108.26    8.90
   4   4   8  162.25   18.49
  -4  -4  -8  105.74   15.23
   4   4   8  131.53   19.57
  -5  -4  -8    2.79    3.63
  -5   4  -8    2.98    1.74
   5   4   8   12.83    5.32
   5   4   8   14.48    7.22
   6   4   8   81.13   13.46
  -6   4  -8   54.95    5.64
  -6   4  -8   69.86    9.16
  -6  -4  -8   67.55   12.88
   7   4   8   53.64   11.79
  -7   4  -8   36.69    5.37
  -7  -4  -8   35.16    9.21
   8   4   8   28.07    8.16
  -8   4  -8   26.21    5.23
  -8  -4  -8   30.23    8.69
  -9   4  -8   11.08    4.26
  -9  -4  -8   23.35    9.43
 -10   4  -8   22.37    5.75
 -10  -4  -8   25.95   10.00
 -11  -4  -8   19.03    8.78
 -11   4  -8   27.28    7.40
 -12  -4  -8   21.71    9.76
  12   4   8   17.70    8.63
 -12   4  -8   22.69    7.44
 -13  -4  -8   19.45   10.33
  13   4   8   12.46    6.04
 -13   4  -8   11.28    6.22
  14   4   8   15.82    7.45
 -14   4  -8   20.09    7.23
 -14  -4  -8   10.81    8.93
 -15  -4  -8    8.44    4.98
 -15   4  -8    6.67    4.83
  15   4   8   -0.51    5.84
 -16  -4  -8    4.60    5.28
 -16   4  -8    9.70    5.94
  16   4   8   -1.02    4.35
 -17  -4  -8   25.47   12.17
 -17   4  -8   21.89    8.93
 -17  -4  -8   24.64   10.08
  17   4   8    4.93    7.24
 -18  -4  -8   88.92   19.51
 -18   4  -8   78.24   15.68
  18   4   8   97.72   22.70
 -18  -4  -8   73.05   18.75
 -19  -4  -8    9.38    5.52
 -19   4  -8    4.38    6.29
  19   4   8    0.70    6.96
 -19  -4  -8    7.44    5.97
 -20  -4  -8   27.12   13.65
 -20  -4  -8   40.04   13.71
 -20   4  -8   25.80   10.52
 -21  -4  -8   22.05   10.87
 -21  -4  -8   44.85   16.57
 -21   4  -8   11.15    9.85
 -22  -4  -8   12.24    8.00
 -22   4  -8   10.49    7.85
 -22  -4  -8   10.57   12.06
 -23  -4  -8   10.20    8.05
 -23   4  -8   12.47    7.73
 -23  -4  -8   -3.05    9.20
 -24  -4  -8    8.94    8.05
 -24  -4  -8   -9.84   12.04
 -24   4  -8    4.39    5.98
 -25  -4  -8   -3.37    7.24
 -25   4  -8    7.16    8.59
 -26  -4  -8   -8.39    7.61
 -26   4  -8    3.50    7.02
 -27  -4  -8  -12.77    9.75
 -28  -4  -8   12.93   10.76
 -29  -4  -8    4.20    7.35
 -28  -5   8    3.82    8.50
 -28   5   8   -2.69   13.84
 -27  -5   8   27.41   14.67
 -27   5   8  207.86   46.06
 -26  -5   8  -12.58   10.69
 -26   5   8    9.16   11.84
 -25  -5   8   50.32   20.12
 -25   5   8   44.04   21.32
 -24  -5   8   -7.54   12.91
 -24   5   8    4.39    9.52
 -23   5   8   78.06   24.30
 -23  -5   8   95.07   24.72
 -22  -5   8  -21.49   14.72
 -22   5   8   14.26   10.29
 -21  -5   8   48.24   18.35
 -20  -5   8   -2.29    8.08
 -20  -5   8    1.41    2.33
 -19  -5   8   59.35   17.67
 -19  -5   8   55.19   11.11
 -18  -5   8   -6.76    8.85
 -18  -5   8    2.11    2.31
 -17  -5   8   32.69   13.36
  17   5  -8   44.23   15.03
 -17  -5   8   53.57   10.13
  16  -5  -8  112.21   15.83
 -16  -5   8   91.76   20.13
  16   5  -8  107.94   21.45
 -16  -5   8   90.49   12.26
  15  -5  -8   42.12   10.29
 -15  -5   8   41.95   13.45
 -15   5   8   50.68   11.97
  15   5  -8   45.18   14.33
 -15  -5   8   54.57    9.51
  14  -5  -8    4.01    4.23
 -14   5   8   14.23    7.21
 -14  -5   8    8.07    5.12
  14   5  -8    1.22    5.94
  13  -5  -8   58.71   11.52
 -13  -5   8   55.59   14.59
 -13   5   8   56.54   12.68
  13   5  -8   60.62   15.74
 -12  -5   8   15.75    4.38
  12  -5  -8   11.69    5.59
 -12  -5   8   25.05    9.91
  12   5  -8   13.55    8.14
 -12   5   8   15.35    6.18
 -11  -5   8   83.66    9.75
  11  -5  -8   91.37   13.60
  11   5  -8   74.75   15.61
 -11  -5   8   89.78   16.86
 -11   5   8   83.99   14.33
 -10  -5   8   -2.66    2.96
  10  -5  -8   -2.99    4.27
 -10  -5   8   -3.75    4.47
  10   5  -8   -2.54    4.72
 -10   5   8    3.86    3.82
  -9  -5   8  235.19   14.47
   9  -5  -8  223.25   21.01
  -9  -5   8  227.51   24.56
   9   5  -8  232.65   25.90
  -8  -5   8   -1.93    2.21
  -8  -5   8    3.81    3.57
   8  -5  -8   -2.33    2.42
   8   5  -8    3.31    4.02
  -7  -5   8  146.82    9.80
   7  -5  -8  145.47   16.53
  -7  -5   8  131.79   16.96
   7   5  -8  141.47   18.82
  -6  -5   8    3.81    3.69
  -6  -5   8    0.95    1.33
   6  -5  -8   -3.09    4.17
   6   5  -8   -1.34    3.03
  -5  -5   8  186.05    9.23
   5  -5  -8  207.48   19.41
   5   5  -8  197.98   20.30
  -5  -5   8  220.99   19.48
  -4  -5   8    0.22    0.59
  -4  -5   8   -2.87    3.68
   4   5  -8   -1.87    4.12
   4  -5  -8   -1.17    2.82
   3   5  -8  119.98   14.45
   3  -5  -8  121.00   14.98
   2   5  -8   34.82    7.27
   2  -5  -8   47.48   10.04
   1   5  -8   96.31   11.30
   1  -5  -8   93.64   13.75
   0  -5  -8   12.99    4.71
   0   5  -8   14.13    4.62
  -1   5  -8  132.87   11.53
  -1  -5  -8  138.81   16.76
  -2  -5  -8   13.36    6.49
  -2   5  -8    5.08    2.69
  -3   5  -8  144.65   10.42
  -3  -5  -8  164.79   19.28
  -4   5  -8    7.51    1.60
  -4   5  -8    4.50    1.87
  -4   5  -8    5.75    2.37
   4   5   8    9.45    6.15
  -4  -5  -8    9.51    6.34
  -5  -5  -8  128.64   17.80
   5   5   8  177.13   24.97
  -5   5  -8  146.55   10.69
  -6  -5  -8    1.19    3.81
  -7  -5  -8  122.08   18.60
  -8  -5  -8   13.04    7.73
  -8   5  -8    0.98    2.56
  -9  -5  -8   51.82   14.15
  -9   5  -8   64.91    9.42
  10   5   8   10.55    7.69
 -10  -5  -8   -2.02    4.86
 -10   5  -8    5.37    4.67
  11   5   8   85.67   17.80
 -11   5  -8   87.48   12.23
 -11  -5  -8   77.00   16.80
 -12  -5  -8   10.02    6.31
  12   5   8    8.86    7.14
 -12   5  -8    5.77    3.52
 -13  -5  -8   85.55   18.33
  13   5   8   88.88   19.18
 -13   5  -8   68.68   12.09
 -14  -5  -8   -1.18    6.25
  14   5   8   -7.03    9.44
 -14   5  -8   -4.06    4.09
 -15  -5  -8   43.56   13.59
  15   5   8   57.09   16.32
 -15   5  -8   75.83   13.89
  16   5   8   -7.08    4.52
 -16  -5  -8    5.09    7.03
 -17   5  -8  165.38   21.92
  17   5   8  168.31   29.34
 -17  -5  -8  167.51   27.87
 -18  -5  -8   10.07    6.78
 -18   5  -8    0.27    4.27
 -19  -5  -8   70.56   18.90
 -19   5  -8   75.76   16.29
 -20   5  -8    3.37    4.35
 -20  -5  -8   -1.97    5.61
 -21  -5  -8   41.46   14.49
 -21  -5  -8   34.93   13.43
 -21   5  -8   48.53   14.63
 -22  -5  -8    2.98    7.11
 -22   5  -8   11.19    9.30
 -22  -5  -8    4.80    7.08
 -23  -5  -8    5.10    7.24
 -23   5  -8    3.54    5.95
 -24  -5  -8    3.68    6.19
 -24  -5  -8    7.46    9.06
 -25  -5  -8  -12.61   12.44
 -25   5  -8    7.74    6.96
 -25  -5  -8   13.94    8.87
 -26  -5  -8    8.25    6.05
 -27  -5  -8   11.86   10.06
 -28  -5  -8   -2.12    6.02
 -28  -6   8   37.43   16.99
 -27  -6   8   30.96   19.99
 -27   6   8   -5.19   10.25
 -26  -6   8   32.18   13.26
 -26   6   8   87.50   27.48
 -25  -6   8   22.30   13.19
 -25   6   8   12.47   13.66
 -24  -6   8   86.28   24.05
 -24   6   8   80.74   27.12
 -23  -6   8   19.34   11.36
 -23   6   8    4.72    7.72
 -22  -6   8   70.34   20.15
 -21  -6   8   15.47    8.86
 -20  -6   8  101.08   23.37
 -19  -6   8    8.06    8.62
 -18  -6   8  131.32   25.78
  17  -6  -8   34.61    9.64
 -17  -6   8   26.57   12.49
 -16  -6   8   55.65   15.62
  16  -6  -8   54.35   11.85
  16   6  -8   56.97   15.91
  15  -6  -8   33.26    8.80
 -15  -6   8   44.22   13.67
  15   6  -8   44.57   15.16
  14  -6  -8  110.11   16.12
 -14  -6   8   86.27   19.03
 -14   6   8  135.24   19.66
  14   6  -8  107.40   21.79
  13  -6  -8   -3.10    4.37
 -13  -6   8   -1.88    7.71
  13   6  -8   -2.24    7.58
 -13   6   8    2.19    4.59
  12  -6  -8  147.85   17.83
 -12   6   8  147.66   20.29
 -12  -6   8  133.91   21.21
  12   6  -8  140.96   23.34
 -11  -6   8    6.35    7.30
  11   6  -8    4.47    3.72
  11  -6  -8    4.93    4.20
 -11   6   8    5.00    5.15
  10  -6  -8  190.59   19.87
 -10  -6   8  190.59   24.20
  10   6  -8  247.69   28.37
 -10   6   8  204.31   23.05
 -10  -6   8  189.72   13.51
  -9  -6   8   11.64    2.94
  -9   6   8   17.22    6.62
  -9  -6   8   22.40    8.18
   9  -6  -8   17.47    6.28
   9   6  -8   13.01    6.06
  -8  -6   8  235.89   13.12
  -8  -6   8  214.61   23.01
   8  -6  -8  197.65   20.20
   8   6  -8  220.34   25.44
  -8   6   8  225.71   24.17
  -7  -6   8   43.96    5.22
  -7  -6   8   44.32   10.34
   7  -6  -8   36.92    8.76
   7   6  -8   31.81    9.43
  -6  -6   8  224.07   10.40
   6  -6  -8  219.29   21.05
   6   6  -8  203.84   23.04
  -6  -6   8  249.04   22.82
  -5  -6   8   32.11    3.34
  -5  -6   8   28.96    4.19
   5   6  -8   49.83   10.80
   5  -6  -8   50.91   10.45
   4   6  -8  168.05   19.02
   4  -6  -8  155.33   17.63
   3   6  -8   18.97    6.54
   3  -6  -8   22.12    7.34
   2   6  -8  103.22   13.86
   2  -6  -8  142.76   17.09
   1  -6  -8    3.17    5.34
   1   6  -8    7.70    4.26
   0   6  -8  180.97   16.23
   0  -6  -8  191.52   20.36
  -1  -6  -8   -2.17    4.77
  -1   6  -8    2.36    2.49
  -2   6  -8  202.59   15.53
  -2  -6  -8  225.77   22.61
  -3   6  -8    2.90    2.94
  -3  -6  -8    6.33    4.87
   4   6   8  113.44   20.17
  -4   6  -8  121.23   11.47
  -4  -6  -8  109.99   16.74
   5   6   8   -2.21    3.06
  -5   6  -8    0.59    0.68
   5   6   8    1.03    5.40
  -5   6  -8    0.48    1.06
  -5  -6  -8   -4.96    4.85
  -6   6  -8   86.76    6.59
   6   6   8   91.52   16.48
   6   6   8   82.86   17.69
  -6  -6  -8  111.70   17.44
  -7  -6  -8    1.96    4.25
  -7   6  -8    0.93    1.14
   7   6   8   -6.02    3.85
  -8   6  -8   76.19    7.63
  -8  -6  -8   66.14   14.29
   8   6   8   68.84   14.94
  -9   6  -8    0.40    1.27
  -9  -6  -8    1.78    4.48
   9   6   8    2.27    4.50
 -10   6  -8   67.03    8.33
  10   6   8   60.29   15.68
 -10  -6  -8   61.08   15.01
 -11   6  -8   -0.80    2.49
  11   6   8    4.27    3.69
 -11  -6  -8   -1.80    5.60
 -11   6  -8    3.83    2.61
 -12   6  -8   82.50   10.28
  12   6   8   60.69   16.36
 -12  -6  -8   60.82   15.43
 -12   6  -8   61.61   11.26
  13   6   8   -5.44    7.83
 -13   6  -8    0.51    3.30
 -13  -6  -8    3.87    6.27
 -13   6  -8   -0.71    3.05
 -14  -6  -8   69.17   16.91
  14   6   8   87.51   20.14
 -14   6  -8   95.50   14.77
 -14   6  -8   93.37   12.10
 -15  -6  -8    1.66    4.75
  15   6   8   -2.02    6.72
 -15   6  -8   -1.19    4.24
 -15   6  -8    2.30    3.04
 -16  -6  -8  194.44   30.35
 -16   6  -8  189.24   22.81
  16   6   8  199.77   32.06
 -16   6  -8  249.70   21.13
 -17  -6  -8    5.83    7.18
 -17   6  -8    7.13    6.52
 -17   6  -8   15.06    5.96
 -18  -6  -8   97.57   23.00
 -18   6  -8   76.25   16.04
 -18   6  -8   84.45   13.41
 -19   6  -8   -3.18    4.31
 -19  -6  -8   -0.90    9.47
 -19   6  -8    0.58    3.96
 -20   6  -8   55.75   14.67
 -20  -6  -8   68.85   20.15
 -21   6  -8    5.74    6.71
 -21  -6  -8  -14.42    9.27
 -22  -6  -8   34.13   14.97
 -22   6  -8   25.60   11.24
 -23  -6  -8    7.98    5.99
 -23   6  -8    4.44    5.66
 -24  -6  -8   29.18   13.55
 -24   6  -8   35.98   14.44
 -27  -7   8   36.69   17.19
 -26  -7   8   36.70   17.80
 -26   7   8   26.27   16.27
 -25  -7   8   45.03   17.35
 -25   7   8   41.62   21.64
 -24  -7   8   32.94   15.85
 -23  -7   8   44.95   17.83
 -22  -7   8   33.53   15.66
 -21  -7   8   31.38   14.57
 -20  -7   8   14.25    7.20
 -19  -7   8   64.38   18.76
 -18  -7   8   38.20   14.91
  18  -7  -8   42.35   11.38
  17  -7  -8   96.26   15.77
 -17  -7   8   82.74   19.91
  16  -7  -8   64.96   13.35
 -16  -7   8   48.91   15.84
  15  -7  -8   40.03   10.92
 -15  -7   8   14.71   11.20
  15   7  -8   36.31   13.94
  14  -7  -8   11.74    6.16
 -14  -7   8    5.50    6.94
  14   7  -8   18.28   11.13
 -13  -7   8   98.78   19.02
  13   7  -8   85.96   19.98
  13  -7  -8   92.33   14.99
 -12   7   8   41.23   11.69
 -12  -7   8   34.30   11.35
  12  -7  -8   29.85    8.45
  12   7  -8   43.05   14.11
  11  -7  -8  142.89   18.02
 -11   7   8  130.20   19.14
 -11  -7   8  112.50   19.42
  11   7  -8  123.96   22.33
 -10   7   8   51.55   12.15
 -10  -7   8   44.45   12.06
  10  -7  -8   55.09   11.31
  10   7  -8   60.87   15.32
  -9   7   8   91.02   16.39
  -9  -7   8  106.74   17.64
   9  -7  -8   96.80   14.83
   9   7  -8   83.28   17.55
  -8  -7   8   71.16   14.29
   8  -7  -8   60.16   12.06
   8   7  -8   70.28   15.05
  -8   7   8   80.58   14.98
  -7  -7   8  179.37   10.20
   7  -7  -8  178.87   20.01
   7   7  -8  139.92   21.11
  -7   7   8  158.07   21.56
  -7  -7   8  152.22   12.76
   6  -7  -8  109.51   15.92
  -6  -7   8  114.19    7.20
  -6   7   8  103.69   16.60
  -6  -7   8  104.99    9.06
   6   7  -8  105.83   18.00
  -5  -7   8   76.78    5.66
  -5  -7   8   71.97    4.44
   5   7  -8   98.45   16.94
  -5   7   8   88.78   15.90
   5  -7  -8   92.08   14.46
   4   7  -8   71.19   13.21
  -4   7   8   96.05   16.69
   4  -7  -8   81.73   13.52
   3   7  -8   78.93   13.97
   3  -7  -8   86.72   13.94
  -3   7   8  100.73   17.18
  -2   7   8   48.16   11.41
   2   7  -8   46.46   10.23
   2  -7  -8   62.62   11.80
  -1   7   8  118.64   18.92
   1  -7  -8  135.24   17.76
   1   7  -8   99.09   14.05
   0  -7  -8   18.08    6.95
   0   7  -8    5.28    3.66
   0   7   8   23.13    8.66
  -1   7  -8  108.11   13.69
  -1  -7  -8  121.24   17.69
   1   7   8  119.45   19.81
   2   7   8   21.07    8.09
  -2   7  -8   19.37    5.94
  -2  -7  -8   12.47    6.08
  -3   7  -8  110.08   12.94
   3   7   8  104.88   19.87
  -3  -7  -8  130.39   18.47
  -4   7  -8   28.84    6.97
   4   7   8   31.05   11.23
  -4  -7  -8   52.72   12.40
   5   7   8   37.50   13.18
   5   7   8   44.04   12.33
  -5   7  -8   29.29    3.07
  -5  -7  -8   34.31   10.43
   6   7   8   14.48    7.56
   6   7   8   14.25    7.17
  -6   7  -8   15.28    2.84
  -6  -7  -8   19.05    7.86
   7   7   8   29.85   10.47
  -7   7  -8   26.71    4.16
  -7  -7  -8   23.43    9.83
  -8  -7  -8    7.04    7.20
   8   7   8   37.61   13.24
  -8   7  -8   21.92    4.41
  -9  -7  -8   26.32   10.33
  -9   7  -8   36.18    5.72
   9   7   8   30.75   11.87
 -10   7  -8    7.82    3.25
 -10  -7  -8   12.27    9.64
  10   7   8   14.66    8.95
 -11  -7  -8   16.53    8.78
 -11   7  -8   25.14    5.77
  11   7   8   32.30   12.49
 -12   7  -8   15.44    4.89
 -12  -7  -8    4.25    5.45
  12   7   8    1.11    5.83
 -13   7  -8   50.98    8.43
  13   7   8   60.30   17.29
 -13  -7  -8   55.60   16.01
 -13   7  -8   30.87    9.01
 -14   7  -8   13.89    5.61
  14   7   8    2.09    8.29
 -14  -7  -8   -7.96    7.61
 -14   7  -8   -3.13    5.37
 -15   7  -8  154.62   15.87
 -15   7  -8  140.15   19.62
 -15  -7  -8  161.58   27.64
 -16  -7  -8   17.85   10.22
 -16   7  -8   28.10    7.24
 -16   7  -8   14.63    7.81
 -17  -7  -8   45.63   16.67
 -17   7  -8   55.63   11.00
 -17   7  -8   48.49   12.92
 -18   7  -8   28.92    8.20
 -18   7  -8   12.25    5.49
 -19   7  -8   40.26   10.07
 -19  -7  -8   33.01   15.14
 -19   7  -8   35.25   11.52
 -20  -7  -8   22.47   13.05
 -20   7  -8    1.75    6.10
 -21  -7  -8   16.12   11.15
 -21   7  -8   24.16   10.16
 -22  -7  -8    7.31    7.22
 -22   7  -8    1.52    5.21
 -23  -7  -8   20.86    9.52
 -23   7  -8   17.39   10.44
 -26  -8   8   -3.26    8.48
 -25  -8   8   17.41   12.54
 -24  -8   8   19.10   10.83
 -23  -8   8   28.13   14.27
 -22  -8   8   30.13   13.21
 -21  -8   8   87.78   22.27
 -20  -8   8   -0.61    6.30
 -19  -8   8   74.02   19.85
  19  -8  -8   78.53   15.48
  18  -8  -8   17.63    7.29
 -18  -8   8   23.21   11.67
  17  -8  -8   75.44   14.95
 -17  -8   8   88.35   21.09
  16  -8  -8   16.51    6.80
 -16  -8   8    7.40    5.09
  15  -8  -8   96.91   16.42
 -15  -8   8   74.28   18.73
 -14  -8   8    5.54    5.32
  14  -8  -8    7.49    5.16
  14   8  -8    3.21    7.35
  13  -8  -8    7.93    3.38
 -13  -8   8   -2.40    5.22
  13   8  -8   -4.90    7.52
  12  -8  -8   20.87    7.76
  12   8  -8   18.95    8.98
 -12  -8   8   12.88    9.43
  11  -8  -8   38.76   10.14
  11   8  -8   62.78   17.55
 -11  -8   8   47.66   13.29
 -10  -8   8   23.09    9.36
  10  -8  -8   18.28    6.73
  10   8  -8   20.49   10.49
  -9  -8   8   81.87   11.56
  -9   8   8  106.36   18.46
   9  -8  -8   71.88   12.98
   9   8  -8   93.36   19.49
  -8  -8   8   13.67    4.81
  -8   8   8   41.59   12.34
   8  -8  -8   19.88    8.07
   8   8  -8   17.56    9.65
  -7  -8   8   99.27   10.11
  -7   8   8  116.44   18.75
   7  -8  -8   92.33   14.69
   7   8  -8  102.62   19.15
   6   8  -8   27.89    9.24
  -6   8   8   16.79    7.52
   6  -8  -8    9.48    6.90
  -6  -8   8   17.33    3.72
  -6  -8   8   16.15    2.87
  -5  -8   8   94.32    4.87
  -5  -8   8   92.48    5.64
   5   8  -8   93.87   16.85
   5  -8  -8  105.13   15.88
  -5   8   8  117.65   19.08
   4  -8  -8   34.66    9.63
   4   8  -8   32.29   10.70
  -4   8   8   10.84    6.94
  -3   8   8   97.63   17.81
   3   8  -8   83.40   15.35
   3  -8  -8   98.32   15.54
   2   8  -8   18.88    7.00
  -2   8   8   29.72   10.63
   2  -8  -8   18.84    7.82
   1  -8  -8   65.21   13.54
   1   8  -8   64.83   12.73
  -1   8   8   59.51   13.99
   0  -8  -8   50.45   12.56
   0   8  -8   26.90    8.48
   0   8   8   19.42    9.31
  -1   8  -8   29.21    7.93
  -1  -8  -8   36.56   10.40
   1   8   8   24.02   10.33
   2   8   8   23.11    8.74
  -2   8  -8   20.59    6.98
  -2  -8  -8   29.96    9.44
  -3  -8  -8   40.79   10.72
   3   8   8   50.92   15.00
  -3   8  -8   50.16   10.80
  -4   8  -8   15.52    7.45
   4   8   8    6.50    4.87
  -4  -8  -8   15.16    7.95
   5   8   8   58.18   17.25
   5   8   8   46.14   13.23
  -5  -8  -8   56.49   13.87
   6   8   8   11.22    8.41
  -6   8  -8    7.16    2.13
  -6  -8  -8   -0.62    3.97
   6   8   8    6.11    4.33
   7   8   8   42.60   13.17
  -7   8  -8   48.77    5.87
  -7  -8  -8   47.64   13.08
   8   8   8   10.45    7.16
  -8   8  -8    7.61    2.97
  -8  -8  -8    6.74    5.48
  -9  -8  -8   25.28    9.70
   9   8   8   32.92   12.85
  -9   8  -8   28.50    5.18
 -10  -8  -8    0.17    5.07
  10   8   8   10.64    8.33
 -10   8  -8   -2.77    2.87
 -11  -8  -8   42.10   13.80
  11   8   8   22.54   11.27
 -11   8  -8   39.29    6.84
 -12   8  -8    3.88    3.33
 -12  -8  -8    7.10    8.76
 -13  -8  -8   27.36   12.01
 -13   8  -8   20.80    5.72
 -14   8  -8   65.12   10.28
 -14  -8  -8   70.39   19.25
 -15   8  -8   19.99    6.01
 -15   8  -8   18.60    7.93
 -16   8  -8   17.56    5.59
 -16  -8  -8   15.47   10.48
 -16   8  -8    4.42    4.63
 -17   8  -8   23.83    7.16
 -17  -8  -8   46.70   17.41
 -17   8  -8   27.95    9.78
 -18   8  -8   24.16    7.03
 -18   8  -8    5.80    4.23
 -18  -8  -8   21.37   11.32
 -19  -8  -8   26.33   14.74
 -19   8  -8   15.28    7.50
 -20  -8  -8    2.59    6.55
 -20   8  -8    4.23    6.66
 -21  -8  -8   -1.36    6.26
 -21   8  -8   -2.14    6.02
 -22  -8  -8   10.60    6.10
 -22   8  -8   11.05    8.37
 -25  -9   8    6.38   10.99
 -24  -9   8   43.56   18.12
 -23  -9   8    0.69    6.34
 -22  -9   8   41.42   15.38
 -21  -9   8   -9.14   10.56
 -20  -9   8   86.75   21.87
 -19  -9   8   -3.03    8.47
  19  -9  -8   -4.42    4.14
  18  -9  -8   73.47   15.22
 -18  -9   8   56.51   17.93
  17  -9  -8    0.40    5.12
 -17  -9   8   15.90    9.46
  16  -9  -8   82.03   15.55
 -16  -9   8   88.79   20.57
  15  -9  -8   15.82    6.69
 -15  -9   8   -1.11    8.91
  14  -9  -8  120.87   18.30
 -14  -9   8   93.01   20.94
 -13  -9   8   -3.45    5.22
  13  -9  -8    0.17    3.71
  13   9  -8   -4.71    6.36
 -12  -9   8   13.55    5.50
  12  -9  -8    7.02    5.44
 -12  -9   8    7.87    6.76
  12   9  -8    1.07    5.34
 -11  -9   8    4.99    3.35
  11  -9  -8   -3.02    3.11
  11   9  -8    6.36    6.65
 -10  -9   8   44.77    8.70
  10  -9  -8   68.79   13.62
  10   9  -8   40.19   14.21
   9  -9  -8   -4.29    5.05
   9   9  -8    3.53    5.88
  -9  -9   8    5.97    3.48
  -8  -9   8   77.75    9.87
   8  -9  -8   71.70   13.66
   8   9  -8   75.68   18.00
   7  -9  -8    4.66    4.96
   7   9  -8   13.24    9.34
  -7  -9   8   -1.06    1.62
   6  -9  -8   51.08   12.11
  -6  -9   8   62.79    6.49
   6   9  -8   63.09   15.09
   5   9  -8   -2.92    6.12
   5  -9  -8    9.87    6.27
  -5  -9   8    1.96    1.11
  -5  -9   8    1.77    0.75
   4   9  -8   43.25   11.28
   4  -9  -8   76.11   14.22
  -4   9   8   73.30   16.21
  -3   9   8    1.68    6.97
   3   9  -8   -1.20    3.95
   3  -9  -8    0.44    4.20
  -2   9   8   40.51   13.48
   2   9  -8   57.74   13.74
   1  -9  -8    7.51    4.80
   1   9  -8    8.59    6.27
  -1   9   8   12.70    7.53
   0  -9  -8   38.34   11.00
   0   9  -8   36.12    9.87
   0   9   8   33.78   12.11
  -1  -9  -8    1.92    3.53
  -1   9  -8    8.34    6.08
  -2   9  -8   39.09   10.01
  -2  -9  -8   45.27   11.87
  -3  -9  -8    1.62    3.77
  -3   9  -8   -0.96    4.44
  -4   9  -8   40.51   11.12
  -4  -9  -8   42.06   12.15
   5   9   8   -1.64    5.35
  -5  -9  -8    9.09    7.48
  -6   9  -8   78.82    6.82
   6   9   8   96.90   20.42
  -6  -9  -8   83.08   17.13
   7   9   8   10.28   12.47
  -7   9  -8    4.81    2.05
  -7  -9  -8    4.89    4.48
  -8   9  -8   45.64    6.49
  -8  -9  -8   47.85   13.91
  -9   9  -8    3.79    2.38
  -9  -9  -8   -1.85    7.05
 -10  -9  -8   65.18   16.88
 -10   9  -8   49.14    7.41
 -11  -9  -8   -0.47    5.82
 -11   9  -8   -3.89    2.91
 -12  -9  -8   33.52   13.74
 -12   9  -8   25.54    5.84
 -13  -9  -8   13.06   11.75
 -13   9  -8    5.04    2.74
 -14  -9  -8   34.41   13.51
 -14   9  -8   26.72    6.67
 -15   9  -8   -3.00    3.36
 -15  -9  -8    4.15    8.77
 -16   9  -8   24.82    6.88
 -16  -9  -8   35.67   12.85
 -16   9  -8   28.12   10.51
 -17  -9  -8   -8.74    9.12
 -17   9  -8    5.54    5.63
 -18  -9  -8   -0.15    5.74
 -18   9  -8   29.22   12.99
 -19  -9  -8   -9.19    9.08
 -19   9  -8  -11.14    9.90
 -20  -9  -8    9.71    8.86
 -20   9  -8    0.45    5.34
 -21  -9  -8    4.33    6.44
 -24 -10   8    0.31    5.84
 -23 -10   8   30.21   14.29
 -22 -10   8   -0.82    7.89
 -21 -10   8   30.23   13.88
 -20 -10   8    5.31    8.45
  20 -10  -8   -9.84    7.02
  19 -10  -8   53.50   13.47
 -19 -10   8   60.89   19.28
  18 -10  -8    9.43    6.31
 -18 -10   8   13.03    8.74
  17 -10  -8   47.73   12.82
 -17 -10   8   59.79   17.81
 -16 -10   8    6.52    4.96
  16 -10  -8    3.22    4.95
 -16 -10   8    5.63    5.93
 -15 -10   8   77.03   15.51
  15 -10  -8   79.09   15.72
 -15 -10   8   60.05   18.60
  14 -10  -8   -1.62    4.04
 -14 -10   8    4.26    3.49
  13 -10  -8   71.84   14.64
 -13 -10   8   74.60   13.74
 -12 -10   8   -4.10    4.49
  12 -10  -8   16.35    7.81
  11 -10  -8   28.98    9.24
  11  10  -8   23.46   11.51
 -11 -10   8   38.33    9.54
  10 -10  -8    1.39    3.47
  10  10  -8   -5.08    6.73
  -9 -10   8   39.99    7.88
   9 -10  -8   49.60   11.88
   9  10  -8   24.79   12.04
   8 -10  -8   -0.61    5.29
   8  10  -8   10.04    8.84
  -8 -10   8    2.37    2.29
  -7 -10   8   45.32    6.63
   7  10  -8   48.51   14.46
   7 -10  -8   41.08   11.11
  -6 -10   8    9.46    2.86
   6  10  -8   14.43    7.55
   6 -10  -8   16.24    7.84
   5  10  -8   50.15   13.88
   5 -10  -8   46.58   11.51
  -5 -10   8   40.64    4.43
   4  10  -8   11.99    5.82
   4 -10  -8    9.93    6.06
   3  10  -8   16.91    8.48
   3 -10  -8   35.85   10.34
   2  10  -8   -8.50    6.84
   2 -10  -8    5.12    5.46
   1  10  -8   34.59   10.61
   1 -10  -8   36.13   10.63
   0 -10  -8   10.37    6.36
   0  10  -8    3.52    4.32
  -1 -10  -8   32.95    9.92
  -1  10  -8   24.36    9.48
  -2 -10  -8   13.57    7.64
  -2  10  -8    2.02    3.62
  -3 -10  -8    6.96    5.40
  -3  10  -8   25.36    8.03
  -4  10  -8    1.23    5.96
  -4 -10  -8   10.35    7.56
  -5 -10  -8   29.40   10.91
  -6 -10  -8    8.61    7.65
  -6  10  -8    8.01    2.30
  -7  10  -8   61.28    7.46
  -7 -10  -8   54.46   14.92
  -8  10  -8   21.96    4.88
  -8 -10  -8   43.18   13.66
  -9  10  -8   40.59    6.94
  -9 -10  -8   38.13   13.14
 -10 -10  -8   11.81    7.69
 -10  10  -8    8.28    3.96
 -11  10  -8   13.00    4.53
 -11 -10  -8   -2.30    5.73
 -12 -10  -8   -9.35    8.81
 -12  10  -8    5.17    3.61
 -13 -10  -8    6.14    5.54
 -13  10  -8   18.30    5.79
 -14 -10  -8    7.34    5.97
 -15 -10  -8   34.28   15.41
 -16 -10  -8   12.28   12.08
 -17 -10  -8    0.99    6.83
 -18 -10  -8   14.63    7.13
 -18  10  -8    0.12    6.67
 -19 -10  -8   39.23   15.69
 -19  10  -8   28.25   11.59
 -22 -11   8   18.59    9.76
 -22 -11   8   -4.65   11.64
 -21 -11   8   -6.52    7.06
 -21 -11   8    6.17   10.30
 -20 -11   8    1.56    5.38
  20 -11  -8   13.83    6.51
  19 -11  -8    6.41    4.84
 -19 -11   8    7.34    8.68
 -19 -11   8    5.87    6.55
  18 -11  -8   12.50    5.62
 -18 -11   8   22.62   10.25
 -17 -11   8   13.29    6.94
  17 -11  -8   25.32    9.75
  16 -11  -8   24.16    9.49
 -16 -11   8   25.29    9.60
  15 -11  -8   -0.38    5.00
 -15 -11   8    9.55    6.92
 -14 -11   8   27.09    9.33
  14 -11  -8   34.21   11.30
  13 -11  -8    6.95    5.93
 -13 -11   8    3.04    5.35
  12 -11  -8   35.82   10.38
 -12 -11   8   35.90    9.89
 -11 -11   8    8.79    5.27
  11 -11  -8   20.08    8.28
  10 -11  -8    9.65    6.00
 -10 -11   8   10.72    5.43
   9 -11  -8   21.99    8.46
   9  11  -8   19.34   13.04
  -9 -11   8   11.11    4.66
  -8 -11   8   32.93    6.52
   8 -11  -8   21.63    8.76
   8  11  -8   20.37   12.10
  -7 -11   8   13.83    4.02
   7  11  -8   13.11    8.44
   7 -11  -8   10.32    6.12
   6  11  -8   24.77   12.21
   6 -11  -8   34.16   10.61
  -6 -11   8   32.35    5.30
   5  11  -8   16.78    7.91
  -5 -11   8   18.38    3.23
   5 -11  -8   25.83    9.01
  -4 -11   8   13.84    2.09
   4  11  -8   22.43    8.87
   4 -11  -8   23.75    8.87
   3  11  -8   10.45    6.96
   3 -11  -8   15.84    6.94
   2  11  -8   19.79    8.80
   2 -11  -8   38.75   12.06
   1  11  -8   21.44    9.10
   1 -11  -8   10.78    6.92
   0 -11  -8   26.98   10.57
   0  11  -8   43.06   13.49
  -1 -11  -8   19.20    9.13
  -1  11  -8   10.57    5.86
  -2 -11  -8   20.28    8.86
  -2  11  -8   25.68    8.87
  -3 -11  -8    5.29    6.62
  -3  11  -8    9.17    5.90
  -4  11  -8   25.48   10.09
  -4 -11  -8   40.54   13.41
  -5 -11  -8   16.56    8.95
  -6 -11  -8   18.47    9.82
  -6  11  -8   10.90    2.96
  -7 -11  -8   19.13    9.65
  -7  11  -8   18.95    4.83
  -8 -11  -8   33.48   12.87
  -8  11  -8   37.45    7.15
  -9  11  -8   11.23    3.92
  -9 -11  -8    9.61    9.09
 -10 -11  -8    2.80    4.49
 -11 -11  -8    5.63    7.98
 -12 -11  -8    3.28    5.45
 -13 -11  -8   32.40   12.98
 -14 -11  -8   13.84    8.50
 -15 -11  -8   22.78   11.92
 -16 -11  -8   13.56    9.66
 -17 -11  -8   -9.76    8.95
 -23 -12   8   -1.35    4.81
 -22 -12   8    1.12    5.14
 -21 -12   8   16.04   10.94
 -20 -12   8   -8.95    7.29
  20 -12  -8  -11.11    9.14
  19 -12  -8    7.42    4.27
 -19 -12   8   25.53   11.02
  18 -12  -8    5.30    7.06
 -18 -12   8    1.39    5.22
  17 -12  -8    3.46    4.21
 -17 -12   8   14.03    7.91
  16 -12  -8   18.51    7.80
 -16 -12   8    2.80    5.05
  15 -12  -8   -0.51    4.80
 -15 -12   8    4.38    5.39
  14 -12  -8    2.98    3.88
 -14 -12   8    6.23    5.00
 -13 -12   8    8.76    5.15
  13 -12  -8   10.60    6.57
 -12 -12   8   11.69    5.45
  12 -12  -8    1.81    4.52
  11 -12  -8   12.04    6.82
 -11 -12   8    6.73    3.85
  10 -12  -8    8.40    5.56
 -10 -12   8   73.90   10.82
  -9 -12   8    8.29    5.09
   9 -12  -8   -1.40    5.35
  -8 -12   8   20.06    5.71
   8 -12  -8   27.47    9.90
   7 -12  -8    5.18    5.72
  -7 -12   8    6.57    3.39
   6  12  -8   10.51    5.39
   6 -12  -8   21.15    8.92
  -6 -12   8   10.82    3.34
  -5 -12   8    5.46    2.14
   5  12  -8    3.86    4.92
   5 -12  -8   -2.11    4.89
  -4 -12   8    3.43    1.30
   4  12  -8    5.29    8.23
   4 -12  -8   16.39    6.88
   3  12  -8    9.27    8.24
   3 -12  -8    2.85    4.14
   2  12  -8   18.00   10.30
   2 -12  -8    5.38    4.62
   1  12  -8   27.74   10.63
   1 -12  -8   16.40    7.35
   0  12  -8    0.02    4.32
   0 -12  -8   12.77    6.92
  -1 -12  -8    4.90    5.58
  -1  12  -8    1.25    5.83
  -2 -12  -8    5.92    7.18
  -2  12  -8   26.53   11.34
  -3 -12  -8    8.23    5.46
  -3  12  -8    6.39    7.60
  -4 -12  -8    9.08    4.94
  -4  12  -8   26.32   11.99
  -5  12  -8    7.90    9.67
  -5 -12  -8    1.41    3.95
  -6 -12  -8    9.24    8.36
  -7 -12  -8    4.21    5.36
  -8 -12  -8   15.56    8.43
  -9 -12  -8   21.23   10.57
 -10 -12  -8    4.01    7.07
 -11 -12  -8   14.19    9.45
 -12 -12  -8    1.61    7.31
 -13 -12  -8  -17.57   10.07
 -14 -12  -8    7.88    9.65
 -15 -12  -8   -0.71    5.12
 -16 -12  -8   19.20   11.57
  17 -13  -8   -0.15    4.90
  16 -13  -8   12.73    5.97
  15 -13  -8    6.60    4.66
  14 -13  -8   -0.56    3.69
  13 -13  -8   -4.93    5.21
  12 -13  -8   14.55    7.78
  11 -13  -8    7.86    7.33
  10 -13  -8    1.23    6.82
   9 -13  -8   13.18    8.23
   8 -13  -8    3.84    7.14
   7 -13  -8    3.96    6.65
   6 -13  -8   16.34    8.67
   5 -13  -8    0.26    4.45
   4 -13  -8   -1.46    6.40
   3 -13  -8   -0.78    6.94
   2 -13  -8   12.10    7.73
   1  13  -8    3.78    5.79
   1 -13  -8    5.39    5.45
   0  13  -8   -0.15    7.62
   0 -13  -8   -0.70    3.73
  -1  13  -8   10.42    9.13
  -1 -13  -8   -5.43    7.54
  -2 -13  -8    5.22    6.30
  -2  13  -8    5.57    7.19
  -3 -13  -8   -1.62    4.38
  -3  13  -8   -2.02    6.36
  -4 -13  -8    2.06    5.07
  -4  13  -8   -0.64    5.58
  -5 -13  -8   12.84    8.24
  -6 -13  -8    8.32    7.54
  -7 -13  -8   -9.84    7.37
  -8 -13  -8  -14.88    8.80
  -9 -13  -8    0.28    4.72
 -10 -13  -8   -3.76    5.00
 -11 -13  -8   -4.12    6.22
 -12 -13  -8  -10.51    8.26
 -13 -13  -8   -0.09    9.63
  15 -14  -8  -12.78    7.61
  14 -14  -8   -8.90    6.73
  13 -14  -8   -2.22    5.11
  12 -14  -8    1.69    5.03
  11 -14  -8   -3.22    6.68
  10 -14  -8   25.10   10.86
   9 -14  -8   -2.75    6.43
   8 -14  -8    7.74    7.88
   7 -14  -8   -4.44    6.89
   6 -14  -8   -3.73    4.60
   5 -14  -8   -3.23    4.39
   4 -14  -8   -0.28    5.32
   3 -14  -8    1.00    4.42
   2 -14  -8    1.01    5.43
   1 -14  -8    8.91    7.46
   0 -14  -8   10.22    7.49
  -1 -14  -8    4.16    6.54
  -2 -14  -8   13.44    7.86
  -3 -14  -8    1.89    6.64
  -4 -14  -8    3.95    6.34
  -5 -14  -8    3.45    6.59
  -6 -14  -8    6.68    7.08
  -7 -14  -8   -5.38    5.04
  -8 -14  -8   -0.26    4.17
  -9 -14  -8   12.17    8.45
 -10 -14  -8   -9.46    7.53
  11 -15  -8    2.61    3.61
  10 -15  -8    2.29    3.93
   9 -15  -8    5.00    5.96
   8 -15  -8   -1.08    5.62
   7 -15  -8    5.78    7.46
   6 -15  -8    6.10    6.78
   5 -15  -8   -0.70    6.09
   4 -15  -8    0.89    3.90
   3 -15  -8   -2.61    5.05
   2 -15  -8  -21.39    9.84
   1 -15  -8    5.20    4.24
   0 -15  -8   10.63    7.45
  -1 -15  -8   -3.10    5.06
  -2 -15  -8    1.61    6.99
  -3 -15  -8  -11.34    7.89
  -4 -15  -8   15.66   10.53
  -5 -15  -8   10.66    8.16
  -6 -15  -8   -2.07    5.22
  -7 -15  -8   -3.58    5.59
 -29   0   9  -15.07   15.17
 -28   0   9   -9.60   12.05
 -27   0   9    1.74    9.40
 -26   0   9    7.51    7.57
 -25   0   9    6.92   12.72
 -24   0   9    8.83   10.84
 -23   0   9    0.47    6.89
 -22   0   9    8.15   10.92
 -21   0   9    0.07    8.22
 -20   0   9   -2.63    9.20
 -19   0   9    3.63    4.10
 -19   0   9   15.74   11.19
 -18   0   9    0.79    4.39
 -18   0   9    6.81    4.46
 -17   0   9   -1.34    3.35
 -17   0   9    9.44    8.52
 -16   0   9   -3.87    3.92
 -16   0   9    8.21    4.30
 -15   0   9   -0.77    2.56
 -15   0   9    2.82    4.91
 -14   0   9   -3.41    3.77
 -14   0   9    0.03    5.04
 -13   0   9    0.80    3.31
 -13   0   9   -5.80    7.26
 -12   0   9    2.60    4.84
 -11   0   9   -0.47    5.30
  10   0  -9    2.67    3.03
 -10   0   9    3.52    5.30
   9   0  -9    2.05    1.98
  -9   0   9    2.14    2.85
  -9   0   9   -1.07    3.28
   8   0  -9    0.97    2.04
  -8   0   9   -0.81    2.05
  -8   0   9   -5.91    5.65
   7   0  -9    0.01    2.25
  -7   0   9    0.11    2.42
  -7   0   9   -0.09    3.68
  -6   0   9    2.44    3.06
   6   0  -9   -0.01    2.02
  -6   0   9    5.62    3.83
   5   0  -9    0.64    2.13
  -5   0   9   -1.47    2.23
  -4   0   9    1.58    2.21
   4   0  -9   -1.80    1.91
   3   0  -9    3.98    3.27
  -3   0   9   -0.27    2.23
   2   0  -9    0.26    2.19
  -2   0   9   -0.64    2.37
  -1   0   9    0.49    3.05
   1   0  -9    1.65    1.89
   0   0  -9   -1.86    2.89
   0   0   9   -2.00    2.37
  -1   0  -9   -3.91    2.81
   1   0   9   -1.89    3.96
   2   0   9    0.61    1.63
  -2   0  -9   -0.05    2.10
   2   0   9   -0.52    2.77
   3   0   9   -0.04    1.43
  -3   0  -9    3.39    3.66
   4   0   9    1.22    1.76
  -4   0  -9    0.54    2.72
  -5   0  -9   -0.57    2.78
   5   0   9   -0.31    2.08
   6   0   9    1.19    1.67
  -6   0  -9    5.30    5.10
   7   0   9    1.68    2.40
  -7   0  -9   -4.71    4.13
  -8   0  -9   -4.05    3.36
   8   0   9    1.52    2.85
  -9   0  -9   -2.54    5.49
   9   0   9    0.38    2.01
 -10   0  -9   -4.13    5.75
  10   0   9    2.78    2.42
 -11   0  -9   -2.14    6.68
  11   0   9    0.76    2.40
 -12   0  -9    0.19    3.74
 -12   0  -9    3.59    5.21
  12   0   9    0.39    3.93
 -13   0  -9   -2.97    4.62
 -13   0  -9    6.10    7.78
  13   0   9    0.88    3.43
 -14   0  -9   -2.82    5.36
 -14   0  -9   -3.29    6.49
 -15   0  -9   -2.40    4.67
 -15   0  -9    1.74    3.42
 -16   0  -9   -1.87    4.97
 -17   0  -9    0.14    3.51
 -18   0  -9   -4.33    6.54
 -19   0  -9   -7.59    7.90
 -20   0  -9   -5.33    5.43
 -21   0  -9    5.42    5.42
 -22   0  -9   -5.11    6.87
 -23   0  -9   -0.63    5.56
 -24   0  -9    3.57    8.31
 -25   0  -9  -11.47   11.23
 -26   0  -9  -21.28   11.04
 -27   0  -9   -0.50    5.48
 -29  -1   9   -1.47   10.79
 -29   1   9   13.00   13.74
 -28  -1   9   25.99   17.91
 -28   1   9    3.78    8.32
 -27  -1   9  -37.04   17.11
 -27   1   9   20.49   10.31
 -26  -1   9   -8.26   10.66
 -26   1   9    0.40    6.35
 -25  -1   9    5.93    7.06
 -25   1   9    7.64    7.73
 -24  -1   9   -7.71    9.19
 -24   1   9   10.08   10.17
 -23  -1   9    0.66    7.34
 -23   1   9   16.06   10.84
 -22  -1   9   -1.20    7.79
 -22   1   9   -1.74    9.38
 -21  -1   9   -3.89   11.31
 -21   1   9   -9.33   11.68
 -20  -1   9   -7.01   12.64
 -20   1   9   12.80    9.06
 -19  -1   9   88.24   14.62
 -19  -1   9   73.15   19.43
 -19   1   9   57.13   16.00
 -18  -1   9    0.08    3.04
 -18   1   9    3.82    3.69
 -18  -1   9    8.30    8.76
 -18   1   9    9.12    9.88
 -17  -1   9   -4.15    4.04
 -17  -1   9    9.23    8.83
 -17   1   9    3.53    4.92
 -16  -1   9   -1.88    3.24
 -16   1   9   -2.08    3.09
 -16  -1   9    3.53    6.14
 -16   1   9   -5.78    8.63
 -15  -1   9    2.23    2.84
 -15   1   9    1.13    3.71
 -15  -1   9   -0.59    5.01
 -15   1   9   -5.27    8.85
 -14  -1   9    5.13    3.30
 -14   1   9   -0.93    2.13
 -14  -1   9   -0.41    5.41
 -14   1   9   -1.95    8.27
 -13   1   9    7.16    4.69
 -13  -1   9    2.86    5.82
 -13   1   9    2.14    5.12
  12  -1  -9    4.73    2.40
 -12   1   9    2.19    2.33
 -12  -1   9    3.78    5.53
 -12   1   9   -2.55    4.96
  11  -1  -9    4.71    3.60
 -11  -1   9    6.42    4.80
 -11   1   9   12.99    7.84
  10  -1  -9    7.56    4.51
 -10  -1   9    5.05    3.24
 -10  -1   9    1.23    5.49
   9  -1  -9   16.44    4.79
  -9  -1   9   16.37    5.01
  -9  -1   9    8.17    5.50
   8   1  -9   24.23    5.06
   8  -1  -9   28.92    6.82
  -8  -1   9   22.96    5.50
  -8  -1   9   12.43    6.22
   7   1  -9    2.89    2.60
   7  -1  -9   -1.56    1.82
  -7  -1   9    1.03    3.10
  -7  -1   9    0.01    1.62
  -7   1   9    6.25    4.02
   6   1  -9  368.15   18.71
   6  -1  -9  333.88   20.75
  -6  -1   9  373.36   21.01
  -6  -1   9  345.93   25.03
  -6   1   9  354.99   23.27
  -5  -1   9   11.16    3.78
  -5   1   9   15.47    5.08
   5   1  -9   16.87    4.24
   5  -1  -9   10.83    3.82
  -5  -1   9   14.61    4.70
  -4  -1   9    3.70    2.35
   4   1  -9    5.49    2.38
  -4   1   9    8.29    3.38
   4  -1  -9    4.03    3.10
  -4  -1   9    4.28    3.36
   3   1  -9   13.34    3.66
  -3  -1   9   18.15    4.94
  -3   1   9   11.60    4.42
   3  -1  -9    8.09    3.98
  -3  -1   9   17.76    4.53
   2   1  -9   -0.33    1.86
  -2  -1   9    2.49    2.56
   2  -1  -9    4.85    3.33
  -2   1   9    1.23    2.59
  -2  -1   9    1.86    3.03
  -1   1   9    2.58    2.70
  -1  -1   9    5.62    3.27
  -1  -1   9    0.38    1.49
   1   1  -9    1.37    2.43
   1  -1  -9   -3.58    3.68
   0  -1   9   56.89    8.91
   0  -1  -9   54.60    8.86
   0  -1   9   43.17    4.84
   0   1  -9   58.55    7.46
   0   1   9   51.77    9.68
   1  -1   9    6.31    4.04
   1   1   9    7.05    4.64
  -1   1  -9    7.62    3.29
  -1  -1  -9    5.76    2.78
  -2   1  -9    7.16    3.09
  -2  -1  -9    7.31    3.72
   2   1   9    7.44    4.11
   3   1   9    5.15    2.62
   3   1   9    9.26    4.96
  -3   1  -9    8.83    4.28
  -3  -1  -9    3.32    2.74
   4   1   9    6.04    3.17
  -4  -1  -9    7.89    3.59
  -4   1  -9    7.98    4.07
  -5  -1  -9   -3.10    4.33
  -5   1  -9    6.08    4.29
   5   1   9    3.63    3.06
  -6  -1  -9   30.11    8.52
   6   1   9   24.12    6.30
  -6   1  -9   26.66    7.15
   7   1   9   -3.33    4.64
  -7  -1  -9    5.93    4.89
  -7   1  -9    2.66    2.91
  -8   1  -9   23.64    7.29
   8   1   9   28.89    7.76
  -8  -1  -9   22.60    8.48
  -9  -1  -9    9.11    6.74
   9   1   9    8.07    4.73
  -9   1  -9    7.67    5.13
 -10   1  -9   37.02    9.35
 -10  -1  -9   56.88   13.81
 -10   1  -9   47.81    7.67
  10   1   9   47.28   10.30
 -11   1  -9    3.78    4.66
 -11  -1  -9    4.23    6.08
  11   1   9    0.53    2.98
 -11   1  -9    1.02    2.11
 -12   1  -9   20.19    8.77
 -12  -1  -9   20.55    9.48
 -12   1  -9    5.46    3.46
  12   1   9   17.05    7.45
 -13   1  -9    1.42    3.08
 -13  -1  -9   -1.00    6.47
 -13  -1  -9    1.48    3.66
  13   1   9    9.31    6.19
 -14  -1  -9   12.62    7.31
 -14   1  -9   -0.05    4.24
  14   1   9   -2.93    4.82
 -14  -1  -9   -5.42    6.36
 -15  -1  -9    1.32    3.23
 -15   1  -9    7.94    5.07
 -15  -1  -9   18.15   11.61
 -16  -1  -9   15.05   10.90
 -16  -1  -9   -0.23    4.48
 -16   1  -9   13.56    6.03
 -17  -1  -9    8.37    7.48
 -17   1  -9    2.98    5.31
  17   1   9    8.99    6.97
 -17  -1  -9    4.08    4.31
 -18  -1  -9    2.53    4.30
 -18   1  -9   -6.11    7.63
 -18  -1  -9    3.00    8.12
  18   1   9    2.38    5.48
 -19  -1  -9    0.46    4.01
 -19   1  -9    4.09    4.65
 -20  -1  -9    4.58    5.87
 -20   1  -9    5.67    7.10
 -21  -1  -9   23.77   10.62
 -21   1  -9    1.78    5.21
 -22  -1  -9   -7.07    6.68
 -22   1  -9   -0.87    6.42
 -23  -1  -9   -6.04    8.17
 -23   1  -9   -3.71    7.51
 -24  -1  -9   -3.98    8.28
 -24   1  -9    6.52    7.71
 -25  -1  -9   20.85    9.29
 -25   1  -9   15.69   11.58
 -26  -1  -9  -11.11    8.74
 -26   1  -9   -2.07    7.76
 -27  -1  -9   12.95    8.53
 -28  -1  -9   18.02    9.64
 -29  -2   9  -11.39   12.49
 -29   2   9    5.66    8.91
 -28  -2   9   -3.18    9.62
 -28   2   9   13.33   12.97
 -27  -2   9   -0.43    7.90
 -27   2   9   -2.22    8.47
 -26  -2   9   12.00    9.22
 -26   2   9   14.14   10.90
 -25  -2   9    5.77    7.96
 -25   2   9   12.73    8.63
 -24  -2   9   12.62   10.00
 -24   2   9   12.22   12.15
 -23  -2   9   -0.14    7.93
 -23   2   9   -3.20    7.97
 -22  -2   9   -8.74    5.67
 -22   2   9   -1.21    5.76
 -21  -2   9   -0.17    7.79
 -21   2   9    2.66    8.00
 -20  -2   9   31.33    8.86
 -20  -2   9   38.00   15.73
 -20   2   9   28.45   13.16
 -19  -2   9   17.27    6.26
 -19  -2   9   19.00   11.32
 -19   2   9   15.12   10.79
 -18   2   9   19.35    7.22
 -18  -2   9   32.26    8.50
 -18  -2   9   19.59    9.90
 -18   2   9   35.28   14.38
 -17  -2   9    3.51    2.06
 -17   2   9    4.22    5.27
 -17  -2   9    1.31    6.72
 -17   2   9   -9.72   10.24
 -16  -2   9    9.64    4.45
 -16   2   9    6.28    3.24
 -16  -2   9    7.85    6.61
 -16   2   9    3.12    7.13
 -15  -2   9    0.84    2.25
 -15   2   9    6.52    2.64
 -15  -2   9    1.41    4.98
 -15   2   9    5.83    7.21
 -14  -2   9    0.30    2.60
 -14   2   9    2.52    4.20
 -14  -2   9    4.88    6.06
  14  -2  -9    2.84    3.37
  13  -2  -9   -1.30    1.98
 -13   2   9   -1.36    2.26
 -13  -2   9    1.93    5.15
  12  -2  -9    1.29    2.38
 -12   2   9    5.48    4.60
 -12  -2   9   -0.48    5.56
  11  -2  -9    2.07    2.90
 -11  -2   9   -0.52    1.53
 -11  -2   9    1.70    5.41
 -11   2   9   -1.34    2.81
  10  -2  -9   12.24    4.86
 -10  -2   9   18.33    7.67
 -10  -2   9   12.27    4.27
 -10   2   9   26.00    7.35
   9  -2  -9    5.27    3.18
  -9  -2   9    2.13    2.10
  -9  -2   9    4.39    3.95
   8  -2  -9   16.61    5.01
  -8  -2   9   18.62    4.73
  -8  -2   9   22.57    7.95
   7  -2  -9   34.38    7.45
  -7  -2   9   44.06   10.64
  -7  -2   9   47.70    7.30
   6   2  -9    9.04    3.20
   6  -2  -9   11.89    4.39
  -6  -2   9    5.52    4.25
  -6  -2   9   21.46    4.31
   5   2  -9  150.67   10.66
   5  -2  -9  152.78   14.72
  -5  -2   9  140.96   15.21
  -5  -2   9  143.01   11.72
   4   2  -9   33.30    4.90
  -4  -2   9   27.50    5.17
  -4   2   9   21.01    5.93
  -4  -2   9   35.83    7.25
   4  -2  -9   17.76    4.85
   3   2  -9    2.40    1.85
  -3  -2   9    2.39    2.75
  -3  -2   9    1.01    1.71
  -3   2   9    2.85    3.02
   3  -2  -9    1.74    2.32
  -2  -2   9   11.94    3.09
   2   2  -9   16.48    3.50
  -2  -2   9   17.23    4.29
   2  -2  -9   12.11    4.55
  -2   2   9   16.52    6.10
   1  -2  -9   31.81    7.16
  -1   2   9   31.05    7.47
  -1  -2   9   31.16    4.07
   1   2  -9   35.50    5.18
  -1  -2   9   31.33    5.80
   0  -2  -9   12.74    5.31
   0   2   9   13.38    6.38
   0  -2   9   14.45    4.36
   0   2  -9   13.78    3.60
  -1   2  -9    1.70    1.51
  -1  -2  -9   -0.35    2.75
   1   2   9    5.98    5.47
  -2   2  -9   11.46    3.70
  -2  -2  -9   10.77    4.21
   2   2   9    7.50    4.47
   3   2   9   -0.15    2.18
  -3   2  -9   -0.46    1.98
  -3  -2  -9    4.35    3.83
  -4  -2  -9    3.33    3.94
   4   2   9    3.74    2.23
  -4   2  -9    3.37    3.02
  -5  -2  -9   46.96   10.20
  -5   2  -9   44.73    7.97
   5   2   9   43.47    8.50
  -6  -2  -9    0.04    3.22
   6   2   9    4.40    3.91
  -6   2  -9    3.20    2.17
  -7   2  -9    6.18    3.99
  -7  -2  -9   -2.85    4.65
   7   2   9    4.26    3.16
   8   2   9   21.14    6.57
  -8   2  -9   16.01    6.09
  -8  -2  -9   17.66    6.22
  -9   2  -9    6.40    2.49
  -9   2  -9    4.98    3.79
   9   2   9   12.15    5.75
  -9  -2  -9    4.40    5.66
 -10   2  -9   12.87    6.26
 -10  -2  -9   31.70   10.31
 -10   2  -9   10.58    3.57
  10   2   9   14.83    5.96
 -11   2  -9   42.76    7.73
 -11  -2  -9   32.69    9.87
 -11   2  -9   42.75   11.46
  11   2   9   40.12   10.95
 -12  -2  -9   10.78    5.65
  12   2   9    3.25    3.47
 -13   2  -9   -1.07    4.44
 -13  -2  -9   -1.46    5.05
 -14  -2  -9   20.10    9.76
 -14   2  -9    6.57    4.62
 -15  -2  -9    7.47    6.39
 -15   2  -9    3.70    4.52
 -15  -2  -9   -1.67    5.45
 -16   2  -9    0.28    3.40
  16   2   9   -2.72    4.13
 -16  -2  -9    9.56    6.30
 -16  -2  -9    6.57    7.58
 -17  -2  -9   11.80    8.92
 -17  -2  -9   14.55    8.58
 -17   2  -9    5.41    5.61
  17   2   9   16.58    8.05
 -18  -2  -9   16.52    8.94
 -18   2  -9    4.14    6.03
 -18  -2  -9   -2.95    5.92
  18   2   9    5.39    5.03
 -19  -2  -9    9.19    8.13
 -19   2  -9    7.48    6.91
 -19  -2  -9   20.32    9.93
  19   2   9   23.70   10.52
 -20  -2  -9    2.27    5.35
 -20   2  -9    6.92    6.02
 -20  -2  -9    3.04    8.96
  20   2   9    4.28    5.62
 -21  -2  -9    1.34    6.95
 -21  -2  -9    9.54    8.99
 -21   2  -9    5.55    6.06
 -22  -2  -9    3.84    6.02
 -22   2  -9  -13.27    8.84
 -22  -2  -9   13.84    9.10
 -23  -2  -9    7.00    8.79
 -23   2  -9   -2.89    7.35
 -23  -2  -9   -3.62    8.12
 -24  -2  -9    5.23    5.48
 -24   2  -9    9.13    7.23
 -24  -2  -9    7.85   10.12
 -25  -2  -9   15.79   14.52
 -25  -2  -9    3.69    8.09
 -25   2  -9    0.70    7.34
 -26  -2  -9  -11.02   12.99
 -26   2  -9   -8.95    9.12
 -26  -2  -9    0.24    7.41
 -27  -2  -9    4.51    6.02
 -28  -2  -9    7.94    8.80
 -29  -3   9    4.42   10.12
 -28  -3   9   25.26   15.97
 -28   3   9  -45.13   20.44
 -27  -3   9   -4.90    6.31
 -27   3   9   -3.49    9.57
 -26  -3   9   -2.85   10.61
 -26   3   9   10.33    8.75
 -25  -3   9    1.05    7.51
 -25   3   9   10.33    8.96
 -24  -3   9  -13.63   12.93
 -24   3   9   34.35   18.14
 -23  -3   9   15.76   15.69
 -23   3   9    2.01   10.27
 -22  -3   9    3.40    7.51
 -22   3   9   10.65    9.98
 -21  -3   9   23.72   13.50
 -21   3   9    9.72    9.94
 -20  -3   9    6.49    4.01
 -20  -3   9   10.56    8.34
 -20   3   9    6.32    8.02
 -19  -3   9   -0.42    4.84
 -19  -3   9   21.26   12.39
 -19   3   9    5.18    7.44
 -18  -3   9   30.80    8.18
 -18  -3   9   12.96   11.41
 -18   3   9   20.67   11.66
 -17  -3   9    7.62    5.89
 -17   3   9   14.54    5.92
 -17  -3   9    3.06    6.06
 -17   3   9    3.25    7.17
 -16  -3   9    4.25    3.95
 -16   3   9   -0.32    2.53
 -16  -3   9   -6.53    6.27
 -15  -3   9    6.22    7.59
 -15   3   9    1.40    3.77
 -15  -3   9    2.54    1.81
  15  -3  -9   -0.82    3.05
  14  -3  -9    3.34    2.84
 -14   3   9   -1.60    2.37
  13  -3  -9    2.83    3.22
 -13  -3   9   -1.35    5.04
 -13   3   9    2.57    4.50
  12  -3  -9    3.78    3.25
 -12  -3   9    3.14    1.95
 -12  -3   9    1.14    4.91
 -12   3   9    9.62    4.65
 -11  -3   9    6.89    3.29
  11  -3  -9    4.69    3.55
 -11  -3   9   -1.47    6.91
 -11   3   9   10.09    6.35
  10  -3  -9    5.88    2.65
 -10  -3   9    8.71    3.04
 -10  -3   9    9.79    6.65
 -10   3   9    7.63    4.95
  -9  -3   9    3.73    2.89
  -9  -3   9    0.15    5.25
   9  -3  -9    0.36    2.21
  -9   3   9    4.22    3.29
  -8   3   9   13.51    6.05
   8  -3  -9    5.55    3.21
  -8  -3   9   13.81    3.82
  -8  -3   9   13.60    6.00
   7  -3  -9    6.28    2.91
  -7  -3   9    3.46    3.61
  -7  -3   9    7.35    2.83
   6  -3  -9    5.33    3.56
  -6  -3   9   12.68    5.92
  -6  -3   9    4.65    2.22
  -5  -3   9    2.85    2.11
  -5  -3   9    0.05    2.96
   5  -3  -9    2.80    3.98
  -4  -3   9   47.38    6.00
  -4  -3   9   49.33    7.97
   4  -3  -9   54.16    9.28
   3   3  -9    7.50    2.21
  -3  -3   9   10.65    4.21
  -3  -3   9    7.45    2.56
   3  -3  -9   10.25    4.08
   2   3  -9   -0.48    1.08
  -2  -3   9    1.30    1.93
  -2  -3   9    1.04    1.58
   2  -3  -9    0.56    2.36
   1  -3  -9   17.13    6.29
   1   3  -9   23.71    3.45
  -1  -3   9   13.85    3.55
   0  -3  -9   -0.01    2.38
   0   3  -9    4.29    1.79
  -1  -3  -9   14.57    5.46
  -1   3  -9   13.19    2.92
  -2   3  -9    0.70    1.29
  -2  -3  -9   -4.66    4.95
  -3   3  -9    5.58    2.30
  -3  -3  -9    4.21    3.75
   4   3   9   10.03    5.13
  -4  -3  -9    6.58    5.40
  -4   3  -9    8.62    3.03
   5   3   9    9.24    4.60
  -5   3  -9   10.57    4.23
  -5  -3  -9    9.37    5.42
  -6  -3  -9   29.57    8.90
   6   3   9   40.54    9.40
  -6   3  -9   25.39    6.13
  -7   3  -9    3.98    4.01
   7   3   9    4.44    4.93
  -7  -3  -9    2.05    4.21
  -8   3  -9    5.70    1.84
   8   3   9    3.30    3.93
  -8  -3  -9   -3.64    4.66
  -8   3  -9    3.60    3.82
  -9   3  -9    3.82    1.59
   9   3   9    5.11    4.59
  -9  -3  -9    1.95    4.73
  -9   3  -9    9.69    6.03
 -10   3  -9   -1.12    2.45
  10   3   9    3.55    4.37
 -10  -3  -9   -1.36    7.12
 -11  -3  -9    4.37    6.11
 -11   3  -9    9.60    5.04
 -12  -3  -9   14.98    8.61
 -12   3  -9    7.81    4.21
 -13   3  -9   10.62    5.15
 -13  -3  -9   -4.40    6.67
 -14   3  -9   -1.17    3.28
 -14  -3  -9    1.63    6.42
  14   3   9    4.69    4.93
 -15   3  -9   -0.18    4.26
  15   3   9    5.61    3.65
 -15  -3  -9    1.50    5.58
 -16  -3  -9    3.81    6.43
 -16   3  -9   -7.98    5.95
  16   3   9    6.61    4.49
 -17  -3  -9    4.44    7.53
 -17   3  -9   -2.18    4.15
  17   3   9    3.96    5.60
 -18  -3  -9   17.44    8.40
 -18   3  -9   23.59    9.02
 -18  -3  -9   28.42   11.41
  18   3   9   19.12   10.61
 -19  -3  -9   -3.64    6.66
 -19   3  -9   -5.75    7.45
 -19  -3  -9    1.00    8.19
  19   3   9   -6.97    6.26
 -20  -3  -9  -10.01    9.66
 -20   3  -9   -3.28    6.85
  20   3   9   -6.85    8.17
 -20  -3  -9    2.34    5.08
 -21  -3  -9   -6.56    7.47
 -21  -3  -9   15.61    9.16
 -21   3  -9   -8.47    8.04
 -22  -3  -9   -6.25    6.23
 -22  -3  -9   -8.93    9.27
 -22   3  -9    7.90    4.58
 -23  -3  -9    6.04    6.58
 -23   3  -9    1.68    5.29
 -23  -3  -9   11.73    6.47
 -24  -3  -9    1.41    8.57
 -24   3  -9   12.23   10.72
 -24  -3  -9   -8.67   14.26
 -25  -3  -9   -5.80    9.27
 -25   3  -9  -35.81   13.32
 -25  -3  -9  -23.88   14.33
 -26  -3  -9  -18.22   12.98
 -26  -3  -9    7.58   10.08
 -27  -3  -9   17.49    8.47
 -28  -3  -9   49.89   17.46
 -28  -4   9   -5.57   12.77
 -28   4   9   17.71   16.66
 -27  -4   9   -4.30   11.53
 -27   4   9   20.08   15.57
 -26  -4   9   14.09   14.35
 -26   4   9   -8.16    8.89
 -25  -4   9   18.03   13.55
 -25   4   9   -2.66    9.67
 -24  -4   9   42.04   16.04
 -24   4   9   -3.25    7.66
 -23  -4   9   37.89   14.62
 -23   4   9   40.28   17.76
 -22  -4   9    5.18    8.52
 -22   4   9    5.21    6.39
 -21  -4   9   13.96   12.07
 -21   4   9   28.12   15.96
 -20  -4   9   17.03    7.09
 -20  -4   9   25.12   13.64
 -20   4   9   11.71    7.70
 -19  -4   9   18.30    6.89
 -19  -4   9   22.93   11.71
 -18  -4   9    6.28    3.41
 -18  -4   9    6.95    7.98
 -17  -4   9   11.84    4.22
 -17  -4   9   18.14   11.51
 -16  -4   9    0.41    2.39
 -16  -4   9   -6.81    9.43
 -16   4   9    1.35    4.19
  16   4  -9    6.50    7.30
  16  -4  -9    0.26    3.00
  15  -4  -9    1.63    2.54
 -15  -4   9   -2.80    3.91
 -15  -4   9   -5.05    8.02
 -15   4   9   -0.20    3.13
  15   4  -9   -0.03    5.02
  14  -4  -9    0.24    2.44
 -14  -4   9    0.71    7.02
 -14   4   9    5.80    5.34
  14   4  -9    7.91    7.84
  13  -4  -9   -2.19    2.55
 -13  -4   9   -4.10    5.37
 -13   4   9   -3.12    4.69
  13   4  -9   -1.05    4.20
 -12  -4   9   -2.05    2.31
  12  -4  -9    3.42    3.25
 -12  -4   9   -7.28    6.83
 -12   4   9   -0.39    2.95
  12   4  -9   -1.91    5.12
  11  -4  -9   -8.97    4.63
 -11  -4   9    2.39    2.35
 -11  -4   9    0.91    4.30
 -11   4   9    1.38    2.29
  11   4  -9    6.68    5.75
  10  -4  -9   -0.13    2.97
 -10  -4   9    3.11    2.34
 -10  -4   9    4.77    5.77
  10   4  -9   -1.64    3.59
 -10   4   9    7.04    5.24
  -9   4   9    4.59    4.44
   9  -4  -9   -1.56    3.14
  -9  -4   9    2.13    1.32
  -9  -4   9    5.59    4.71
   9   4  -9    4.65    3.33
  -8   4   9    5.23    3.37
   8  -4  -9   -1.06    2.41
  -8  -4   9    2.02    3.18
  -8  -4   9    3.82    2.48
   8   4  -9    1.61    4.08
  -7   4   9   30.20    8.20
  -7  -4   9   30.66    8.38
   7  -4  -9   27.37    6.99
  -7  -4   9   21.36    4.43
   7   4  -9   29.40    7.82
  -6   4   9    1.21    3.34
  -6  -4   9    9.32    5.33
   6  -4  -9   -2.80    3.82
  -6  -4   9    3.06    2.13
   6   4  -9    7.32    3.45
  -5  -4   9   31.81    7.60
  -5   4   9   26.80    7.93
   5  -4  -9   21.26    6.55
   5   4  -9   32.17    7.50
  -5  -4   9   26.76    4.36
  -4  -4   9    8.18    4.03
  -4  -4   9    7.20    2.90
  -4   4   9    9.75    5.21
   4  -4  -9    6.51    3.76
   4   4  -9    8.04    4.10
  -3  -4   9   26.03    3.74
  -3  -4   9   28.43    6.12
  -3   4   9   25.17    8.75
   3  -4  -9   29.49    7.38
   3   4  -9   28.47    6.23
  -2   4   9    7.31    4.21
  -2  -4   9   -1.03    1.29
   2   4  -9    2.07    1.75
   2  -4  -9    0.87    2.42
   1  -4  -9   -1.30    3.12
  -1   4   9    1.37    2.93
   0   4  -9    0.33    0.39
   0  -4  -9   -3.04    3.85
   0   4   9    2.30    3.57
  -1  -4  -9    6.83    4.98
  -1   4  -9    7.73    1.55
   1   4   9   15.39    7.11
  -2  -4  -9   -1.32    3.62
  -2   4  -9    1.54    1.18
  -3   4  -9    2.53    1.51
  -3  -4  -9    6.15    4.69
   3   4   9   16.90    7.76
   4   4   9    2.24    4.00
   4   4   9    4.25    6.52
  -4  -4  -9   -0.28    3.05
  -4   4  -9    5.63    2.08
  -5   4  -9    2.30    1.62
   5   4   9    0.07    5.75
   5   4   9    8.13    5.41
  -5  -4  -9    0.74    3.15
  -6  -4  -9    5.26    4.41
   6   4   9    0.10    2.68
  -6   4  -9   -0.13    2.75
  -7  -4  -9    0.58    5.39
  -7   4  -9    2.89    4.33
   7   4   9    0.71    3.20
  -8  -4  -9    6.15    5.38
  -8   4  -9    0.16    3.25
  -8   4  -9    1.47    1.63
  -9   4  -9    0.47    1.19
  -9  -4  -9   -0.22    3.96
 -10   4  -9   -0.96    1.90
 -10  -4  -9    4.30    5.03
 -11   4  -9   -1.13    2.78
 -11  -4  -9    5.47    5.10
 -12  -4  -9   -7.12    5.03
 -12   4  -9    4.88    4.76
  12   4   9   -0.85    3.95
 -13  -4  -9    6.27    5.56
 -13   4  -9   -3.09    2.68
  13   4   9    1.76    5.25
 -14  -4  -9  -11.01   10.24
 -14   4  -9    4.64    4.83
  14   4   9    0.09    4.64
 -15  -4  -9    2.77    7.46
 -15   4  -9    2.82    4.58
  15   4   9   -2.20    4.33
 -16   4  -9   -3.19    4.90
 -16  -4  -9    1.60    4.83
  16   4   9   -0.57    5.09
 -17   4  -9   -0.92    3.16
  17   4   9   -3.19    5.88
 -17  -4  -9   -4.65    7.61
 -18   4  -9   36.97   11.36
  18   4   9   42.73   15.64
 -18  -4  -9    8.78    6.10
 -19  -4  -9   -4.82    8.35
 -19   4  -9   -4.95    6.30
  19   4   9    1.91    4.50
 -20  -4  -9    6.51    6.29
 -20   4  -9    6.52    4.67
 -21  -4  -9    1.81    7.47
 -21   4  -9    1.14    5.08
 -22  -4  -9    0.96    6.11
 -22   4  -9   14.31    8.05
 -22  -4  -9   12.88   12.63
 -23  -4  -9  -13.04   13.10
 -23   4  -9   17.50   10.40
 -23  -4  -9   16.88   12.37
 -24  -4  -9   -0.57    8.11
 -24   4  -9   -9.88    9.24
 -24  -4  -9    7.98    6.95
 -25  -4  -9    3.58    5.26
 -25  -4  -9   16.30   12.19
 -26  -4  -9  -34.28   14.73
 -27  -4  -9   -3.46    6.52
 -28  -4  -9    4.87    7.71
 -28  -5   9   32.19   17.98
 -27  -5   9   17.21   11.52
 -27   5   9   17.76   15.76
 -26  -5   9   21.70   10.24
 -26   5   9   45.72   19.04
 -25  -5   9   21.57   12.42
 -25   5   9   39.03   21.27
 -24  -5   9   73.46   20.85
 -24   5   9   66.16   25.25
 -23  -5   9   21.43   14.79
 -23   5   9   15.87   18.32
 -22  -5   9   71.32   20.41
 -22   5   9   87.35   27.32
 -21  -5   9   40.43   14.71
 -20  -5   9   76.88   13.17
 -20  -5   9   71.31   20.07
 -19  -5   9   18.96    6.18
 -19  -5   9   16.91   10.73
 -18  -5   9   69.65   11.77
 -18  -5   9   45.16   15.00
 -17  -5   9   13.70    5.11
 -17  -5   9   25.90   12.93
  17   5  -9   16.32    8.27
  17  -5  -9   22.08    7.32
  16  -5  -9   19.02    6.51
 -16  -5   9    7.39    4.19
 -16  -5   9   13.10   10.18
  16   5  -9    4.54    4.27
  15  -5  -9    1.27    3.78
 -15  -5   9   -0.04    2.86
 -15  -5   9   -8.52    9.72
  15   5  -9   -1.68    6.53
  14  -5  -9    3.78    4.39
 -14  -5   9   12.19    8.45
 -14   5   9    5.49    5.08
  14   5  -9    0.09    4.28
  13  -5  -9    3.09    2.71
 -13  -5   9   -1.38    5.10
 -13   5   9    2.44    2.90
  13   5  -9   -1.11    5.43
 -12  -5   9   15.23    4.38
  12  -5  -9   14.77    5.77
 -12  -5   9    9.62    7.11
  12   5  -9   20.38    7.82
 -12   5   9   18.32    7.28
 -11  -5   9   11.04    3.58
  11  -5  -9   12.80    5.53
 -11  -5   9    6.46    6.00
  11   5  -9   23.34    9.13
 -11   5   9   13.74    6.77
 -10   5   9   30.36    9.17
 -10  -5   9   21.94    5.13
  10  -5  -9   29.85    8.61
 -10  -5   9   15.09    7.02
  10   5  -9   31.48    9.78
  -9   5   9   34.67   10.36
  -9  -5   9   41.10    6.14
  -9  -5   9   42.66   11.48
   9  -5  -9   37.91    8.74
   9   5  -9   35.74   10.28
  -8  -5   9   62.40    7.30
  -8   5   9   61.76   12.41
  -8  -5   9   80.32   14.30
   8  -5  -9   51.69   10.37
   8   5  -9   69.91   13.97
  -7  -5   9   60.96   11.73
  -7  -5   9   54.89    6.17
   7  -5  -9   46.29    9.79
   7   5  -9   45.02   10.86
  -7   5   9   70.44   13.28
  -6  -5   9   75.70   11.75
  -6  -5   9   87.96    7.37
  -6   5   9   73.36   13.43
   6  -5  -9   83.45   12.89
   6   5  -9   78.07   12.97
  -5  -5   9   70.17   11.44
  -5   5   9   80.71   14.21
  -5  -5   9   58.27    5.47
   5  -5  -9   63.26   11.79
   5   5  -9   66.12   11.46
  -4   5   9   57.47   12.55
   4   5  -9   42.54    8.95
   4  -5  -9   57.50   10.88
   3   5  -9   89.37   11.88
   3  -5  -9   80.75   12.68
  -3   5   9   83.99   14.87
  -2   5   9   11.06    6.44
   2   5  -9   10.29    4.30
   2  -5  -9   12.53    4.78
   1  -5  -9   62.80   11.37
   1   5  -9   48.71    7.68
  -1   5   9   63.06   13.38
   0  -5  -9   19.52    6.55
   0   5   9   14.48    5.99
   0   5  -9   17.29    4.56
  -1  -5  -9   82.17   13.73
  -1   5  -9   64.69    7.33
   1   5   9   47.86   11.94
   2   5   9   -1.60    5.69
  -2  -5  -9    2.87    4.47
  -2   5  -9    0.69    1.20
  -3  -5  -9   38.04   10.39
  -3   5  -9   22.99    3.69
   3   5   9   33.15   10.35
   4   5   9   51.58   13.10
  -4  -5  -9   42.95   10.10
  -4   5  -9   34.52    4.06
  -5   5  -9   56.68    6.46
  -5   5  -9   38.14    4.13
  -5   5  -9   28.55    3.69
  -5  -5  -9   40.84   10.27
   5   5   9   49.64   13.57
  -6   5  -9    1.62    1.22
  -6   5  -9    2.69    1.38
  -6   5  -9    0.57    1.94
  -6  -5  -9    7.95    5.09
  -7  -5  -9   29.98   10.07
  -7   5  -9   25.52    5.84
  -7   5  -9   13.68    3.30
  -8  -5  -9   -1.32    4.47
  -8   5  -9   -0.39    1.64
  -8   5  -9   -1.51    3.38
  -9  -5  -9   17.17    8.16
   9   5   9   25.56    9.96
  -9   5  -9   19.55    6.70
  10   5   9   13.39    8.35
 -10  -5  -9    6.28    7.80
 -10   5  -9    7.86    4.77
  11   5   9    4.92    5.15
 -11  -5  -9   28.25    9.48
 -11   5  -9   12.88    4.99
  12   5   9   -7.35    7.61
 -12   5  -9    1.62    3.08
 -12  -5  -9    2.97    4.72
  13   5   9    6.29    4.66
 -13   5  -9   18.10    5.80
 -13  -5  -9   15.48    8.58
 -14  -5  -9   -9.54    9.85
  14   5   9   11.86    7.43
 -14   5  -9    5.16    5.04
 -15  -5  -9   25.42   11.25
  15   5   9   28.85   12.82
 -15   5  -9   33.39    9.19
 -16  -5  -9    2.14    4.97
 -16   5  -9   -4.52    5.26
  16   5   9    0.81    5.09
 -17  -5  -9   54.29   17.24
 -17   5  -9   43.85   11.53
  17   5   9   43.83   14.43
 -18  -5  -9   10.19    7.89
 -18   5  -9   10.38    6.84
 -19   5  -9   36.97   10.73
 -19  -5  -9   64.85   20.44
 -20   5  -9    5.03    4.97
 -20  -5  -9   -4.97    8.94
 -21   5  -9   11.86    8.06
 -21  -5  -9   37.80   16.69
 -22   5  -9   15.36   10.85
 -22  -5  -9  -12.86    9.05
 -23  -5  -9   59.04   21.63
 -23   5  -9   12.06    8.63
 -24  -5  -9   -8.44   11.03
 -27  -6   9   51.13   21.59
 -27   6   9   64.31   26.52
 -26  -6   9   40.10   15.06
 -26   6   9   62.01   25.40
 -25  -6   9   40.31   17.11
 -25   6   9   86.01   28.11
 -24  -6   9   35.81   16.23
 -24   6   9   51.81   21.42
 -23  -6   9   55.61   20.81
 -23   6   9   69.20   24.59
 -22  -6   9   55.83   19.32
 -21  -6   9   43.85   15.54
 -20  -6   9   77.07   13.22
 -20  -6   9   82.36   21.40
 -19  -6   9   76.12   12.68
 -19  -6   9   63.42   18.79
 -18  -6   9   70.26   11.60
 -18  -6   9   53.94   16.00
  18  -6  -9   89.59   15.53
 -17  -6   9   59.20   10.26
  17  -6  -9   67.52   12.87
 -17  -6   9   66.86   18.76
 -16  -6   9   43.96    8.72
  16  -6  -9   56.62   12.70
 -16  -6   9   44.70   13.55
  16   6  -9   45.16   15.99
 -15  -6   9    3.67    3.36
  15  -6  -9    4.05    4.97
 -15  -6   9    5.98    7.21
  15   6  -9    0.08    6.06
  14  -6  -9   35.56    9.45
 -14  -6   9   14.88    8.52
  14   6  -9   49.27   15.55
 -13  -6   9   39.81    7.58
  13  -6  -9   27.08    8.26
 -13  -6   9   30.31   11.45
  13   6  -9   53.94   14.71
 -12  -6   9   52.94    8.12
  12  -6  -9   64.73   12.29
 -12  -6   9   41.76   12.55
  12   6  -9   55.32   15.54
 -12   6   9   85.18   16.37
 -11   6   9   55.62   13.15
 -11  -6   9   58.59    8.13
  11  -6  -9   73.91   13.16
 -11  -6   9   64.51   14.55
  11   6  -9   53.68   14.33
 -10  -6   9   75.72    8.84
 -10   6   9   71.56   13.90
  10  -6  -9   65.09   12.12
 -10  -6   9   80.14   16.21
  10   6  -9   63.89   14.32
  -9  -6   9  101.55    9.44
   9  -6  -9  112.30   15.70
  -9   6   9  101.10   16.72
  -9  -6   9  100.28   17.04
   9   6  -9   94.44   17.68
  -8  -6   9  161.73   10.86
  -8  -6   9  138.20   18.70
   8  -6  -9  141.73   17.12
   8   6  -9  144.25   20.62
  -8   6   9  156.04   20.34
  -7  -6   9  114.93    8.49
  -7  -6   9  107.34   15.57
   7  -6  -9  109.42   15.33
  -7   6   9  103.90   16.86
   7   6  -9   78.20   15.11
  -6  -6   9  177.00   19.71
  -6  -6   9  159.42    8.96
   6   6  -9  146.23   19.03
   6  -6  -9  190.69   20.18
  -6   6   9  173.33   21.47
   5  -6  -9  110.06   15.35
   5   6  -9  136.68   17.87
  -5   6   9  121.46   18.18
  -4   6   9  170.90   21.96
   4   6  -9  153.62   18.13
   4  -6  -9  146.92   17.49
   3   6  -9   30.60    8.07
   3  -6  -9   23.92    7.53
  -3   6   9   26.22    8.60
   2   6  -9  182.81   17.88
   2  -6  -9  153.66   18.45
  -2   6   9  175.96   22.78
   1  -6  -9   26.62    8.34
  -1   6   9   19.06    9.59
   0   6  -9  192.07   16.37
   0   6   9  184.75   23.87
   0  -6  -9  199.87   21.42
  -1  -6  -9    3.87    6.01
  -1   6  -9    0.10    2.26
   1   6   9    6.48    6.33
   2   6   9  134.44   20.90
  -2   6  -9  109.88   11.26
  -2  -6  -9  123.46   17.87
  -3   6  -9   28.89    5.42
  -3  -6  -9   44.64   11.39
   3   6   9   38.80   12.28
  -4   6  -9   94.42    9.40
   4   6   9  114.23   20.94
  -4  -6  -9   87.28   15.48
  -5   6  -9   45.01    4.35
  -5   6  -9   44.49    3.75
   5   6   9   47.04   12.50
  -5   6  -9   49.71    6.68
   5   6   9   65.41   16.06
  -5  -6  -9   57.48   13.40
  -6   6  -9   99.36    6.86
  -6  -6  -9  120.03   19.03
   6   6   9   93.05   17.04
  -6   6  -9   72.46    7.54
  -7   6  -9    1.96    1.54
   7   6   9    3.22    5.62
  -7   6  -9    3.47    2.08
  -7  -6  -9   10.47    7.17
  -8   6  -9   77.95    7.51
  -8  -6  -9   62.80   14.94
   8   6   9   59.61   14.84
  -9   6  -9   35.89    6.11
  -9  -6  -9   28.03   11.78
   9   6   9   13.61    8.10
  -9   6  -9   25.62    6.00
 -10  -6  -9   37.28   12.23
  10   6   9   47.99   13.94
 -10   6  -9   44.39    8.08
 -10   6  -9   51.60    7.24
 -11  -6  -9    9.72    7.16
  11   6   9   12.11    6.27
 -11   6  -9   12.80    4.88
 -11   6  -9   13.12    4.23
  12   6   9   47.86   14.19
 -12  -6  -9   62.45   15.75
 -12   6  -9   55.22   10.40
 -12   6  -9   58.69    8.72
  13   6   9   35.23   13.55
 -13  -6  -9   16.96    8.82
 -13   6  -9   11.09    5.05
 -13   6  -9   18.36    5.67
  14   6   9   69.93   18.88
 -14   6  -9   63.79   11.98
 -14  -6  -9   57.48   16.29
 -14   6  -9   72.03   10.76
  15   6   9   10.87    9.20
 -15   6  -9    3.78    5.09
 -15  -6  -9   33.56   13.38
 -15   6  -9   12.55    5.36
 -16  -6  -9   99.08   23.03
 -16   6  -9  120.12   17.68
 -16   6  -9   97.40   13.69
 -17  -6  -9   21.28   12.71
 -17   6  -9   21.96    7.97
 -17   6  -9   23.20    6.85
 -18  -6  -9   95.31   23.85
 -18   6  -9   82.15   16.56
 -18   6  -9   84.95   13.25
 -19   6  -9   15.55    6.40
 -19  -6  -9   29.96   14.08
 -20  -6  -9   55.45   19.04
 -20   6  -9   59.22   15.43
 -21  -6  -9  -10.36   12.67
 -21   6  -9   -1.12    4.12
 -22  -6  -9   43.49   16.92
 -22   6  -9   68.06   16.34
 -23  -6  -9    5.57   14.93
 -27  -7   9   50.86   19.74
 -26  -7   9   22.04   13.62
 -26   7   9   15.86    9.44
 -25  -7   9   46.82   17.40
 -25   7   9   56.18   24.36
 -24  -7   9   50.65   18.43
 -23  -7   9   93.32   25.62
 -22  -7   9   43.80   18.17
 -21  -7   9   68.70   20.68
 -20  -7   9   51.48   17.53
 -20  -7   9   26.52    8.00
 -19  -7   9  158.70   29.59
 -19  -7   9  105.88   14.67
  19  -7  -9  109.25   18.01
  18  -7  -9   34.96    9.99
 -18  -7   9   37.18   14.07
 -18  -7   9   33.96    8.35
  17  -7  -9  103.46   17.31
 -17  -7   9   91.99   20.92
 -17  -7   9  109.33   13.93
  16  -7  -9   82.39   15.04
 -16  -7   9   79.83   19.76
 -16  -7   9   75.89   11.12
  15  -7  -9  102.08   16.98
 -15  -7   9  105.63   21.62
  15   7  -9  130.60   25.60
  14  -7  -9   23.17    7.84
 -14  -7   9   11.57   10.83
  14   7  -9   12.07    8.50
  13  -7  -9   61.68   13.38
 -13  -7   9   88.63   18.95
  13   7  -9  102.40   20.82
 -13  -7   9   85.42   10.51
 -12  -7   9   52.37    7.76
  12  -7  -9   56.14   11.68
 -12  -7   9   49.67   13.41
  12   7  -9   66.73   16.79
 -11  -7   9  120.30   11.24
  11  -7  -9  132.15   17.75
 -11  -7   9  108.14   18.81
  11   7  -9  111.47   20.94
 -10  -7   9   86.84    9.04
 -10   7   9   73.65   15.27
 -10  -7   9   84.72   16.21
  10  -7  -9   85.30   14.36
  10   7  -9   74.04   16.85
  -9  -7   9  171.84   11.91
   9  -7  -9  153.70   19.25
   9   7  -9  150.78   23.15
  -9   7   9  164.83   22.40
  -8  -7   9  125.77    9.25
  -8  -7   9  144.76   19.88
   8  -7  -9  123.38   17.01
   8   7  -9  114.66   19.10
  -8   7   9  137.59   19.82
  -7  -7   9  188.69   10.08
   7  -7  -9  210.93   22.32
   7   7  -9  161.20   22.31
  -7   7   9  196.69   24.48
  -6  -7   9   43.13    4.91
  -6  -7   9   47.64    4.25
  -6   7   9   51.68   12.78
   6  -7  -9   67.75   12.66
   6   7  -9   73.90   14.68
  -5   7   9  242.94   26.88
   5   7  -9  197.88   23.05
   5  -7  -9  186.29   20.71
   4   7  -9   35.38    8.84
   4  -7  -9   49.78   10.28
  -4   7   9   38.73   11.97
  -3   7   9  227.43   26.59
   3   7  -9  192.44   20.93
   3  -7  -9  193.82   21.30
  -2   7   9  114.51   18.98
   2   7  -9  105.95   15.21
   2  -7  -9  110.77   16.21
   1   7  -9  213.10   20.39
  -1   7   9  215.33   26.48
   1  -7  -9  199.89   21.71
   0  -7  -9   31.75    9.64
   0   7  -9   22.92    6.44
   0   7   9   27.79   10.19
  -1   7  -9  200.52   18.04
   1   7   9  190.03   25.64
  -1  -7  -9  205.74   23.23
   2   7   9   34.88   10.98
  -2  -7  -9   22.37    8.23
  -2   7  -9   35.62    7.52
  -3   7  -9  139.89   13.97
   3   7   9  156.49   24.63
  -3  -7  -9  146.60   19.84
   4   7   9   42.70   14.06
  -4   7  -9   34.10    6.38
  -4  -7  -9   43.95   10.66
  -5   7  -9   83.94   10.50
   5   7   9   80.80   16.74
   5   7   9   85.15   19.82
  -5  -7  -9   93.40   16.87
   6   7   9   89.62   17.21
  -6   7  -9   85.87    5.76
  -6   7  -9   57.65    5.25
  -6  -7  -9  113.55   18.71
   6   7   9   82.59   19.62
   7   7   9  110.77   19.82
  -7   7  -9  130.92    8.48
  -7  -7  -9  135.40   21.17
  -7   7  -9   98.60    9.44
  -8   7  -9   11.92    3.16
   8   7   9   14.38    7.91
  -9   7  -9   84.15    8.33
  -9  -7  -9   81.78   17.28
   9   7   9   71.25   17.42
 -10  -7  -9   23.48    9.93
  10   7   9   17.84    9.86
 -10   7  -9   18.42    4.01
 -11   7  -9   96.90   10.23
 -11  -7  -9   80.92   18.38
  11   7   9   68.52   18.47
 -11   7  -9   85.97   12.75
 -12   7  -9   47.83    7.57
 -12  -7  -9   41.36   13.26
  12   7   9   41.02   13.97
 -12   7  -9   26.79    6.88
 -13   7  -9  109.98   12.32
 -13  -7  -9   94.85   20.17
  13   7   9  105.24   23.11
 -13   7  -9   73.85   12.88
 -14  -7  -9    1.08    5.73
 -14   7  -9    5.76    4.59
 -15   7  -9  148.24   15.60
 -15  -7  -9  153.60   27.06
 -15   7  -9  132.54   18.24
 -16   7  -9   67.47   11.27
 -16   7  -9   20.54    7.97
 -16  -7  -9   29.42   12.98
 -17   7  -9  117.88   14.99
 -17   7  -9  100.95   17.62
 -17  -7  -9  132.38   26.42
 -18   7  -9   23.89    6.60
 -18   7  -9   19.71    9.10
 -18  -7  -9   12.26   10.46
 -19  -7  -9   60.25   19.59
 -19   7  -9   72.86   16.47
 -20  -7  -9   13.17   11.47
 -20   7  -9   16.72   12.28
 -21  -7  -9   56.47   19.80
 -22  -7  -9    1.09   10.10
 -26  -8   9   31.17   14.02
 -25  -8   9    9.75    8.12
 -24  -8   9  102.91   25.56
 -23  -8   9   16.01   12.21
 -22  -8   9   82.50   22.51
 -21  -8   9   30.81   12.81
 -20  -8   9   66.29   19.77
 -19  -8   9   12.90    9.06
  19  -8  -9   28.91    9.46
  18  -8  -9   93.37   17.15
 -18  -8   9   86.56   20.90
  17  -8  -9   52.60   12.19
 -17  -8   9   14.61   10.68
  16  -8  -9  119.96   18.32
 -16  -8   9  113.16   22.48
  15  -8  -9   57.53   13.21
 -15  -8   9   73.34   18.89
  14  -8  -9  107.37   17.13
 -14  -8   9  115.91   22.98
  14   8  -9   96.22   22.56
  13  -8  -9   19.69    7.95
 -13  -8   9   29.06   10.85
  13   8  -9   25.83   10.28
 -12  -8   9   96.64   19.43
  12  -8  -9   70.16   13.96
  12   8  -9   82.57   19.36
 -11  -8   9   42.17   12.45
  11  -8  -9   16.66    6.34
  11   8  -9   28.47   11.88
 -11  -8   9   37.16    6.12
  10  -8  -9  128.27   17.91
 -10  -8   9  127.02   21.12
  10   8  -9  120.95   22.47
 -10  -8   9  133.41   10.94
  -9  -8   9   40.47    5.64
  -9  -8   9   44.67    7.93
   9  -8  -9   41.91    9.98
   9   8  -9   28.87   11.52
  -8  -8   9  116.65    8.66
   8  -8  -9   94.84   15.87
  -8  -8   9  100.01   10.44
   8   8  -9   88.65   18.82
  -7  -8   9   63.04    5.51
  -7  -8   9   56.64    6.54
   7  -8  -9   67.32   13.35
   7   8  -9   57.51   13.94
   6  -8  -9  159.45   20.21
   6   8  -9  114.00   19.39
  -6   8   9  150.11   22.94
   5   8  -9   17.05    6.59
   5  -8  -9   11.38    5.83
  -5   8   9   13.15    5.76
  -4   8   9  203.75   26.41
   4   8  -9  131.07   20.24
   4  -8  -9  147.51   19.36
  -3   8   9  108.84   19.79
   3   8  -9   87.10   15.58
   3  -8  -9   81.62   14.31
   2   8  -9  165.96   20.43
  -2   8   9  210.81   27.29
   2  -8  -9  189.76   22.26
   1  -8  -9   22.67    7.94
   1   8  -9   40.51   10.11
  -1   8   9   32.86   11.38
   0  -8  -9  123.48   18.51
   0   8  -9  123.54   16.18
   0   8   9  104.13   20.12
  -1  -8  -9   24.98    9.07
  -1   8  -9   30.21    8.42
   1   8   9   29.66   11.44
   2   8   9  136.05   24.00
  -2  -8  -9  162.43   21.14
  -2   8  -9  154.28   17.13
  -3   8  -9   26.96    7.41
  -3  -8  -9   27.67    9.11
  -4   8  -9  105.09   13.41
  -4  -8  -9  110.23   18.24
  -5   8  -9   28.91    7.54
   5   8   9   45.09   14.57
  -5  -8  -9   22.21    9.16
   6   8   9   77.44   17.88
  -6  -8  -9   78.66   16.81
   7   8   9   83.07   18.23
  -7   8  -9   94.98    7.22
  -7  -8  -9   86.39   17.16
  -7   8  -9   80.76    7.25
   8   8   9   95.66   19.33
  -8   8  -9  109.71    8.73
  -8  -8  -9  128.82   21.98
   9   8   9   14.35    8.46
  -9   8  -9    9.89    3.08
  -9  -8  -9   10.11    7.20
 -10  -8  -9   74.96   17.89
 -10   8  -9   77.69    8.52
  10   8   9   74.52   18.93
 -11  -8  -9   46.26   15.05
 -11   8  -9   37.97    6.51
 -12   8  -9  117.87   12.04
 -12  -8  -9  127.02   24.00
 -13   8  -9   24.16    6.21
 -13  -8  -9   21.04   10.79
 -13   8  -9   14.81    6.70
 -14   8  -9  146.47   14.65
 -14  -8  -9  147.37   26.64
 -14   8  -9  154.90   20.26
 -15   8  -9   13.47    5.26
 -15  -8  -9   19.89   10.17
 -15   8  -9   20.59    8.29
 -16   8  -9  103.04   13.09
 -16  -8  -9  105.84   21.93
 -16   8  -9  112.77   18.64
 -17  -8  -9    3.95    9.21
 -17   8  -9   30.53   10.65
 -18  -8  -9   74.44   20.74
 -18   8  -9   67.42   16.13
 -19   8  -9   21.61    9.03
 -19  -8  -9   31.42   13.74
 -20  -8  -9   42.35   16.80
 -21  -8  -9   -6.90    8.95
 -25  -9   9   42.86   18.66
 -24  -9   9  -11.30   13.80
 -23  -9   9   62.51   20.71
 -22  -9   9   10.28    7.20
 -21  -9   9   25.22   13.12
 -20  -9   9  -12.03   10.19
  20  -9  -9    5.10    7.42
  19  -9  -9   58.98   14.35
 -19  -9   9   35.63   13.84
  18  -9  -9   19.40    8.21
 -18  -9   9    7.34    8.10
  17  -9  -9   69.32   14.47
 -17  -9   9   53.94   16.91
  16  -9  -9   16.28    8.05
 -16  -9   9   14.92   10.17
  15  -9  -9   70.54   14.91
 -15  -9   9   66.59   17.27
  14  -9  -9   37.67   10.62
 -14  -9   9   23.14   10.42
 -13  -9   9   62.55   16.14
  13  -9  -9   52.27   12.33
  13   9  -9   81.69   20.19
 -12  -9   9   17.71    7.75
 -12  -9   9    0.02    4.90
  12  -9  -9   11.31    8.55
  12   9  -9   -0.77    5.74
  11  -9  -9   62.31   13.17
  11   9  -9   85.63   19.90
 -11  -9   9   78.10   12.79
 -10  -9   9   12.20    3.49
  10  -9  -9   21.06    7.89
  10   9  -9   -5.73    9.12
   9  -9  -9   75.54   14.48
   9   9  -9   72.76   17.58
  -9  -9   9   64.04    9.22
  -9  -9   9   68.49    7.24
  -8  -9   9   14.96    3.07
  -8  -9   9   15.25    4.07
   8  -9  -9   21.02    7.84
   8   9  -9    5.28    4.94
  -7  -9   9   53.35    4.82
   7  -9  -9   58.44   13.01
   7   9  -9   53.11   13.11
  -7  -9   9   56.58    6.00
   6   9  -9   12.19    8.68
   6  -9  -9    4.24    5.02
   5   9  -9   60.45   13.94
   5  -9  -9   92.89   16.22
   4   9  -9   34.13   10.85
   4  -9  -9   28.87    9.79
   3   9  -9  108.85   18.79
   3  -9  -9  124.00   18.69
   2   9  -9   19.01    9.20
   2  -9  -9   16.26    8.20
   1   9  -9   66.27   13.18
   1  -9  -9  101.69   17.19
   0  -9  -9   23.36    8.49
   0   9  -9    9.21    5.11
  -1  -9  -9   67.17   13.77
  -1   9  -9   62.45   12.79
  -2  -9  -9   23.91    9.85
  -2   9  -9   18.21    6.31
  -3  -9  -9   55.75   13.81
  -3   9  -9   47.50   10.48
  -4   9  -9   10.14    5.94
  -4  -9  -9    8.13    5.48
  -5   9  -9   54.81   11.46
   5   9   9   60.31   15.93
  -5  -9  -9   40.89   12.24
  -6  -9  -9   12.35    7.54
  -7  -9  -9   14.74    6.01
  -8   9  -9   32.58    4.98
  -8  -9  -9   22.99    9.82
  -9   9  -9   59.47    7.36
  -9  -9  -9   61.53   16.43
 -10   9  -9   24.06    5.19
 -10  -9  -9   21.79   10.21
 -11  -9  -9   67.37   18.22
 -11   9  -9   85.64    9.92
 -12  -9  -9    5.92    8.37
 -12   9  -9   11.13    4.73
 -13  -9  -9   71.39   19.17
 -13   9  -9   94.31   11.44
 -14  -9  -9    0.91    5.82
 -15  -9  -9   64.37   17.97
 -15   9  -9   90.60   16.33
 -16  -9  -9    7.53    5.40
 -16   9  -9   17.53    8.07
 -17  -9  -9   56.47   17.87
 -17   9  -9   49.33   13.59
 -18  -9  -9   21.63   12.96
 -18   9  -9   18.41    9.59
 -19  -9  -9   18.90   12.13
 -20  -9  -9   24.37   14.33
 -24 -10   9    9.47   12.48
 -23 -10   9    8.49    7.19
 -22 -10   9   -0.66    8.96
 -21 -10   9    2.34    5.38
 -20 -10   9   42.92   16.83
  20 -10  -9   17.99    9.35
  19 -10  -9    8.77    7.29
 -19 -10   9  -28.71   13.57
  18 -10  -9   10.95    7.62
 -18 -10   9   21.77   10.69
  17 -10  -9   18.72    9.04
 -17 -10   9   22.34   11.48
 -16 -10   9    9.86    7.18
  16 -10  -9   15.77    7.52
 -16 -10   9   44.37   15.74
 -15 -10   9    1.90    3.76
 -15 -10   9    0.35    7.49
  15 -10  -9    8.02    6.34
  14 -10  -9   40.56   11.72
 -14 -10   9   28.98    9.76
  13 -10  -9   -3.87    5.56
 -13 -10   9    3.52    4.62
 -12 -10   9   33.94    8.72
  12 -10  -9   30.00    9.24
  11 -10  -9   -7.28    6.56
  11  10  -9   -9.94    8.22
 -11 -10   9   -3.07    4.59
  10 -10  -9    5.06    7.35
  10  10  -9    0.63    4.73
   9 -10  -9    4.18    7.13
  -9 -10   9    1.81    2.46
  -8 -10   9   21.63    4.57
   8 -10  -9    7.48    8.59
   8  10  -9   26.70   10.92
  -8 -10   9   15.55    3.07
  -7 -10   9   -0.60    1.08
  -7 -10   9    0.07    0.63
   7  10  -9   -2.02    6.95
   7 -10  -9   -0.08    4.24
   6  10  -9   24.84   10.24
   6 -10  -9   37.33   11.58
   5  10  -9   28.89   11.25
   5 -10  -9   32.96   10.11
   4  10  -9   22.33   10.11
   4 -10  -9   40.38   11.34
   3  10  -9    1.17    4.84
   3 -10  -9    6.73    6.47
   2  10  -9   16.03    8.42
   2 -10  -9   43.30   12.26
   1  10  -9   -1.52    6.30
   1 -10  -9    8.31    7.23
   0 -10  -9   40.75   11.53
   0  10  -9   29.99   10.08
  -1 -10  -9   -7.21    5.82
  -1  10  -9   11.41    5.89
  -2 -10  -9   18.11    8.22
  -2  10  -9    6.97    4.73
  -3 -10  -9   -0.22    3.74
  -3  10  -9   -3.63    6.00
  -4  10  -9   13.92    6.22
  -4 -10  -9   21.89    9.52
  -5  10  -9  -12.44    6.81
  -5 -10  -9   -2.59    3.88
  -6  10  -9   10.62    6.17
  -6 -10  -9   18.82    8.88
  -7 -10  -9  -12.79    7.56
  -8 -10  -9    2.45    5.56
  -8  10  -9    5.27    2.17
  -9  10  -9   34.98    5.84
  -9 -10  -9   31.85   12.74
 -10  10  -9   27.95    5.48
 -10 -10  -9   29.74   12.28
 -11 -10  -9   -4.92    5.51
 -12 -10  -9   31.46   12.47
 -13 -10  -9    0.25    5.27
 -14 -10  -9   14.09   12.77
 -15 -10  -9   -3.11    6.09
 -16 -10  -9    5.66    6.61
 -16  10  -9    2.80    5.14
 -17 -10  -9    2.55    5.57
 -18 -10  -9    2.17    8.12
 -22 -11   9    4.10    8.65
 -21 -11   9   -1.37    7.12
 -21 -11   9    6.41    6.48
  20 -11  -9    0.64    5.19
 -20 -11   9   -2.96    7.11
 -20 -11   9    3.24    4.95
 -19 -11   9   21.48   11.13
  19 -11  -9    3.23    6.18
 -19 -11   9    5.17    7.62
  18 -11  -9   16.79    8.95
 -18 -11   9    5.73    5.48
 -17 -11   9    2.60    4.57
  17 -11  -9   -2.42    6.49
  16 -11  -9   -1.35    4.29
 -16 -11   9    6.93    6.36
  15 -11  -9    6.10    6.67
 -15 -11   9    0.72    3.73
 -14 -11   9  -15.58    6.89
  14 -11  -9    5.00    4.98
  13 -11  -9   -6.61    6.00
 -13 -11   9    8.91    5.81
  12 -11  -9   -9.90    6.12
 -12 -11   9   -0.90    4.14
 -11 -11   9    0.94    2.85
  11 -11  -9   -3.73    4.22
  10 -11  -9   -0.71    6.65
 -10 -11   9   -5.58    3.85
  -9 -11   9   -1.59    2.45
   9 -11  -9    0.95    4.95
   9  11  -9    4.32    6.22
  -8 -11   9   -0.78    1.85
   8 -11  -9    3.73    4.54
   8  11  -9    2.41    6.01
   7 -11  -9   -3.68    3.33
  -7 -11   9    2.16    2.12
   6  11  -9   21.13   11.63
   6 -11  -9   -2.27    5.22
   5  11  -9   10.64    7.49
   5 -11  -9   -4.96    3.44
   4  11  -9    2.22    6.73
   4 -11  -9   10.37    8.27
   3  11  -9   -3.61    6.09
   3 -11  -9    4.96    4.51
   2  11  -9    2.17    3.69
   2 -11  -9    2.63    3.80
   1  11  -9   15.88    9.04
   1 -11  -9    5.07    5.59
   0  11  -9    9.96    5.55
   0 -11  -9   -0.78    4.67
  -1 -11  -9    3.58    6.30
  -1  11  -9    0.79    5.62
  -2 -11  -9  -15.37    7.93
  -2  11  -9  -24.88    9.41
  -3 -11  -9    0.47    4.85
  -3  11  -9   -4.23    5.68
  -4  11  -9   -3.41    5.92
  -4 -11  -9   -2.68    5.64
  -5  11  -9    2.24    4.06
  -5 -11  -9   -0.96    4.20
  -6  11  -9   -4.57    7.48
  -6 -11  -9    0.41    4.05
  -7 -11  -9    7.58    8.84
  -8 -11  -9    1.26    6.33
  -9 -11  -9    1.64    7.46
 -10 -11  -9    0.89    4.40
 -11 -11  -9   -2.86    8.29
 -12 -11  -9  -19.28   10.23
 -13 -11  -9   -1.31    6.06
 -14 -11  -9  -10.17    8.17
 -15 -11  -9    9.26   11.02
 -16 -11  -9    0.80    6.04
  18 -12  -9    3.88    4.57
  17 -12  -9    4.40    5.89
  16 -12  -9   -1.79    3.98
  15 -12  -9    5.52    4.37
  14 -12  -9   -2.86    5.78
  13 -12  -9   -1.73    4.83
  12 -12  -9   -1.15    5.56
  11 -12  -9   13.40    6.77
  10 -12  -9   -3.65    5.16
   9 -12  -9    1.74    4.09
   8 -12  -9    1.34    5.63
   7 -12  -9  -17.51    8.07
   6  12  -9   29.51   12.09
   6 -12  -9    5.61    5.06
   5  12  -9    4.06    7.43
   5 -12  -9   14.15    8.32
   4  12  -9    4.43    4.80
   4 -12  -9   12.13    8.62
   3  12  -9   -0.04    5.61
   3 -12  -9   11.30    6.76
   2  12  -9   -4.85    6.72
   2 -12  -9    5.61    3.72
   1  12  -9    4.71    7.81
   1 -12  -9    2.81    5.94
   0  12  -9    0.88    5.07
   0 -12  -9    9.92    7.94
  -1 -12  -9   21.48    9.35
  -1  12  -9   22.68    9.56
  -2 -12  -9   12.87    7.85
  -2  12  -9    1.26    4.54
  -3 -12  -9    5.38    7.96
  -3  12  -9  -18.26    8.99
  -4 -12  -9   10.27    7.51
  -4  12  -9    7.68    4.48
  -5  12  -9    3.05    5.59
  -5 -12  -9    5.80    8.26
  -6  12  -9    4.92    5.01
  -6 -12  -9    0.85    7.36
  -7 -12  -9    1.90    6.02
  -7  12  -9   -7.61    6.94
  -8 -12  -9   -2.74    5.53
  -9 -12  -9   -9.04    7.27
 -10 -12  -9   -6.98    8.39
 -11 -12  -9    0.21    4.91
 -12 -12  -9   27.86   11.71
 -13 -12  -9  -31.82   13.05
 -14 -12  -9    3.13    5.82
  16 -13  -9   12.62    8.37
  15 -13  -9    5.52    4.99
  14 -13  -9   21.38    9.41
  13 -13  -9   15.75    9.35
  12 -13  -9    2.12    5.29
  11 -13  -9    3.61    6.31
  10 -13  -9   20.37    9.03
   9 -13  -9    0.73    6.62
   8 -13  -9    0.80    5.44
   7 -13  -9   12.48   10.60
   6 -13  -9   -1.13    4.60
   5 -13  -9   11.86   11.41
   4 -13  -9   -0.26    5.89
   3 -13  -9    6.20    5.92
   2 -13  -9   -0.56    5.36
   1 -13  -9   -1.92    6.97
   0 -13  -9    6.19    6.80
  -1 -13  -9   15.91    9.18
  -2 -13  -9   16.19    9.56
  -3 -13  -9   10.02    7.76
  -4 -13  -9    1.80    5.75
  -5 -13  -9   10.32    9.85
  -6 -13  -9   -0.36    4.01
  -7 -13  -9    6.85    6.80
  -8 -13  -9    6.27    7.91
  -9 -13  -9   19.08   10.92
 -10 -13  -9    2.47    5.23
 -11 -13  -9    6.75    8.17
  13 -14  -9    2.39    3.73
  12 -14  -9   14.39    6.17
  11 -14  -9    0.87    4.93
  10 -14  -9    2.62    4.31
   9 -14  -9    3.18    5.29
   8 -14  -9    2.12    5.80
   7 -14  -9   -1.20    4.25
   6 -14  -9    6.16    7.38
   5 -14  -9    0.59    4.54
   4 -14  -9    4.64    9.05
   3 -14  -9    3.12    9.00
   2 -14  -9   11.52   12.68
   1 -14  -9    2.30    7.48
   0 -14  -9   15.13    9.28
  -1 -14  -9   12.24    9.13
  -2 -14  -9    8.44    7.51
  -3 -14  -9    0.64    5.82
  -4 -14  -9   24.78   11.87
  -5 -14  -9    0.51    6.59
  -6 -14  -9   13.30    8.13
  -7 -14  -9    1.17    6.21
  -8 -14  -9   10.31    9.42
   8 -15  -9    2.17    5.03
   7 -15  -9    6.02    6.40
   6 -15  -9    4.40    8.54
   5 -15  -9    8.59    9.33
   4 -15  -9   41.89   12.97
   3 -15  -9   15.34   12.42
   2 -15  -9   -0.98    5.09
   1 -15  -9    1.88    4.44
   0 -15  -9    0.11    4.96
  -1 -15  -9   11.93    6.51
  -2 -15  -9   -0.62    5.37
  -3 -15  -9    0.58    5.78
 -29   0  10   75.73   26.19
 -28   0  10   -2.84    9.46
 -27   0  10   88.39   26.59
 -26   0  10   -8.52   15.89
 -25   0  10  127.48   30.97
 -24   0  10    9.07    9.63
 -23   0  10  366.97   47.72
 -22   0  10   20.47   12.89
 -21   0  10  363.62   45.10
 -20   0  10   -1.34    7.80
 -19   0  10  749.88   60.96
 -18   0  10   10.91    5.89
 -18   0  10   -0.81    9.61
 -17   0  10  114.49   16.11
 -17   0  10  109.25   22.30
 -16   0  10    8.12    4.09
 -16   0  10   17.27   10.39
 -15   0  10   89.93   13.84
 -15   0  10   85.34   18.58
 -14   0  10   18.91    6.42
 -14   0  10   14.92    7.14
 -13   0  10  116.08   14.91
 -13   0  10  118.21   20.61
 -12   0  10   16.09    5.92
 -12   0  10    3.78    4.72
 -11   0  10  128.52   19.53
  11   0 -10  141.83   14.34
  10   0 -10   22.12    5.70
 -10   0  10    9.87    6.11
   9   0 -10  394.63   22.99
  -9   0  10  376.83   30.88
   8   0 -10   16.88    5.54
  -8   0  10   20.71    7.72
  -8   0  10   20.00    6.62
   7   0 -10  953.35   34.53
  -7   0  10  984.93   38.79
  -7   0  10  984.20   45.48
  -6   0  10   14.05    5.82
   6   0 -10   18.17    5.77
  -6   0  10   27.46    9.64
   5   0 -10 1822.71   46.65
  -5   0  10 1780.37   51.36
   4   0 -10   19.77    6.18
  -4   0  10   17.84    6.62
  -3   0  10  730.53   33.81
   3   0 -10  739.92   29.79
  -2   0  10   19.36    6.31
   2   0 -10   19.17    5.61
  -1   0  10  600.42   31.82
   1   0 -10  627.93   27.95
   0   0 -10    3.66    3.70
   0   0  10    9.15    5.64
  -1   0 -10  592.41   28.16
   1   0  10  585.85   33.48
   2   0  10    0.21    1.59
  -2   0 -10    5.15    4.16
   2   0  10    5.66    4.75
   3   0  10  332.58   14.89
  -3   0 -10  356.22   23.43
   4   0  10    8.14    2.78
  -4   0 -10   12.17    5.54
  -5   0 -10  388.52   26.12
   5   0  10  357.91   17.08
  -6   0 -10    4.38    3.79
   6   0  10    0.40    1.90
  -7   0 -10  272.36   23.82
   7   0  10  273.16   16.95
  -8   0 -10    4.47    4.36
   8   0  10    2.05    2.18
  -9   0 -10  249.52   25.29
   9   0  10  261.19   18.78
 -10   0 -10   13.20    5.94
  10   0  10    9.39    3.85
  11   0  10  295.31   22.49
 -11   0 -10  301.12   29.73
 -12   0 -10    1.35    6.94
 -13   0 -10  233.35   28.79
 -14   0 -10    2.83    5.01
 -14   0 -10    0.50    5.53
 -15   0 -10  414.24   31.55
 -15   0 -10  426.47   42.61
 -16   0 -10   -2.72    7.54
 -16   0 -10    7.21    5.56
 -17   0 -10  282.96   36.86
 -17   0 -10  329.09   30.89
 -18   0 -10    3.14    8.00
 -18   0 -10    4.47    5.21
 -19   0 -10  269.47   29.59
 -19   0 -10  241.34   36.66
 -20   0 -10    2.98    5.99
 -20   0 -10    4.56    7.94
 -21   0 -10  262.64   41.19
 -21   0 -10  257.44   31.35
 -22   0 -10   -7.67    9.44
 -23   0 -10  124.93   23.78
 -24   0 -10   16.04   11.33
 -25   0 -10   77.47   19.12
 -29  -1  10  -14.93   12.70
 -28  -1  10   75.94   25.01
 -28   1  10   58.21   23.88
 -27  -1  10    4.49   13.42
 -27   1  10    9.09    7.28
 -26  -1  10   92.42   25.55
 -26   1  10  105.56   30.05
 -25  -1  10   18.65   14.21
 -25   1  10   17.39   10.94
 -24  -1  10  192.53   36.79
 -24   1  10  203.08   37.66
 -23  -1  10  -14.67   13.39
 -23   1  10   -5.61   10.29
 -22  -1  10  306.61   42.16
 -22   1  10  263.01   39.87
 -21  -1  10   -7.80    9.54
 -21   1  10  154.51   28.69
 -20  -1  10  354.51   43.28
 -20   1  10  377.22   45.82
 -19  -1  10   12.01    6.66
 -19  -1  10   -2.57    6.53
 -19   1  10  -16.60   13.79
 -18  -1  10  327.49   27.47
 -18   1  10  368.48   30.68
 -18  -1  10  340.99   40.25
 -18   1  10  347.79   41.65
 -17  -1  10    9.68    3.90
 -17   1  10    1.26    3.79
 -17  -1  10   -2.81    7.75
 -17   1  10    0.80    5.62
 -16  -1  10   81.16   12.79
 -16   1  10   79.10   13.48
 -16  -1  10   75.87   17.97
 -16   1  10   90.30   19.92
 -15  -1  10   21.00    6.82
 -15   1  10   19.52    6.90
 -15  -1  10    9.30    7.00
 -15   1  10   23.77   11.63
 -14  -1  10   73.38   11.93
 -14   1  10   79.64   13.06
 -14  -1  10   75.23   17.24
 -14   1  10   63.61   16.09
 -13  -1  10   12.82    4.96
 -13   1  10    9.94    4.92
 -13  -1  10   10.70    6.28
 -13   1  10   26.00   10.97
  13  -1 -10    8.36    4.29
  12  -1 -10   86.26   11.75
 -12   1  10   83.84   13.09
 -12  -1  10   83.31   16.68
 -12   1  10   80.92   16.82
  11  -1 -10   26.62    6.91
 -11   1  10   16.46    5.04
 -11  -1  10   10.20    5.67
 -11   1  10   12.83    5.29
  10  -1 -10  183.65   16.77
 -10   1  10  161.65   17.48
 -10  -1  10  146.42   20.38
   9  -1 -10   11.09    4.62
  -9  -1  10   15.08    4.88
  -9  -1  10    8.01    3.61
   9   1 -10    5.68    2.95
   8   1 -10  512.96   23.94
   8  -1 -10  514.02   27.10
  -8  -1  10  510.34   26.92
  -8  -1  10  509.36   34.14
   7   1 -10    3.31    3.02
   7  -1 -10    3.02    3.29
  -7  -1  10   -4.67    6.01
  -7  -1  10   -1.49    2.76
   6   1 -10  957.44   31.65
   6  -1 -10  921.99   35.62
  -6  -1  10  908.30   41.49
  -6  -1  10  893.55   34.49
   5   1 -10   19.33    5.52
  -5  -1  10    4.90    3.28
  -5   1  10   -0.91    4.00
   5  -1 -10    1.82    3.32
  -5  -1  10    6.13    4.26
   4   1 -10  765.48   27.84
   4  -1 -10  732.46   31.64
  -4  -1  10  794.64   33.70
  -4  -1  10  764.42   31.49
  -4   1  10  827.71   37.44
   3   1 -10    3.34    2.83
   3  -1 -10    1.84    3.29
  -3  -1  10   -4.27    4.27
  -3   1  10    1.24    3.20
  -3  -1  10    0.43    2.84
  -2   1  10  444.97   28.34
  -2  -1  10  413.73   24.32
   2   1 -10  440.58   21.31
   2  -1 -10  434.23   24.74
  -2  -1  10  466.16   21.68
  -1   1  10    5.52    4.24
  -1  -1  10   -2.34    3.43
  -1  -1  10    3.10    2.48
   1   1 -10   -0.17    2.24
   1  -1 -10    1.08    2.24
   0  -1  10  260.41   11.71
   0   1  10  287.26   23.78
   0   1 -10  294.35   17.85
   0  -1  10  301.63   22.06
   0  -1 -10  310.41   21.80
  -1   1 -10    4.36    2.61
   1   1  10   -2.88    3.84
   1  -1  10    3.84    3.52
  -1  -1 -10    5.90    3.37
  -2   1 -10  348.79   20.77
  -2  -1 -10  305.76   22.32
   2   1  10  316.92   26.66
   3   1  10    6.54    3.18
  -3   1 -10    0.61    2.27
  -3  -1 -10    4.79    3.69
   3   1  10    1.53    5.23
  -4   1 -10  244.81   18.76
  -4  -1 -10  241.75   21.08
   4   1  10  257.66   17.05
   5   1  10    5.48    3.41
  -5  -1 -10    6.35    4.63
  -5   1 -10    0.82    4.58
  -6  -1 -10  230.69   21.93
  -6   1 -10  189.81   18.47
   6   1  10  216.04   17.35
  -7  -1 -10   10.31    6.17
  -7   1 -10    5.32    4.34
   7   1  10   14.09    4.79
  -8  -1 -10  308.50   27.70
   8   1  10  286.56   22.18
  -8   1 -10  269.43   24.20
  -9   1 -10    1.16    4.02
   9   1  10    6.88    3.52
  -9  -1 -10   -2.15    3.37
  10   1  10  193.30   20.06
 -10  -1 -10  251.06   26.75
 -10   1 -10  223.92   24.39
 -11  -1 -10    6.72    6.55
 -11   1 -10    4.54    6.01
  11   1  10   -0.56    2.90
  12   1  10  226.58   23.30
 -12  -1 -10  192.23   25.41
 -12   1 -10  200.37   25.16
 -13   1 -10   -3.48    4.29
 -13   1 -10    4.82    4.84
 -13  -1 -10   -0.10    5.03
  13   1  10    3.07    3.98
 -14   1 -10  240.72   30.42
 -14   1 -10  259.79   22.68
  14   1  10  232.30   25.40
 -14  -1 -10  192.10   27.67
 -15  -1 -10   -8.74   10.11
 -15   1 -10    4.60    3.53
 -15   1 -10    9.02   10.04
 -16  -1 -10  299.84   29.14
 -16   1 -10  303.97   27.11
 -16   1 -10  281.83   35.51
 -16  -1 -10  260.38   34.55
 -17  -1 -10   -5.50    8.28
 -17   1 -10   -3.99    6.63
 -17  -1 -10   -5.63   12.16
 -17   1 -10  -14.61   12.17
  17   1  10    9.50    7.69
 -18  -1 -10  197.78   32.26
 -18   1 -10  269.76   28.54
 -18  -1 -10  204.20   26.15
 -19  -1 -10   -0.83    6.00
 -19   1 -10   12.91    7.60
 -19  -1 -10    5.07    6.94
 -20  -1 -10  218.15   28.45
 -20   1 -10  226.58   27.71
 -20  -1 -10  216.17   35.48
 -21  -1 -10   -1.98    7.54
 -21   1 -10   -2.64    4.67
 -21  -1 -10  -14.87   12.09
 -22  -1 -10  142.16   30.20
 -22  -1 -10  159.60   25.46
 -22   1 -10  145.03   23.84
 -23  -1 -10   -0.29    5.46
 -23   1 -10    2.22    5.88
 -23  -1 -10  -16.12   13.19
 -24   1 -10   88.38   20.03
 -24  -1 -10  106.93   29.37
 -24  -1 -10  120.75   23.71
 -25  -1 -10   -6.74    8.43
 -25  -1 -10   11.86    9.47
 -26  -1 -10   82.03   26.98
 -28  -2  10   -4.01   12.33
 -28   2  10   -0.39   13.57
 -27  -2  10   19.27   12.55
 -27   2  10   57.60   22.17
 -26  -2  10    5.50    6.74
 -26   2  10   -9.14    9.24
 -25  -2  10   75.09   22.22
 -25   2  10   68.72   24.39
 -24  -2  10   11.24    9.23
 -24   2  10    6.57    6.55
 -23  -2  10   95.97   23.97
 -23   2  10   88.28   24.90
 -22  -2  10   39.46   16.27
 -22   2  10   20.08   12.60
 -21  -2  10  186.11   32.20
 -21   2  10  180.05   33.26
 -20  -2  10    8.54    8.24
 -20   2  10    0.84    6.90
 -19  -2  10   71.37   13.12
 -19  -2  10   65.21   19.23
 -19   2  10   70.29   20.46
 -18  -2  10   27.99    8.54
 -18  -2  10   41.36   14.30
 -18   2  10   21.54   10.30
 -17  -2  10  172.39   18.78
 -17   2  10  218.07   23.64
 -17  -2  10  117.74   23.42
 -17   2  10  209.28   31.99
 -16  -2  10   13.73    5.78
 -16   2  10   11.63    6.26
 -16  -2  10    5.05    6.41
 -16   2  10   15.58    9.16
 -15  -2  10   31.74    7.48
 -15   2  10   50.21   11.60
 -15  -2  10   46.21   14.71
 -15   2  10   41.90   13.92
  14  -2 -10    9.50    4.35
 -14  -2  10   10.60    4.36
 -14   2  10   11.56    5.37
 -14  -2  10    3.88    4.42
 -14   2  10   10.13    7.44
  13  -2 -10   41.61    9.11
 -13  -2  10   30.16   10.38
 -13   2  10   26.59    8.04
  12  -2 -10   18.21    5.91
 -12  -2  10   25.44   10.54
 -12   2  10   12.30    4.82
  11  -2 -10   76.94   11.79
 -11  -2  10   61.07   14.12
 -11   2  10   67.23   11.73
  10  -2 -10    5.56    3.44
 -10  -2  10    7.45    3.44
 -10  -2  10    1.33    5.58
 -10   2  10   11.21    5.22
   9  -2 -10  103.59   12.99
  -9  -2  10  122.28   13.02
  -9   2  10  111.86   14.95
  -9  -2  10  109.80   17.12
  -8   2  10    5.96    4.59
   8  -2 -10    7.03    4.00
  -8  -2  10    7.20    5.35
  -8  -2  10    4.78    3.35
   7  -2 -10  201.89   17.88
  -7  -2  10  186.88   20.39
  -7  -2  10  185.01   15.08
   7   2 -10  198.49   13.52
   6   2 -10   10.03    3.23
  -6  -2  10   13.70    3.68
   6  -2 -10   11.62    4.51
  -6  -2  10   19.58    6.52
   5   2 -10  142.11   10.90
   5  -2 -10  154.06   15.47
  -5  -2  10  143.60   15.42
  -5  -2  10  122.97   11.63
   4   2 -10    8.43    3.87
  -4  -2  10    8.60    3.42
  -4  -2  10    8.41    4.69
   4  -2 -10    4.04    2.50
  -3  -2  10  297.97   18.50
   3   2 -10  300.65   15.59
  -3  -2  10  321.89   19.08
   3  -2 -10  279.38   20.85
  -2  -2  10   18.00    4.73
   2   2 -10   15.89    3.62
  -2  -2  10   15.38    3.75
   2  -2 -10   17.79    5.74
  -1  -2  10   80.69    6.33
   1   2 -10  103.81    9.23
  -1  -2  10  103.83   11.58
   1  -2 -10   96.02   12.79
   0  -2  10   12.34    4.26
   0  -2 -10   22.63    6.57
   0   2 -10   10.13    2.75
  -1  -2 -10   70.39   11.00
  -1   2 -10   77.75    8.76
  -2   2 -10   32.80    5.88
  -2  -2 -10   25.76    6.93
   3   2  10  173.68   15.81
  -3   2 -10  157.78   13.34
  -3  -2 -10  171.25   18.06
   4   2  10   13.20    3.93
  -4   2 -10   11.22    4.13
  -4  -2 -10    9.24    4.52
   5   2  10   61.47   10.13
  -5  -2 -10   60.64   11.43
  -5   2 -10   71.47   10.08
  -6  -2 -10   11.88    4.87
  -6   2 -10   12.36    5.43
   6   2  10   18.33    6.54
  -7  -2 -10  114.62   16.99
  -7   2 -10  115.19   14.52
   7   2  10  120.29   15.27
  -8  -2 -10   20.50    8.09
   8   2  10   12.75    5.51
  -8   2 -10    9.95    5.15
   9   2  10  129.47   17.40
  -9  -2 -10  125.35   18.74
  -9   2 -10  130.38   17.65
  10   2  10    5.05    4.75
 -10   2 -10    5.18    3.65
 -10  -2 -10    3.10    5.77
 -11   2 -10   43.02   10.09
 -11   2 -10   61.63    8.21
  11   2  10   72.34   14.19
 -11  -2 -10   64.06   14.02
 -12  -2 -10   18.80    9.26
 -12   2 -10    7.09    4.58
  12   2  10    8.84    6.40
 -12   2 -10   18.07    5.41
 -13   2 -10  121.60   13.94
 -13  -2 -10   99.84   18.63
 -13   2 -10   86.09   17.59
 -14   2 -10    8.53    6.80
 -14   2 -10    7.40    5.03
 -14  -2 -10   13.18    7.76
 -15   2 -10  104.59   15.18
 -15  -2 -10   69.05   17.32
 -16   2 -10   13.02    6.64
  16   2  10   13.39    5.98
 -16  -2 -10   -6.61   10.37
 -17  -2 -10  126.92   25.10
 -17   2 -10  140.62   19.73
  17   2  10  113.16   20.69
 -18  -2 -10   -4.32    9.60
 -18   2 -10   -8.12    7.53
  18   2  10    1.77    5.46
 -19  -2 -10   99.44   18.57
 -19   2 -10  135.25   21.21
 -19  -2 -10  129.95   27.01
  19   2  10  103.73   21.36
 -20  -2 -10    7.51    5.12
 -20   2 -10   26.11   13.18
 -20  -2 -10   14.17   11.02
 -21  -2 -10   60.22   16.43
 -21   2 -10   69.50   16.27
 -21  -2 -10   92.25   25.04
 -22  -2 -10   31.39   13.32
 -22  -2 -10   12.97    7.46
 -22   2 -10    7.69    5.29
 -23  -2 -10   67.23   21.03
 -23  -2 -10   79.33   19.98
 -23   2 -10   59.62   16.59
 -24  -2 -10   38.85   14.54
 -24  -2 -10   -5.50    9.30
 -25  -2 -10   45.88   16.09
 -25  -2 -10   41.10   17.64
 -26  -2 -10   45.60   23.35
 -28  -3  10   -6.40   14.28
 -28   3  10   -6.76   13.50
 -27  -3  10   18.21   13.54
 -27   3  10   37.83   20.26
 -26  -3  10   30.73   15.17
 -26   3  10    2.97    7.22
 -25  -3  10    0.88   12.26
 -25   3  10   -0.70   12.86
 -24  -3  10   -2.59    6.13
 -24   3  10   -8.93   15.65
 -23  -3  10   24.27   12.94
 -23   3  10   47.56   18.43
 -22  -3  10    0.08    8.79
 -22   3  10    1.93    8.32
 -21  -3  10   36.20   15.69
 -21   3  10   49.35   19.68
 -20  -3  10   13.30    9.86
 -20   3  10   -4.08    8.45
 -20  -3  10    1.57    2.60
 -19  -3  10   17.50    6.60
 -19  -3  10   16.21   10.23
 -19   3  10   24.16   11.80
 -18  -3  10   -5.16    5.45
 -18  -3  10    0.94    5.64
 -18   3  10   -4.93   10.91
 -17  -3  10   40.94    9.17
 -17  -3  10   39.09   14.88
 -17   3  10   38.36   13.56
 -16  -3  10   88.57   13.27
 -16  -3  10   70.90   17.37
 -16   3  10   81.63   15.25
  15  -3 -10   15.01    6.55
 -15  -3  10   14.75    5.20
 -15  -3  10    9.75    6.58
 -15   3  10   17.31    6.65
  14  -3 -10   12.80    6.31
 -14  -3  10   12.76    7.47
 -14   3  10   10.10    4.82
  13  -3 -10   17.45    6.12
 -13  -3  10   25.81   11.11
 -13   3  10   44.01   10.45
  12  -3 -10   19.23    6.76
 -12  -3  10   11.15    7.54
 -12   3  10   11.49    5.78
  11  -3 -10   23.64    6.84
 -11  -3  10   18.17    4.79
 -11  -3  10   14.80    6.24
 -11   3  10   13.69    5.87
  10  -3 -10   35.19    8.23
 -10  -3  10   26.00    5.91
 -10  -3  10   33.28   10.44
 -10   3  10   35.52    9.36
  -9   3  10   27.69    7.19
   9  -3 -10   29.40    7.59
  -9  -3  10   34.05    9.69
  -9  -3  10   28.27    6.06
  -8   3  10   10.84    5.19
   8  -3 -10   19.64    6.54
  -8  -3  10   20.91    6.94
  -8  -3  10   13.53    4.09
  -7   3  10   40.35    9.03
   7  -3 -10   43.42    9.02
  -7  -3  10   60.81   11.76
  -7  -3  10   44.12    6.90
  -6  -3  10    2.63    2.62
  -6  -3  10    2.18    3.68
   6  -3 -10    4.52    4.12
  -6   3  10   -2.18    2.45
  -5  -3  10   53.57    9.88
   5  -3 -10   55.45   10.50
  -4  -3  10    2.01    2.47
  -4  -3  10    3.26    2.42
  -4   3  10    8.82    4.89
   4  -3 -10    2.17    3.30
   4   3 -10    4.33    2.06
  -3  -3  10   17.98    4.26
   3   3 -10   20.75    3.64
  -3  -3  10   26.15    5.49
   3  -3 -10   25.32    7.51
   2   3 -10   27.65    4.10
  -2  -3  10   27.72    4.68
  -2  -3  10   21.40    4.50
   2  -3 -10   26.92    7.42
   1  -3 -10   33.46    8.25
   1   3 -10   38.03    4.77
  -1  -3  10   40.88    6.47
   0  -3 -10   26.25    7.74
   0   3 -10   29.84    4.35
  -1  -3 -10   48.48    9.92
  -1   3 -10   58.93    6.35
   1   3  10   63.04   12.92
  -2   3 -10    4.50    2.17
  -2  -3 -10   -0.40    3.84
   2   3  10    6.87    5.27
   3   3  10   43.31   11.68
  -3   3 -10   43.90    6.26
  -3  -3 -10   41.39    9.55
   4   3  10   18.41    5.99
   4   3  10   23.37    9.47
  -4   3 -10   21.39    4.65
  -4  -3 -10   22.25    7.12
   5   3  10   35.63    8.51
  -5  -3 -10   57.86   11.68
  -5   3 -10   51.04    8.32
  -6   3 -10   39.27    7.65
   6   3  10   42.33    9.62
  -6  -3 -10   37.24   10.52
  -7  -3 -10   28.35    8.86
   7   3  10   25.04    8.10
  -7   3 -10   20.90    5.63
  -8   3 -10   31.44    8.08
  -8  -3 -10   17.12    8.06
   8   3  10   30.38    9.90
  -9   3 -10   29.47    8.57
  -9  -3 -10   36.16   10.85
   9   3  10   21.94    7.60
 -10   3 -10   12.86    3.14
  10   3  10   13.07    6.14
 -10  -3 -10   12.72    7.56
 -10   3 -10   17.87    7.48
 -11   3 -10   19.27    4.95
 -11   3 -10   12.38    6.94
 -11  -3 -10   30.10   10.61
 -12   3 -10    7.63    4.10
 -12   3 -10   28.82   17.56
 -12  -3 -10    5.50    5.80
 -13  -3 -10   31.15   10.79
 -13   3 -10   42.08    8.75
 -13   3 -10   37.03   12.07
 -14  -3 -10    4.50    4.44
 -14   3 -10    3.46    3.47
  14   3  10    0.71    5.55
 -15   3 -10   30.20    8.20
 -15  -3 -10   34.34   14.29
  15   3  10   25.95    9.47
 -16   3 -10   -3.64    5.22
  16   3  10   -1.68    6.06
 -17   3 -10   24.07    8.92
 -17  -3 -10   23.21   13.34
  17   3  10   23.08   10.46
 -18   3 -10   31.12   11.04
  18   3  10   24.01    9.43
 -18  -3 -10   32.50   14.20
 -19   3 -10    9.69    6.95
  19   3  10   11.75   10.15
 -19  -3 -10   26.16   13.32
 -20  -3 -10   30.56   14.36
 -20   3 -10   10.16    6.72
 -21  -3 -10    4.69    8.20
 -21   3 -10   14.50    7.40
 -22  -3 -10   -0.06    9.03
 -22   3 -10   -1.91    6.15
 -23  -3 -10   12.20    7.75
 -23  -3 -10   21.86   14.42
 -24  -3 -10   17.75   10.55
 -24  -3 -10   12.19   10.51
 -25  -3 -10   -7.89    9.19
 -25  -3 -10    4.70    9.39
 -26  -3 -10   -6.46    5.72
 -28  -4  10  -11.00   13.39
 -27  -4  10   10.14   12.39
 -27   4  10   -4.34    8.87
 -26  -4  10   26.35   13.18
 -26   4  10   41.57   19.41
 -25  -4  10   37.11   17.18
 -25   4  10    6.93   10.19
 -24  -4  10   22.30   11.07
 -24   4  10   31.31   16.22
 -23  -4  10   13.83   11.48
 -23   4  10   26.43   15.21
 -22  -4  10   23.54   13.55
 -22   4  10   51.06   20.21
 -21  -4  10   60.07   19.97
 -21   4  10   34.69   18.49
 -20  -4  10   50.58   10.96
 -20  -4  10   49.77   16.78
 -20   4  10   56.89   19.34
 -19  -4  10   19.97    8.03
 -19  -4  10   25.75   12.38
 -19   4  10   24.66   14.65
 -18  -4  10    6.51    2.95
 -18  -4  10   47.86   16.51
 -17  -4  10    3.60    3.08
 -17  -4  10   24.95   11.59
  17  -4 -10   14.97    6.65
  16  -4 -10   41.47   10.54
 -16  -4  10   37.34    8.36
 -16  -4  10   39.27   13.28
  15  -4 -10    6.22    5.81
 -15  -4  10    6.58    3.32
 -15   4  10    9.10    5.57
 -15  -4  10    0.40    5.27
  14  -4 -10   40.76    8.96
 -14  -4  10   32.75   11.44
 -14   4  10   34.83    9.79
  13  -4 -10    0.79    2.66
 -13  -4  10    5.40    6.72
 -13   4  10    1.35    4.67
  12  -4 -10   54.23   10.80
 -12  -4  10   45.54    8.13
 -12  -4  10   56.20   13.76
 -12   4  10   49.65   11.60
  11  -4 -10    1.99    3.00
 -11  -4  10    2.39    1.82
 -11  -4  10   -3.21    4.35
 -11   4  10   -3.95    5.33
 -10   4  10   56.16   12.17
  10  -4 -10   51.40   10.56
 -10  -4  10   53.75    8.10
 -10  -4  10   42.08   10.57
  -9   4  10    2.38    4.26
   9  -4 -10    1.32    3.17
  -9  -4  10    3.89    6.09
  -9  -4  10    1.32    1.95
  -8   4  10   72.09   13.41
  -8  -4  10   85.59    9.39
   8  -4 -10   80.94   12.67
  -8  -4  10   79.10   14.14
  -7   4  10   41.17   10.26
  -7  -4  10   37.64    9.18
   7  -4 -10   32.44    7.53
  -7  -4  10   38.59    5.92
  -6  -4  10   75.73   12.24
  -6   4  10   86.48   14.53
  -6  -4  10   90.71    8.64
   6  -4 -10   79.52   12.74
  -5  -4  10   32.20    5.00
  -5   4  10   32.47    9.18
   5  -4 -10   34.03    8.40
  -5  -4  10   36.08    8.03
  -4  -4  10   64.06    6.70
  -4  -4  10   76.55   10.39
  -4   4  10   73.53   13.61
   4  -4 -10   69.41   11.93
  -3  -4  10   52.92    7.57
  -3  -4  10   43.30    5.58
   3  -4 -10   42.30    9.15
  -3   4  10   55.91   11.49
  -2   4  10   17.54    6.51
  -2  -4  10   23.91    3.98
   2  -4 -10   24.41    6.87
   1   4 -10    0.74    0.63
   1  -4 -10   -0.32    2.70
  -1   4  10    1.80    4.37
   0   4 -10   48.85    3.98
   0  -4 -10   50.50   10.06
   0   4  10   56.36   13.23
  -1  -4 -10    0.98    3.66
  -1   4 -10    4.73    1.43
   1   4  10    6.32    5.62
   2   4  10   44.26   11.99
  -2  -4 -10   41.01    9.87
  -2   4 -10   39.50    4.60
  -3   4 -10   31.31    4.59
  -3  -4 -10   52.07   12.77
   3   4  10   38.28   11.55
   4   4  10  111.26   15.99
  -4  -4 -10  101.22   15.51
  -4   4 -10   90.42    8.37
   4   4  10   83.78   17.15
   5   4  10    6.07    3.92
   5   4  10   15.76    8.35
  -5  -4 -10   10.96    5.88
  -5   4 -10    4.57    2.25
  -6   4 -10   44.69    7.39
   6   4  10   32.80    9.00
  -6  -4 -10   38.86   11.17
  -7  -4 -10    2.07    4.88
  -7   4 -10    2.96    3.81
  -8   4 -10   39.71    8.48
  -8  -4 -10   41.17   10.78
  -9  -4 -10   -4.35    4.02
  -9   4 -10    1.87    4.26
 -10   4 -10   33.36    5.11
 -10   4 -10   43.02   10.88
 -10  -4 -10   40.83   11.92
 -11   4 -10    6.90    5.78
 -11   4 -10   -0.59    1.73
 -11  -4 -10    5.30    4.27
 -12   4 -10   22.35    5.70
  12   4  10   40.18   12.30
 -12  -4 -10   41.40   13.83
 -13   4 -10   14.93    5.60
  13   4  10   21.56    9.27
 -13  -4 -10   15.27    9.26
 -14   4 -10   41.60    9.34
  14   4  10   16.14    4.86
 -14  -4 -10   53.39   15.56
 -15  -4 -10    3.09    5.18
 -15   4 -10   36.87   10.56
  15   4  10   27.81   11.32
 -16  -4 -10   18.02    9.84
 -16   4 -10   19.24    7.62
  16   4  10   17.09    9.73
 -17  -4 -10   20.26    9.80
 -17   4 -10    9.49    6.25
  17   4  10   31.68   13.44
 -18   4 -10   36.75   11.11
 -18  -4 -10   36.81   16.10
  18   4  10   46.09   14.64
 -19   4 -10   -3.33    5.79
 -19  -4 -10   22.89   13.86
 -20   4 -10   39.05   11.66
 -20  -4 -10   26.59   13.58
 -21   4 -10   15.10    8.43
 -21  -4 -10    1.51   12.12
 -22  -4 -10   27.26   14.38
 -23  -4 -10   29.19   17.19
 -24  -4 -10    1.29   12.20
 -27  -5  10   26.79   18.34
 -27   5  10   17.41   16.09
 -26  -5  10   29.06   16.17
 -26   5  10   27.37   16.62
 -25  -5  10   37.23   17.17
 -25   5  10   35.51   18.57
 -24  -5  10   20.30   11.57
 -24   5  10   30.44   16.97
 -23  -5  10   16.62   12.50
 -23   5  10   41.81   19.86
 -22  -5  10   73.70   22.70
 -22   5  10   93.33   28.23
 -21  -5  10   26.75   11.43
 -21   5  10   71.52   23.47
 -20  -5  10   99.64   15.40
 -20  -5  10   98.42   23.30
 -19  -5  10   31.21    8.84
 -19  -5  10   26.37   11.89
 -18  -5  10   26.70    7.18
 -18  -5  10   49.88   16.33
  18  -5 -10   40.22   10.52
  17  -5 -10   16.77    7.89
 -17  -5  10    9.17    4.86
 -17  -5  10    8.04    7.22
  17   5 -10   11.71    8.86
  16  -5 -10   53.43   11.91
 -16  -5  10   54.76    9.76
 -16  -5  10   35.34   12.06
  16   5 -10   46.06   14.09
  15  -5 -10   56.65   11.45
 -15  -5  10   56.99    9.69
 -15  -5  10   61.96   15.65
  15   5 -10   56.27   15.51
  14  -5 -10   12.53    5.86
 -14  -5  10   14.45    8.75
  14   5 -10    1.59    5.41
  13  -5 -10   57.48   11.96
 -13  -5  10   79.67   17.43
  13   5 -10   74.05   16.53
 -13   5  10   60.85   12.55
  12  -5 -10   24.39    7.91
 -12  -5  10   21.65    5.57
 -12  -5  10   24.24   10.21
  12   5 -10   27.83   10.05
 -12   5  10   22.85    8.66
 -11   5  10   78.65   14.86
 -11  -5  10   71.03    9.28
  11  -5 -10   78.08   13.18
 -11  -5  10   90.87   17.05
  11   5 -10   80.87   15.83
 -10   5  10   55.20   12.36
 -10  -5  10   50.03    7.54
 -10  -5  10   56.01   13.18
  10  -5 -10   45.26    9.99
  10   5 -10   36.95   10.95
  -9   5  10   94.65   16.47
  -9  -5  10   92.10    9.47
  -9  -5  10   98.74   16.49
   9  -5 -10   87.45   13.69
   9   5 -10   65.28   13.41
  -8   5  10   93.99   15.49
  -8  -5  10   90.13    9.16
  -8  -5  10  103.24   15.98
   8  -5 -10   86.58   13.49
   8   5 -10   94.17   15.29
  -7  -5  10   97.72   14.83
  -7   5  10   85.49   15.66
  -7  -5  10   80.26    7.86
   7  -5 -10   84.02   13.90
   7   5 -10   69.41   12.61
  -6  -5  10  112.82   15.03
   6  -5 -10  103.07   15.21
  -6   5  10   90.15   15.89
  -6  -5  10  105.99    8.45
   6   5 -10   86.78   13.25
  -5  -5  10   75.34   11.79
  -5   5  10   73.74   14.42
   5  -5 -10   79.82   12.99
  -5  -5  10   60.77    5.82
   5   5 -10   66.68   11.34
  -4  -5  10  114.93    6.84
   4  -5 -10  135.54   16.78
   4   5 -10  138.31   15.03
  -4   5  10  138.15   18.98
   3   5 -10   32.83    6.70
   3  -5 -10   42.14   10.28
  -3   5  10   39.62   11.27
  -2   5  10   72.51   14.71
   2   5 -10   55.28    8.06
   2  -5 -10   43.06    9.87
   1  -5 -10   44.38   10.20
  -1   5  10   50.86   12.57
   1   5 -10   24.91    4.73
   0  -5 -10   87.12   14.38
   0   5  10  106.82   18.67
   0   5 -10   72.01    7.06
  -1  -5 -10   56.59   11.93
   1   5  10   45.67   13.03
   2   5  10   94.17   18.22
  -2  -5 -10  124.79   17.25
  -3  -5 -10   50.57   11.49
   3   5  10   35.34   11.89
  -4  -5 -10   42.69   10.74
   4   5  10   39.47   12.64
  -4   5 -10   28.85    3.81
   5   5  10   57.77   14.53
  -5   5 -10   38.14    5.24
  -5  -5 -10   55.40   12.04
  -6   5 -10   26.28    5.21
  -6  -5 -10   22.30    8.02
  -7   5 -10   32.67    6.60
  -7  -5 -10   39.89   11.66
  -8  -5 -10   39.32   11.89
  -8   5 -10   36.24    7.34
   8   5  10   47.40   11.52
  -9  -5 -10   25.65    9.48
   9   5  10   29.44   10.04
  -9   5 -10   17.60    3.76
  -9   5 -10   39.82    8.41
 -10  -5 -10   38.17   12.89
  10   5  10   30.60   11.27
 -10   5 -10   26.46    5.25
 -10   5 -10   31.47    8.74
 -11  -5 -10   55.12   15.15
  11   5  10   40.72   12.60
 -11   5 -10   44.13    7.68
 -12   5 -10   31.03    7.08
  12   5  10    8.89    7.58
 -12  -5 -10   21.37   10.12
 -13   5 -10   16.52    5.72
  13   5  10   11.29    7.79
 -13  -5 -10   13.32    9.37
 -14   5 -10   76.80   12.51
  14   5  10   68.48   18.52
 -14  -5 -10   68.50   18.21
 -15   5 -10    2.30    4.72
  15   5  10   12.96    9.08
 -15  -5 -10    8.12    7.31
 -16   5 -10  104.80   16.17
  16   5  10   70.44   19.38
 -16  -5 -10   89.67   20.80
 -17  -5 -10   11.14    9.30
 -17   5 -10   22.93    8.92
  17   5  10   12.75    6.70
 -18  -5 -10   58.28   19.50
 -18   5 -10   47.08   12.31
 -19  -5 -10   12.54    9.15
 -19   5 -10   14.89    5.93
 -20  -5 -10   59.57   20.59
 -20   5 -10   33.46   11.99
 -21  -5 -10   27.84   14.13
 -22  -5 -10   16.46   10.73
 -23  -5 -10   39.88   18.48
 -27  -6  10   18.40   13.60
 -26  -6  10   33.26   17.56
 -26   6  10   35.00   15.53
 -25  -6  10   49.85   19.22
 -25   6  10   69.34   24.58
 -24  -6  10   27.47   13.73
 -24   6  10   29.65   20.30
 -23  -6  10   55.29   18.71
 -23   6  10   73.06   25.73
 -22  -6  10   13.33   11.19
 -21  -6  10   64.44   20.29
 -20  -6  10   14.86    5.76
 -20  -6  10   22.23   11.89
 -19  -6  10   56.30   11.22
 -19  -6  10   66.38   18.24
  18  -6 -10   13.87    6.98
 -18  -6  10    3.64    2.26
 -18  -6  10   -0.92    7.01
  17  -6 -10   52.15   12.22
 -17  -6  10   38.56    8.57
 -17  -6  10   65.61   17.34
  16  -6 -10    7.37    6.49
 -16  -6  10    7.35    4.03
 -16  -6  10   -4.27    6.76
  16   6 -10   -6.01    5.90
  15  -6 -10  124.24   17.74
 -15  -6  10   84.75   19.47
  15   6 -10  124.20   23.39
  14  -6 -10   33.79    9.36
 -14  -6  10   37.52   12.70
  14   6 -10   39.17   12.72
 -13  -6  10   40.24    7.64
  13  -6 -10   48.59   10.80
 -13  -6  10   49.95   13.83
  13   6 -10   35.57   12.50
 -12  -6  10   55.70    8.49
  12  -6 -10   58.27   12.00
 -12  -6  10   48.29   13.13
  12   6 -10   63.55   15.65
 -11  -6  10   69.45    9.08
 -11   6  10   79.42   15.56
  11  -6 -10   83.71   14.13
 -11  -6  10   76.75   15.74
  11   6 -10   68.70   15.67
 -10  -6  10   68.59    8.53
 -10   6  10   61.84   14.14
 -10  -6  10   74.45   15.22
  10  -6 -10   52.96   11.34
  10   6 -10   64.33   14.86
  -9  -6  10   89.53    9.25
  -9   6  10   88.21   16.30
  -9  -6  10   87.24   15.42
   9  -6 -10   88.79   14.45
   9   6 -10  109.61   18.36
  -8  -6  10   40.75   10.34
  -8   6  10   49.74   12.58
   8  -6 -10   50.37   11.24
  -8  -6  10   47.51    6.14
   8   6 -10   45.60   12.10
  -7  -6  10  141.71   18.13
   7  -6 -10  132.79   17.28
  -7  -6  10  129.82    9.22
   7   6 -10  122.00   17.90
  -7   6  10  132.23   19.66
  -6  -6  10   48.70   10.60
  -6   6  10   51.40   12.04
  -6  -6  10   32.79    3.94
   6  -6 -10   38.53    9.27
   6   6 -10   36.64   10.04
  -5   6  10  142.88   20.65
   5  -6 -10  129.84   17.12
   5   6 -10  121.21   16.66
   4   6 -10   10.10    4.73
   4  -6 -10    4.38    4.56
  -4   6  10   17.55    8.07
  -3   6  10  113.85   18.56
   3   6 -10   98.70   12.82
   3  -6 -10   92.23   14.55
  -2   6  10   31.03    9.71
   2   6 -10   15.81    4.93
   2  -6 -10   29.03    8.61
  -1   6  10  267.09   29.23
   1   6 -10  239.79   18.30
   1  -6 -10  270.24   25.71
   0  -6 -10   15.29    7.59
   0   6 -10    9.61    3.94
   0   6  10   13.80    6.57
  -1   6 -10  153.69   12.50
   1   6  10  187.10   26.18
  -1  -6 -10  198.01   22.32
  -2  -6 -10   33.37   10.15
   2   6  10   32.14   11.11
  -2   6 -10   38.48    5.71
  -3   6 -10   61.49    6.67
  -3  -6 -10   77.47   14.18
   3   6  10   65.89   16.51
   4   6  10   29.37    9.38
  -4  -6 -10   40.59   10.97
  -4   6 -10   20.40    3.58
   4   6  10   16.22    7.27
  -5   6 -10   98.80    5.11
   5   6  10  131.30   19.88
  -5  -6 -10  122.85   18.92
  -5   6 -10   91.41    7.11
   5   6  10  142.09   24.31
  -6   6 -10   35.77    4.05
   6   6  10   28.78   10.15
  -6   6 -10   30.67    4.13
  -6  -6 -10   30.33    9.76
  -6   6 -10   15.05    2.94
  -6   6 -10   28.04    4.34
  -7   6 -10   63.03    6.02
  -7   6 -10   45.10    5.17
   7   6  10   57.84   13.93
  -7   6 -10   39.06    5.92
  -7  -6 -10   74.04   15.34
  -8   6 -10   33.86    7.00
   8   6  10   27.52   10.96
  -8   6 -10   17.73    3.84
  -8  -6 -10   16.15    8.10
  -8   6 -10   29.84    4.87
  -9  -6 -10   64.46   14.82
   9   6  10   84.73   17.33
  -9   6 -10   50.37    6.97
  -9   6 -10   80.81   11.37
  -9   6 -10   79.70    8.29
 -10  -6 -10   20.12    9.35
  10   6  10   20.31    9.82
 -10   6 -10   12.97    3.97
 -10   6 -10   35.86    9.80
 -10   6 -10   24.69    5.52
 -11  -6 -10   62.25   17.02
  11   6  10   50.16   14.69
 -11   6 -10   46.92    8.16
 -12  -6 -10   20.01   11.11
  12   6  10   22.38   10.63
 -12   6 -10    6.37    4.37
 -13  -6 -10   47.30   14.55
  13   6  10   64.59   19.15
 -13   6 -10   68.46   11.44
  14   6  10   -3.26    5.26
 -14  -6 -10    4.45    5.61
  15   6  10   55.34   17.32
 -15   6 -10   79.48   13.02
 -15  -6 -10   81.90   21.01
 -16   6 -10   23.72    8.26
 -16  -6 -10   11.36    9.70
 -17   6 -10   50.28   11.92
 -17  -6 -10   56.07   17.32
 -18   6 -10    4.93    7.44
 -18  -6 -10   -2.76    8.25
 -18   6 -10    5.55    3.67
 -19  -6 -10   77.84   20.93
 -19   6 -10   60.31   14.27
 -20  -6 -10   14.53   10.70
 -21  -6 -10   21.14   21.88
 -22  -6 -10   19.65   16.04
 -26  -7  10   41.74   19.20
 -25  -7  10  -13.90    8.82
 -25   7  10   25.57   19.85
 -24  -7  10   17.29   12.28
 -23  -7  10   20.70   11.02
 -22  -7  10   32.80   14.30
 -21  -7  10    6.10   10.13
 -20  -7  10   20.73    6.99
 -20  -7  10    6.45    7.45
 -19  -7  10   -0.60    2.05
 -19  -7  10    8.79    9.02
  19  -7 -10    4.76    5.11
  18  -7 -10   45.27   11.73
 -18  -7  10   35.98    8.58
 -18  -7  10   38.17   14.59
 -17  -7  10    2.22    2.85
  17  -7 -10    1.47    5.21
 -17  -7  10    5.65    7.95
 -16  -7  10   56.90    9.93
  16  -7 -10   80.13   14.79
 -16  -7  10   70.46   18.17
  15  -7 -10    5.12    4.24
 -15  -7  10   -3.62    6.67
  15   7 -10   10.12    6.50
  14  -7 -10   89.60   15.70
 -14  -7  10   92.10   19.68
  14   7 -10   84.57   19.59
  13  -7 -10    8.85    5.94
 -13  -7  10   19.64    5.15
  13   7 -10   13.19    9.47
 -13  -7  10   31.23   12.18
 -12  -7  10   62.88    8.83
  12  -7 -10   69.76   13.56
 -12  -7  10   57.28   14.46
  12   7 -10   59.33   15.25
 -11  -7  10   23.90    5.55
 -11  -7  10   14.05    7.71
  11   7 -10   10.27    5.67
  11  -7 -10   17.69    7.16
 -10  -7  10   55.38    7.44
 -10  -7  10   50.89   12.44
  10  -7 -10   61.95   12.66
  10   7 -10   63.56   16.21
  -9  -7  10    6.22    5.01
  -9  -7  10   21.25    4.31
   9  -7 -10   12.93    5.87
   9   7 -10    8.18    6.38
  -8  -7  10   73.02   14.47
  -8  -7  10   65.10    6.70
   8  -7 -10   58.67   12.18
   8   7 -10   70.51   16.01
  -7   7  10    0.47    4.24
   7  -7 -10    8.45    3.79
  -7  -7  10    3.28    2.05
   7   7 -10   13.11    6.66
  -7  -7  10    7.72    2.11
   6  -7 -10   53.32   11.46
  -6   7  10   76.20   15.56
   6   7 -10   72.75   14.72
   5   7 -10    6.95    5.37
   5  -7 -10    1.71    5.29
  -5   7  10   -0.59    3.90
   4   7 -10   29.57    9.36
   4  -7 -10   41.42   10.38
  -4   7  10   49.37   13.10
  -3   7  10    2.96    5.12
   3   7 -10    6.11    4.44
   3  -7 -10    0.28    4.04
  -2   7  10  173.66   24.25
   2   7 -10  155.61   17.91
   2  -7 -10  154.16   19.75
   1  -7 -10    9.88    6.60
  -1   7  10    5.68    5.93
   1   7 -10   19.23    6.69
   0   7 -10  130.04   15.11
   0  -7 -10  148.71   19.89
   0   7  10  104.02   19.95
   1   7  10   -0.16    5.53
  -1  -7 -10   10.72    6.20
  -1   7 -10   10.64    5.57
   2   7  10   70.65   18.18
  -2   7 -10   68.49    9.83
  -2  -7 -10   67.04   14.14
  -3  -7 -10    9.10    6.59
  -3   7 -10    9.62    3.56
   3   7  10   -3.93    6.25
   4   7  10   90.22   17.93
  -4   7 -10   61.12    8.50
  -4  -7 -10   67.60   14.31
   5   7  10   13.43    6.59
  -5   7 -10    5.50    2.55
  -5  -7 -10   13.88    7.68
  -6   7 -10   74.68    8.92
   6   7  10   84.57   17.12
  -6  -7 -10   63.53   14.38
  -7   7 -10   11.15    4.01
  -7   7 -10   12.32    3.13
   7   7  10   -1.74    5.54
  -7   7 -10   14.43    2.65
  -7  -7 -10   14.83    8.09
  -8   7 -10   47.95    7.03
  -8   7 -10   55.78    5.97
   8   7  10   46.91   13.17
  -8  -7 -10   54.19   14.14
  -9   7 -10    9.39    3.12
   9   7  10    9.87    8.38
  -9   7 -10    7.94    4.02
  -9   7 -10   12.02    4.84
  -9  -7 -10   10.45    8.49
 -10  -7 -10   37.20   12.79
 -10   7 -10   53.93    7.05
  10   7  10   62.36   16.40
 -10   7 -10   29.99    6.85
 -11   7 -10    4.08    1.77
 -11  -7 -10    0.27    6.08
  11   7  10    7.16    7.23
 -11   7 -10    1.56    3.13
 -12   7 -10   48.69    7.58
 -12  -7 -10   44.02   13.96
  12   7  10   35.30   12.41
 -12   7 -10   49.35    9.08
 -13   7 -10    3.95    2.12
 -13  -7 -10   -2.01    6.84
 -13   7 -10   -2.30    4.03
 -14   7 -10   57.76    9.22
 -14  -7 -10   55.57   16.23
 -14   7 -10   42.20    9.86
 -15   7 -10    3.86    2.93
 -15  -7 -10    2.66    7.83
 -15   7 -10   -2.69    4.39
 -16   7 -10   42.01    8.64
 -16  -7 -10   44.01   16.18
 -16   7 -10   24.10    8.50
 -17   7 -10   -5.59    5.20
 -17  -7 -10    3.98    7.09
 -18  -7 -10   69.81   22.07
 -19  -7 -10   -3.26   10.86
 -20  -7 -10   37.59   14.69
 -21  -7 -10   21.40   13.31
 -25  -8  10   14.88   13.79
 -24  -8  10   13.71    6.97
 -23  -8  10    3.74    7.90
 -22  -8  10   -7.49    5.93
 -21  -8  10   30.54   14.81
 -20  -8  10   -3.44    5.93
  20  -8 -10    2.76    4.03
  19  -8 -10    1.94    4.06
 -19  -8  10    5.73    3.55
 -19  -8  10    1.05    6.73
 -18  -8  10    0.87    2.49
  18  -8 -10    7.16    6.73
 -18  -8  10    3.09    5.40
 -17  -8  10   30.76    7.17
  17  -8 -10   26.61    8.92
 -17  -8  10   29.99   11.97
 -16  -8  10    5.66    3.71
  16  -8 -10    5.39    5.21
 -16  -8  10   -4.92    7.38
  15  -8 -10   13.00    5.98
 -15  -8  10   13.47    8.12
  14  -8 -10   -5.02    3.26
 -14  -8  10    7.51    8.96
  14   8 -10  -10.41   10.65
 -13  -8  10   34.68    6.63
  13  -8 -10   30.40    9.69
 -13  -8  10   36.17   12.04
  13   8 -10   34.56   13.22
 -12  -8  10    0.83    1.98
  12  -8 -10    8.73    6.31
 -12  -8  10    5.48    7.02
  12   8 -10    0.22    4.68
 -11  -8  10   33.52    5.93
 -11  -8  10   35.32   11.45
  11  -8 -10   37.88   10.72
  11   8 -10   19.66    8.77
 -10  -8  10    9.79    8.86
 -10  -8  10    1.35    1.66
  10  -8 -10    3.51    3.18
  10   8 -10    2.86    5.32
  -9  -8  10   29.16    6.29
  -9  -8  10   28.99    4.77
   9  -8 -10   30.05    9.00
   9   8 -10   32.54   11.07
  -8  -8  10    1.90    1.23
   8  -8 -10    7.46    5.17
   8   8 -10   10.39    8.25
  -8  -8  10    1.69    1.98
   7  -8 -10    6.51    4.85
   7   8 -10   15.20    9.71
   6  -8 -10   22.38    8.12
   6   8 -10   19.80    9.96
   5   8 -10    4.33    4.24
   5  -8 -10    9.57    5.68
   4   8 -10    5.33    3.81
   4  -8 -10   12.55    6.62
   3   8 -10   69.39   14.25
   3  -8 -10   78.69   14.70
   2   8 -10   -0.59    4.50
   2  -8 -10    4.30    5.10
   1   8 -10   29.71    8.79
   1  -8 -10   50.78   12.78
   0  -8 -10   -1.36    4.54
   0   8 -10    5.85    3.92
  -1  -8 -10   27.70    9.90
  -1   8 -10   24.27    7.05
  -2  -8 -10   12.94    8.28
  -2   8 -10    0.32    2.42
  -3  -8 -10   62.06   13.76
  -3   8 -10   34.86    7.32
   4   8  10   -1.36    6.63
  -4   8 -10    7.40    4.42
  -4  -8 -10    2.80    4.06
   5   8  10   44.95   14.84
  -5   8 -10   35.85    8.04
  -5  -8 -10   41.42   11.17
  -6   8 -10    3.55    2.80
   6   8  10    4.37    4.66
  -6  -8 -10   -2.54    5.29
  -7   8 -10   43.87    8.44
   7   8  10   28.80   10.62
  -7  -8 -10   33.94   11.16
  -8   8 -10    1.38    1.06
  -8  -8 -10   -2.21    4.17
  -8   8 -10   -1.81    1.60
   9   8  10    9.77    7.70
  -9   8 -10   15.01    3.13
  -9  -8 -10    7.76    6.09
  -9   8 -10   12.28    3.83
 -10   8 -10    6.43    2.88
 -10  -8 -10   -5.64    6.25
 -11  -8 -10   38.55   12.92
 -11   8 -10   39.29    6.15
 -11   8 -10   19.62    6.12
 -12  -8 -10    4.67    6.49
 -12   8 -10   11.13    3.71
 -12   8 -10   -2.94    4.92
 -13  -8 -10   34.04   12.46
 -13   8 -10   45.67    9.91
 -13   8 -10   50.10    7.82
 -14  -8 -10    0.88    6.15
 -14   8 -10   10.72    5.91
 -15  -8 -10    9.37    7.03
 -15   8 -10    1.49    3.53
 -16  -8 -10   20.01   13.01
 -16   8 -10    5.95    3.84
 -17  -8 -10   33.94   13.75
 -18  -8 -10   17.14    8.04
 -19  -8 -10   12.11    8.22
 -20  -8 -10  -14.58   12.97
 -24  -9  10    4.81    9.14
 -23  -9  10   14.97   11.30
 -22  -9  10  -17.36   11.43
 -21  -9  10   -1.53    6.76
 -20  -9  10   23.98   13.92
  20  -9 -10    5.49    5.39
  19  -9 -10    6.06    5.57
 -19  -9  10    8.21    8.62
  18  -9 -10   12.85    7.93
 -18  -9  10    1.67    5.07
  17  -9 -10    6.46    3.65
 -17  -9  10    0.92    7.25
  16  -9 -10    2.33    3.39
 -16  -9  10   -6.83    8.78
 -16  -9  10   -0.78    1.99
  15  -9 -10   16.38    7.48
 -15  -9  10   51.78   21.09
  14  -9 -10    7.65    5.48
 -14  -9  10   -1.63    5.75
 -13  -9  10   16.53    4.58
 -13  -9  10   14.90    9.52
  13  -9 -10   13.33    7.28
  13   9 -10    6.86    7.55
 -12  -9  10    8.41    3.07
  12  -9 -10    7.76    4.43
  12   9 -10  -10.43    8.41
 -12  -9  10    1.15    3.75
 -11  -9  10   17.98    4.40
  11  -9 -10   14.95    7.22
  11   9 -10   21.83   11.22
 -11  -9  10   18.25    6.27
 -10  -9  10    7.88    3.67
 -10  -9  10   15.03    3.68
  10  -9 -10    7.00    8.12
  10   9 -10   10.70    8.04
  -9  -9  10    8.25    3.48
   9  -9 -10   19.34    8.47
  -9  -9  10   14.71    3.31
   9   9 -10    7.68    7.08
  -8  -9  10    2.54    1.25
   8  -9 -10    4.86    5.20
   8   9 -10    3.79    5.52
  -8  -9  10    1.29    1.47
   7  -9 -10   33.77    9.92
   7   9 -10   17.20    8.78
   6   9 -10    1.05    5.76
   6  -9 -10    2.02    4.12
   5   9 -10   12.99    8.49
   5  -9 -10   15.42    7.34
   4   9 -10  129.09   19.94
   4  -9 -10   48.68   12.04
   3   9 -10   10.67    4.16
   3  -9 -10   14.75    7.55
   2   9 -10   -2.46    7.79
   2  -9 -10   13.78    6.55
   1   9 -10   13.64    6.07
   1  -9 -10    9.46    5.20
   0  -9 -10    6.10    5.35
   0   9 -10   -5.26    6.49
  -1  -9 -10    9.75    6.18
  -1   9 -10   24.09    6.26
  -2  -9 -10    2.30    6.23
  -2   9 -10   14.62    5.72
  -3  -9 -10   18.17    8.84
  -3   9 -10   26.09    8.03
  -4   9 -10    3.15    3.25
  -4  -9 -10   10.88    7.88
  -5   9 -10   19.18    6.66
  -5  -9 -10   26.71   11.11
  -6   9 -10    5.09    3.71
  -6  -9 -10   18.76    9.28
  -7   9 -10   40.00    9.58
  -7  -9 -10   12.99    6.55
  -8  -9 -10   15.70   11.61
  -9   9 -10   13.19    3.49
  -9  -9 -10   17.68   10.19
  -9   9 -10   14.91    3.22
 -10   9 -10    8.70    2.87
 -10  -9 -10   -2.52    5.87
 -11  -9 -10   35.88   13.43
 -12  -9 -10   18.48   11.54
 -13  -9 -10   21.15    9.55
 -13   9 -10    2.39    3.57
 -14  -9 -10   -3.05    7.85
 -14   9 -10   -9.89    5.75
 -15  -9 -10   19.08   12.52
 -16  -9 -10   12.73    9.51
 -17  -9 -10   10.22   11.94
 -18  -9 -10    6.50    5.93
 -23 -10  10   -6.21    9.09
 -22 -10  10   -0.55    9.67
 -21 -10  10    3.08    8.84
  21 -10 -10   -0.71    5.25
  20 -10 -10   23.07    9.60
 -20 -10  10   31.37   14.43
  19 -10 -10    3.00    3.62
 -19 -10  10   -1.92    9.22
  18 -10 -10   12.86    9.15
 -18 -10  10   11.06    6.77
  17 -10 -10    6.84    5.63
 -17 -10  10    0.17    7.64
  16 -10 -10   25.80    9.47
 -16 -10  10   28.35   13.32
  15 -10 -10   -0.57    4.21
 -15 -10  10  -12.33    7.37
 -14 -10  10   23.27    8.12
  14 -10 -10   51.87   13.96
  13 -10 -10   -7.33    7.54
 -13 -10  10    7.25    4.38
  12 -10 -10   31.53    9.57
 -12 -10  10   33.18    8.68
 -11 -10  10   -3.25    2.17
  11 -10 -10    1.95    3.78
 -11 -10  10    0.69    2.45
  11  10 -10   -7.24    4.71
 -10 -10  10   32.73    6.64
 -10 -10  10   31.54    5.07
  10 -10 -10   29.90   12.90
  10  10 -10   24.81   10.87
  -9 -10  10   -0.60    0.92
   9 -10 -10    0.12    4.17
  -9 -10  10   -2.15    1.81
   9  10 -10    1.14    5.92
  -8 -10  10   17.64    2.68
   8 -10 -10   20.24   12.61
   8  10 -10   43.55   14.65
   7 -10 -10   -1.18    4.01
   7  10 -10    0.88    4.96
   6  10 -10    2.71    4.53
   6 -10 -10    8.49    9.76
   5  10 -10   -7.07    7.46
   5 -10 -10    1.19    5.82
   4  10 -10   33.79   12.39
   4 -10 -10   11.43    9.91
   3  10 -10    4.40    7.94
   3 -10 -10    0.18    4.31
   2  10 -10   15.82    9.66
   2 -10 -10   25.06    9.45
   1  10 -10    3.25    4.70
   1 -10 -10    2.86    6.33
   0 -10 -10   26.30   10.16
   0  10 -10   14.77    7.71
  -1 -10 -10    6.31    6.49
  -1  10 -10   -4.84    3.85
  -2 -10 -10   37.85   12.39
  -2  10 -10   31.21   10.84
  -3 -10 -10   -0.45    4.32
  -3  10 -10    0.75    5.20
  -4  10 -10   37.05    9.63
  -4 -10 -10   40.53   12.69
  -5  10 -10   -1.30    4.18
  -5 -10 -10  -10.50    6.91
  -6  10 -10   50.02   11.85
  -6 -10 -10   45.06   13.91
  -7  10 -10    1.62    4.34
  -7 -10 -10   15.71   10.04
  -8 -10 -10   39.28   14.33
  -8  10 -10   40.78   10.12
  -9 -10 -10   -0.85    6.59
 -10 -10 -10   46.00   16.06
 -11 -10 -10   20.73   11.24
 -12 -10 -10   35.55   13.59
 -13 -10 -10    5.36    7.69
 -14 -10 -10   19.05   11.11
 -15 -10 -10   15.10   10.77
 -16 -10 -10   11.10    9.60
 -17 -10 -10   -7.44    5.65
 -22 -11  10    4.58    9.75
 -21 -11  10   17.87   12.90
 -20 -11  10   -5.09    9.25
  19 -11 -10   17.68    9.47
 -19 -11  10   31.31   16.57
  18 -11 -10    0.86    4.08
  17 -11 -10   25.89   10.30
 -17 -11  10   92.44   18.58
  16 -11 -10    9.73    7.05
 -16 -11  10    2.12    3.33
  15 -11 -10   66.04   15.38
 -15 -11  10   31.77   10.31
  14 -11 -10    1.66    4.31
 -14 -11  10   -0.23    3.98
 -13 -11  10   46.88   10.26
  13 -11 -10   27.81    9.99
 -12 -11  10   -4.23    4.76
  12 -11 -10    1.21    3.84
  11 -11 -10   43.85   12.75
 -11 -11  10   33.91    7.47
  10 -11 -10    0.77    4.91
 -10 -11  10    1.75    1.91
   9 -11 -10   28.24   12.25
   9  11 -10   54.16   16.65
   8 -11 -10   -0.96    6.95
   8  11 -10  -11.10    8.47
   7 -11 -10   16.05   11.61
   7  11 -10   31.00   12.55
   6  11 -10  -13.70    8.82
   6 -11 -10   -1.02    4.96
   5  11 -10    8.48    6.94
   5 -11 -10    7.94    9.30
   4  11 -10    6.51    9.05
   4 -11 -10    2.48    8.82
   3  11 -10   36.37   12.89
   3 -11 -10   15.35   10.79
   2  11 -10    1.02    4.12
   2 -11 -10   -1.60    4.16
   1  11 -10   28.78   10.15
   1 -11 -10   25.40    9.78
   0  11 -10   60.18   17.88
   0 -11 -10   -0.16    3.84
  -1 -11 -10   28.75   11.22
  -1  11 -10   22.57    8.57
  -2 -11 -10    5.56    7.00
  -2  11 -10   -2.46    7.33
  -3 -11 -10   36.69   11.34
  -3  11 -10   18.13    7.61
  -4 -11 -10    5.61    6.28
  -4  11 -10   -1.58    5.46
  -5 -11 -10   36.58   12.99
  -5  11 -10   39.11   11.66
  -6  11 -10   -1.63    4.77
  -6 -11 -10   -5.81    6.11
  -7 -11 -10   12.82    8.90
  -8 -11 -10    2.84    6.60
  -9 -11 -10   32.09   12.37
 -10 -11 -10   13.05    9.72
 -11 -11 -10   18.09    9.91
 -12 -11 -10   29.06   11.79
 -13 -11 -10   27.74   13.10
 -14 -11 -10   18.70   12.96
 -15 -11 -10    0.89    8.32
  17 -12 -10   -3.84    3.72
  16 -12 -10   26.15   10.39
  15 -12 -10  -16.62    8.23
  14 -12 -10   31.02   10.98
  13 -12 -10   15.84    8.86
  12 -12 -10   41.60   13.09
  11 -12 -10    3.04    4.86
  10 -12 -10    6.76   10.04
   9 -12 -10    3.00    8.01
   8 -12 -10   15.06   10.41
   7 -12 -10    2.11    4.15
   6  12 -10   29.82   12.08
   6 -12 -10    3.60    9.62
   5  12 -10   12.47    8.95
   5 -12 -10    0.96    6.34
   4  12 -10   12.57    9.79
   4 -12 -10   10.90   10.52
   3  12 -10   -3.37    7.64
   3 -12 -10   -0.61    6.91
   2  12 -10   30.22   11.34
   2 -12 -10   25.16   11.37
   1  12 -10   13.47    6.97
   1 -12 -10   -2.78    5.67
   0  12 -10   21.44   10.48
   0 -12 -10   26.44   10.99
  -1  12 -10   -6.69    6.15
  -1 -12 -10    5.42    4.42
  -2 -12 -10   20.03   10.07
  -2  12 -10   10.77    7.86
  -3 -12 -10    5.28    7.90
  -3  12 -10   -0.43    4.03
  -4 -12 -10    3.69    6.10
  -5 -12 -10    0.96    8.14
  -6 -12 -10    0.36    6.65
  -7 -12 -10    2.28    4.81
  -8 -12 -10   19.27   11.13
  -9 -12 -10   -2.27    5.46
 -10 -12 -10   14.09    9.50
 -11 -12 -10   -9.25   12.02
 -12 -12 -10   31.45   13.54
  14 -13 -10    3.55    4.82
  13 -13 -10   24.84   10.94
  12 -13 -10    2.52    3.98
  11 -13 -10   21.90   10.50
  10 -13 -10  -10.51    6.43
   9 -13 -10    0.90   15.19
   8 -13 -10    5.73    9.06
   7 -13 -10    6.99    9.12
   6 -13 -10   -1.92    5.36
   5 -13 -10    9.13   10.48
   4 -13 -10    0.19    6.61
   3 -13 -10    3.15    5.28
   2 -13 -10    0.96    4.74
   1 -13 -10    3.05    6.61
   0 -13 -10    2.80    5.52
  -1 -13 -10   24.50   10.30
  -2 -13 -10    6.58    6.26
  -3 -13 -10  -16.04    9.20
  -4 -13 -10    1.63    7.01
  -5 -13 -10    2.86    6.76
  -6 -13 -10   -7.03    8.55
  -7 -13 -10    3.79    4.98
  -8 -13 -10    2.02    4.46
  -9 -13 -10   19.30   13.17
  10 -14 -10    1.93    4.68
   9 -14 -10    2.26    8.78
   8 -14 -10    2.47    6.23
   7 -14 -10    0.23    3.84
   6 -14 -10    3.92    8.98
   5 -14 -10   -0.62    4.62
   4 -14 -10    4.53    7.93
   3 -14 -10    0.76    3.99
   2 -14 -10    7.16    6.16
   1 -14 -10    2.68    6.92
   0 -14 -10    3.08    8.62
  -1 -14 -10   -6.88    6.56
  -2 -14 -10    2.84    5.93
  -3 -14 -10   -1.92    6.27
  -4 -14 -10  -11.16    8.14
  -5 -14 -10    3.68    6.33
 -28   0  11   42.02   20.03
 -27   0  11   -1.27   11.02
 -26   0  11    9.77   13.58
 -25   0  11    5.86   10.52
 -24   0  11   -0.27    6.92
 -23   0  11   -5.69    7.63
 -22   0  11   -3.42   13.16
 -21   0  11   -1.45    5.44
 -20   0  11    1.52    7.23
 -19   0  11   -9.17    7.92
 -18   0  11    2.56    3.81
 -18   0  11   12.33   11.02
 -17   0  11    1.29    4.17
 -17   0  11    0.50    5.70
 -16   0  11    3.24    4.04
 -16   0  11   -1.55    6.97
 -15   0  11   -5.69    4.47
 -15   0  11   -6.81    9.63
 -14   0  11    4.34    2.61
 -14   0  11    2.05    5.18
 -13   0  11   -0.92    3.37
 -13   0  11    3.23    5.47
 -12   0  11    1.35    3.64
 -12   0  11    6.03    6.37
  11   0 -11    2.23    3.03
 -11   0  11    1.07    2.48
 -11   0  11    2.11    4.23
  10   0 -11   -0.94    2.09
 -10   0  11    9.57    7.65
   9   0 -11    0.65    2.35
  -9   0  11   -3.75    4.89
   8   0 -11   -1.54    2.57
  -8   0  11   -1.58    3.60
   7   0 -11    0.32    1.85
  -7   0  11    6.58    4.93
  -6   0  11    3.01    2.35
   6   0 -11    2.06    2.37
  -6   0  11   -2.96    4.07
   5   0 -11   -0.96    2.81
  -5   0  11   -3.37    3.02
  -5   0  11    2.30    2.97
   4   0 -11    2.15    2.27
  -4   0  11   -2.53    3.21
   3   0 -11   -0.88    2.18
  -3   0  11    2.81    4.41
  -2   0  11    1.55    2.57
   2   0 -11    2.25    3.39
  -1   0  11   -1.45    2.77
   1   0 -11    1.56    2.93
   0   0  11   -2.86    3.78
   0   0 -11   -1.41    2.78
  -1   0 -11    0.75    2.46
   1   0  11    1.51    3.00
  -2   0 -11   -2.55    3.49
   2   0  11    2.21    4.71
   2   0  11    0.86    1.15
  -3   0 -11    1.05    2.63
   3   0  11   -0.88    1.73
   4   0  11   -0.07    1.13
  -4   0 -11    0.01    2.32
   5   0  11    2.20    1.56
  -5   0 -11    9.93    4.51
   6   0  11    1.39    2.09
  -6   0 -11   -3.11    5.24
  -7   0 -11   -3.95    3.76
   7   0  11   -0.87    1.31
  -8   0 -11   -1.77    3.79
   8   0  11    2.34    2.30
  -9   0 -11   -5.15    5.32
   9   0  11    6.13    3.39
 -10   0 -11   -4.97    5.17
 -11   0 -11    3.20    5.21
 -12   0 -11    9.37    6.59
 -13   0 -11   -4.31    5.53
 -14   0 -11   -0.72    7.52
 -15   0 -11    4.25    6.18
 -16   0 -11    1.00    6.17
 -17   0 -11    7.29    7.43
 -18   0 -11   -2.96    5.24
 -18   0 -11    1.17    9.47
 -19   0 -11   12.09    8.36
 -19   0 -11    0.94    5.51
 -20   0 -11    3.94    5.61
 -20   0 -11    6.52   15.79
 -21   0 -11   16.65   10.24
 -21   0 -11    3.84    5.98
 -22   0 -11    0.26   10.86
 -22   0 -11    0.53    7.39
 -23   0 -11  -13.33   10.53
 -24   0 -11   17.34   16.35
 -25   0 -11   -4.93   13.84
 -26   0 -11  -21.99   15.90
 -28  -1  11   27.22   18.41
 -28   1  11   10.32    9.73
 -27  -1  11   43.63   21.39
 -27   1  11   -2.37    8.90
 -26  -1  11   27.26   13.19
 -26   1  11   26.75   15.39
 -25  -1  11   17.67   15.01
 -25   1  11    1.71    6.89
 -24  -1  11   69.79   21.40
 -24   1  11   64.97   21.35
 -23  -1  11   17.73   11.24
 -23   1  11   17.88    6.13
 -22  -1  11   42.01   18.01
 -22   1  11   31.75   15.87
 -21  -1  11    5.77    8.78
 -21   1  11    1.63    6.84
 -20  -1  11   37.22   15.30
 -20   1  11   23.50   14.13
 -19  -1  11   95.39   22.54
 -19   1  11  108.35   23.83
 -18  -1  11  344.06   29.23
 -18  -1  11  340.84   40.98
 -18   1  11  280.70   37.97
 -17  -1  11   21.34    7.35
 -17   1  11   15.56    6.97
 -17  -1  11    6.06    5.19
 -17   1  11   17.51    9.73
 -16  -1  11   62.04   11.72
 -16   1  11   52.91   11.95
 -16  -1  11   68.02   17.45
 -16   1  11   40.78   13.54
 -15  -1  11    3.01    3.04
 -15   1  11    0.02    2.67
 -15  -1  11   16.04    9.77
 -15   1  11   18.64    9.61
 -14  -1  11   48.52   10.23
 -14   1  11   51.89   10.97
 -14  -1  11   75.13   17.36
 -14   1  11   62.82   15.61
  13  -1 -11    2.88    3.85
 -13  -1  11    4.80    3.58
 -13   1  11    3.26    3.07
 -13  -1  11    5.59    6.16
 -13   1  11   -0.07    6.33
  12  -1 -11   60.80   10.00
 -12  -1  11   58.11   14.46
 -12   1  11   70.31   12.58
 -12   1  11   64.66   15.10
  11  -1 -11   12.54    4.60
 -11  -1  11   22.92    9.50
 -11   1  11   13.33    5.52
 -11   1  11    7.30    5.86
  10  -1 -11  124.24   14.38
 -10   1  11  107.59   14.57
 -10  -1  11  114.03   18.48
 -10   1  11   95.71   17.33
  10   1 -11  117.26   12.72
  -9   1  11   31.88    7.97
   9   1 -11   33.17    7.06
   9  -1 -11   34.14    7.46
  -9  -1  11   29.79    8.93
   8   1 -11  111.65   11.72
   8  -1 -11  113.16   13.14
  -8  -1  11  130.61   17.52
  -8  -1  11  121.97   13.88
  -7  -1  11   10.41    4.71
   7   1 -11    9.46    3.12
   7  -1 -11   12.98    4.51
  -7  -1  11   17.86    6.97
   6   1 -11  114.04   11.50
   6  -1 -11  110.13   12.94
  -6  -1  11  125.96   15.66
  -6  -1  11  108.49   12.53
   5   1 -11   57.07    8.10
  -5  -1  11   53.36    8.70
   5  -1 -11   55.09    9.10
  -5  -1  11   59.09   10.11
  -4  -1  11  220.87   18.32
   4   1 -11  211.46   15.44
   4  -1 -11  219.31   18.29
  -4  -1  11  234.22   18.81
  -3  -1  11   62.75   10.09
   3   1 -11   58.24    8.16
   3  -1 -11   53.57    9.24
  -3  -1  11   63.69    9.61
  -2  -1  11  178.86   17.12
   2   1 -11  190.29   14.97
   2  -1 -11  218.03   18.12
  -2  -1  11  175.14   13.65
  -1  -1  11   37.97    5.66
   1   1 -11   40.00    7.43
  -1  -1  11   42.28    8.50
   1  -1 -11   42.82    8.02
   0  -1  11  105.24    7.31
   0   1 -11  136.02   12.87
   0  -1 -11  143.92   15.27
   0  -1  11  120.65   14.80
  -1   1 -11    8.75    3.52
  -1  -1 -11   14.14    6.26
   1  -1  11   12.80    5.67
  -2   1 -11   66.28    9.55
  -2  -1 -11   74.50   12.10
   2   1  11   69.86    9.02
   3   1  11   32.60    6.29
  -3   1 -11   29.97    6.64
  -3  -1 -11   37.80    8.62
   4   1  11   98.63   10.88
  -4   1 -11  104.21   12.86
  -4  -1 -11   99.29   13.99
   5   1  11    5.28    3.71
  -5  -1 -11    2.65    3.21
  -5   1 -11    7.63    4.49
   6   1  11   48.83    8.45
  -6  -1 -11   54.18   11.19
  -6   1 -11   51.15   10.19
  -7  -1 -11   18.99    7.16
  -7   1 -11    6.31    4.42
   7   1  11    8.53    3.66
  -8  -1 -11   75.75   14.37
  -8   1 -11   84.69   14.11
   8   1  11   93.57   12.81
  -9  -1 -11   32.52    9.78
  -9   1 -11   21.70    8.87
   9   1  11   22.60    7.10
 -10  -1 -11   82.35   15.31
  10   1  11   82.42   13.11
 -10   1 -11   69.02   14.22
 -11   1 -11    0.78    5.50
 -11  -1 -11   -2.04    4.33
  11   1  11    6.97    4.51
 -12   1 -11   53.55   13.92
  12   1  11   37.12    9.41
 -12  -1 -11   52.12   14.67
 -13  -1 -11   17.32   10.52
 -13   1 -11    9.18    6.30
  13   1  11   14.77    6.69
 -14  -1 -11   80.78   18.03
 -14   1 -11   99.31   20.12
  14   1  11   88.05   15.65
 -15   1 -11   31.21   12.68
 -15  -1 -11   35.41   12.66
 -16   1 -11   47.93   11.76
 -16   1 -11   36.84   14.71
 -16  -1 -11   48.26   14.90
 -17   1 -11    5.63    7.38
 -17   1 -11    1.41    8.93
 -17  -1 -11   -0.76    6.92
 -18   1 -11   45.39   15.66
 -18   1 -11   48.66   12.12
 -18  -1 -11   28.27   10.96
 -19  -1 -11   11.50   11.08
 -19   1 -11    2.89    6.37
 -19   1 -11   -1.82    6.93
 -20   1 -11   52.02   12.78
 -20  -1 -11   67.03   20.78
 -20   1 -11   18.64    8.22
 -21  -1 -11   14.71    8.89
 -21  -1 -11    0.93    7.56
 -21   1 -11   -0.72    4.89
 -21   1 -11   -9.93   10.99
 -22  -1 -11   24.21    9.95
 -22   1 -11   23.62   15.42
 -22  -1 -11   15.24   11.35
 -23  -1 -11   38.43   14.48
 -23   1 -11   16.34    7.79
 -23  -1 -11   13.11   12.38
 -24  -1 -11   40.86   17.64
 -24   1 -11   48.31   20.68
 -25   1 -11  -25.09   18.46
 -25  -1 -11    2.67   10.03
 -26   1 -11    0.25   12.08
 -28  -2  11   11.82   14.70
 -28   2  11   -6.54   12.88
 -27  -2  11   65.43   22.98
 -27   2  11  133.87   33.98
 -26  -2  11   -1.38    8.44
 -26   2  11   39.29   17.65
 -25  -2  11   82.49   24.58
 -25   2  11   75.69   25.52
 -24  -2  11   39.15   17.75
 -24   2  11   39.25   17.51
 -23  -2  11  128.79   28.16
 -23   2  11  145.92   32.79
 -22  -2  11    9.89   11.48
 -22   2  11    9.43   11.47
 -21  -2  11  101.54   23.65
 -21   2  11   83.36   23.47
 -20  -2  11   16.26   10.17
 -20   2  11   29.02   14.82
 -19  -2  11  289.39   26.75
 -19  -2  11  275.60   36.90
 -19   2  11  311.70   40.92
 -18  -2  11  235.50   23.69
 -18  -2  11  181.87   30.01
 -18   2  11  200.93   32.41
 -17  -2  11  463.58   32.14
 -17  -2  11  489.49   47.30
 -17   2  11  472.04   48.76
 -16  -2  11   23.88    7.49
 -16  -2  11   27.31   12.13
 -16   2  11   35.44    9.87
 -16   2  11   42.59   15.40
 -15  -2  11  197.72   20.20
 -15   2  11  186.27   21.51
 -15  -2  11  223.06   30.06
 -15   2  11  194.74   29.69
  15  -2 -11  167.20   18.80
  14  -2 -11   25.32    7.07
 -14  -2  11   24.07    7.29
 -14  -2  11   33.31   11.95
 -14   2  11   28.82    7.22
 -14   2  11   39.43   14.42
  13  -2 -11  212.39   20.67
 -13  -2  11  177.69   17.84
 -13  -2  11  164.82   24.51
 -13   2  11  193.55   21.37
  12  -2 -11   47.67    9.62
 -12  -2  11   56.04   14.23
 -12   2  11   46.75   10.38
  11  -2 -11  301.30   23.32
 -11  -2  11  292.86   30.68
 -11   2  11  285.34   25.24
 -10   2  11   59.69   11.55
  10  -2 -11   69.35   11.07
 -10  -2  11   71.49   14.74
 -10  -2  11   68.69   10.59
   9  -2 -11  328.41   23.79
  -9  -2  11  332.98   30.00
  -9  -2  11  303.30   21.36
  -9   2  11  290.12   24.92
  -8   2  11   41.44    9.60
   8  -2 -11   40.08    8.55
  -8  -2  11   39.07   10.11
  -8  -2  11   36.23    7.43
   7   2 -11  320.04   17.74
   7  -2 -11  316.28   23.12
  -7  -2  11  331.13   27.00
  -7  -2  11  315.01   21.11
  -7   2  11  321.34   26.19
   6   2 -11   80.37    8.69
  -6  -2  11   70.76    9.69
  -6   2  11   68.14   12.16
   6  -2 -11   73.46   11.27
  -6  -2  11   71.82   12.34
   5   2 -11  383.33   19.06
   5  -2 -11  385.90   25.47
  -5  -2  11  416.36   26.77
  -5  -2  11  371.03   22.39
  -4  -2  11  111.24   12.32
   4   2 -11  110.33   10.02
  -4  -2  11  121.89   13.59
   4  -2 -11  103.39   13.22
   3   2 -11  439.13   19.98
  -3  -2  11  441.01   24.47
  -3  -2  11  443.96   22.76
   3  -2 -11  446.71   27.36
   2   2 -11  115.88   10.52
  -2  -2  11  111.16    9.66
  -2  -2  11  110.20   12.48
   2  -2 -11  109.52   13.58
   1   2 -11  391.32   19.48
   1  -2 -11  375.66   25.50
  -1  -2  11  374.51   23.65
   0   2 -11   94.82    9.89
   0  -2 -11  101.06   13.21
   0  -2  11   93.78   12.50
  -1   2 -11  235.69   15.92
  -1  -2 -11  241.35   21.07
  -2   2 -11   43.42    7.10
  -2  -2 -11   46.41    9.66
   3   2  11  270.65   28.07
   3   2  11  241.01   19.17
  -3   2 -11  265.02   18.14
  -3  -2 -11  225.77   21.48
   4   2  11   75.98   11.15
  -4   2 -11   67.90    9.62
  -4  -2 -11   74.01   11.93
  -5   2 -11  218.84   18.07
  -5  -2 -11  241.03   22.94
   5   2  11  222.23   19.58
   6   2  11   66.81   11.76
  -6  -2 -11   56.07   11.11
  -6   2 -11   52.70    9.62
  -7  -2 -11  219.00   23.31
  -7   2 -11  239.15   21.15
   7   2  11  215.29   20.86
  -8  -2 -11   44.79   11.03
  -8   2 -11   69.10   12.62
   8   2  11   65.87   12.81
  -9  -2 -11  206.34   25.08
   9   2  11  240.23   23.54
  -9   2 -11  157.28   18.70
 -10  -2 -11   58.54   14.05
  10   2  11   78.93   14.77
 -10   2 -11   60.33   12.79
 -11  -2 -11  206.66   26.05
  11   2  11  189.63   22.39
 -11   2 -11  147.28   20.27
 -12   2 -11   14.84    5.97
  12   2  11   40.16   10.95
 -12  -2 -11   58.22   15.65
 -13  -2 -11  226.20   29.48
 -13   2 -11  198.02   26.35
 -14  -2 -11   82.27   19.55
 -14   2 -11   92.78   19.56
 -14   2 -11   64.47   10.56
 -15   2 -11  220.92   20.82
 -15  -2 -11  190.10   29.14
 -15   2 -11  240.37   32.25
 -16   2 -11   33.84    9.20
 -16  -2 -11   38.65   14.40
  16   2  11   50.10   13.49
 -16   2 -11   60.21   16.77
 -17   2 -11  131.47   18.40
 -17   2 -11  129.48   25.52
 -17  -2 -11  116.86   24.00
  17   2  11  225.04   29.97
 -18   2 -11   37.61   10.04
 -18  -2 -11   43.20   15.41
 -18   2 -11   29.64   16.10
  18   2  11   12.14    8.74
 -19   2 -11  125.79   19.80
 -19   2 -11  140.66   29.61
 -19  -2 -11  104.13   25.05
 -20   2 -11   20.79    8.57
 -20   2 -11   -0.86    9.97
 -21  -2 -11   95.96   26.89
 -21   2 -11   61.85   21.52
 -22  -2 -11   60.65   20.49
 -23  -2 -11   66.08   22.62
 -24  -2 -11   41.99   19.28
 -25  -2 -11  117.09   31.43
 -28  -3  11  146.93   34.20
 -27  -3  11   21.83   11.77
 -27   3  11   48.30   25.99
 -26  -3  11  162.20   33.07
 -26   3  11  134.36   34.27
 -25  -3  11   19.74   13.00
 -25   3  11   34.30   18.15
 -24  -3  11  114.14   27.78
 -24   3  11  121.25   32.13
 -23  -3  11   43.66   17.13
 -23   3  11   67.98   24.39
 -22  -3  11  160.09   31.27
 -22   3  11  164.43   34.80
 -21  -3  11   63.77   20.02
 -21   3  11   70.66   21.51
 -20  -3  11  244.38   36.79
 -20   3  11  257.70   40.54
 -19  -3  11   28.94    8.41
 -19  -3  11   29.98   12.44
 -19   3  11   28.78   15.01
 -18  -3  11  271.93   24.74
 -18  -3  11  305.33   38.18
 -18   3  11  309.58   41.61
 -17  -3  11  208.03   20.76
 -17  -3  11  183.30   29.42
 -17   3  11  265.18   38.30
 -16  -3  11  557.23   33.49
 -16  -3  11  510.71   47.48
  16  -3 -11  572.55   35.68
  15  -3 -11   68.91   12.57
 -15  -3  11   54.45   10.07
 -15  -3  11   45.58   14.47
 -15   3  11   63.67   13.44
  14  -3 -11  310.99   25.54
 -14  -3  11  296.85   23.00
 -14  -3  11  308.15   34.67
 -14   3  11  308.96   28.37
  13  -3 -11   79.44   12.84
 -13  -3  11   56.10   15.25
 -13   3  11   69.45   13.60
  12  -3 -11  357.98   26.69
 -12  -3  11  327.85   33.37
 -12   3  11  390.28   31.32
  11  -3 -11   97.23   13.84
 -11  -3  11   90.06   11.61
 -11  -3  11   94.69   17.98
 -11   3  11  100.39   16.03
  10  -3 -11  368.11   26.41
 -10  -3  11  383.89   33.77
 -10  -3  11  349.76   22.63
 -10   3  11  401.92   31.36
  -9   3  11   92.78   14.81
   9  -3 -11   85.04   12.72
  -9  -3  11   82.55   10.74
  -9  -3  11   70.83   14.36
   8  -3 -11  364.23   26.24
  -8  -3  11  380.46   30.61
  -8  -3  11  361.42   21.43
  -8   3  11  346.35   28.29
   7  -3 -11  106.86   14.01
  -7   3  11  106.18   15.64
  -7  -3  11   97.18   14.78
  -7  -3  11  100.64   11.04
  -6  -3  11  379.31   27.15
   6  -3 -11  366.05   26.05
  -6  -3  11  370.86   20.83
  -6   3  11  373.86   29.72
  -5  -3  11   95.51   12.62
   5  -3 -11  108.46   14.43
  -5   3  11  100.08   15.50
  -5  -3  11  121.51   11.83
   5   3 -11  102.51    8.76
   4   3 -11  370.99   16.08
  -4   3  11  343.12   28.66
  -4  -3  11  348.25   19.75
  -4  -3  11  375.71   22.29
   4  -3 -11  333.17   24.80
  -3   3  11  106.00   16.61
   3   3 -11  102.12    8.43
  -3  -3  11   99.42    9.92
  -3  -3  11  104.97   11.08
   3  -3 -11  105.42   14.15
   2   3 -11  421.15   16.90
  -2  -3  11  396.37   15.84
  -2   3  11  401.41   31.99
   2  -3 -11  404.59   27.83
  -2  -3  11  395.70   21.47
   1   3 -11  135.86    9.70
  -1   3  11  132.15   19.46
   1  -3 -11  126.29   15.90
  -1  -3  11  115.63   11.81
   0   3 -11  380.46   16.81
   0   3  11  395.04   33.08
   0  -3 -11  370.08   27.14
   1   3  11   70.07   14.14
  -1  -3 -11   87.72   13.46
  -1   3 -11   77.66    7.97
  -2   3 -11  403.28   19.17
   2   3  11  414.50   35.10
  -2  -3 -11  371.81   27.81
  -3   3 -11   59.35    7.81
   3   3  11   61.04   10.85
   3   3  11   51.47   12.09
  -3  -3 -11   54.40   11.61
   4   3  11  260.55   29.26
   4   3  11  277.29   22.89
  -4   3 -11  313.60   18.88
  -4  -3 -11  263.45   24.54
   5   3  11  104.43   14.74
  -5  -3 -11  104.44   16.29
  -5   3 -11  119.95   12.30
  -6  -3 -11  459.13   34.07
  -6   3 -11  470.33   25.94
   6   3  11  420.77   30.35
  -7   3 -11  100.71   13.00
   7   3  11  104.92   15.93
  -7  -3 -11   94.43   16.18
  -8  -3 -11  413.44   33.96
   8   3  11  351.40   29.66
  -8   3 -11  393.87   27.32
  -9  -3 -11   92.87   17.14
   9   3  11   91.71   16.45
  -9   3 -11  102.74   14.95
 -10  -3 -11  279.78   30.05
  10   3  11  304.93   29.98
 -10   3 -11  300.01   26.30
 -11   3 -11  108.29   18.38
 -11  -3 -11  122.11   21.24
 -12  -3 -11  323.11   34.09
 -12   3 -11  353.11   32.87
 -13   3 -11  105.89   19.18
 -13   3 -11   81.95   10.37
 -13  -3 -11  109.53   21.02
 -14   3 -11  277.06   20.29
  14   3  11  261.01   31.34
 -14  -3 -11  254.17   32.94
 -14   3 -11  253.34   31.00
 -15  -3 -11   53.21   15.29
 -15   3 -11   62.93   17.03
 -15   3 -11   61.98   10.77
  15   3  11   54.02   15.46
 -16   3 -11  236.45   33.39
 -16   3 -11  173.17   18.76
  16   3  11  227.46   30.72
 -16  -3 -11  212.63   32.07
 -17  -3 -11   63.94   19.39
 -17   3 -11   52.87   11.41
 -17   3 -11   51.76   17.86
  17   3  11   41.31   13.78
 -18   3 -11  195.01   22.50
 -18  -3 -11  183.19   32.01
 -18   3 -11  171.13   31.19
  18   3  11  152.86   25.67
 -19   3 -11   41.97   11.44
 -19  -3 -11   38.01   18.07
 -20  -3 -11  165.40   31.38
 -21  -3 -11    8.57   13.17
 -22  -3 -11  102.20   26.62
 -23  -3 -11   37.37   18.56
 -24  -3 -11   99.75   27.72
 -28  -4  11   29.76   15.44
 -27  -4  11  101.96   27.97
 -27   4  11  236.86   47.88
 -26  -4  11   60.32   22.28
 -26   4  11   62.09   24.50
 -25  -4  11  122.93   29.31
 -25   4  11  138.22   34.28
 -24  -4  11   15.31    7.94
 -24   4  11   19.19   15.33
 -23  -4  11  129.89   27.82
 -23   4  11  154.53   35.97
 -22  -4  11   57.62   19.63
 -22   4  11   89.14   26.36
 -21  -4  11  175.82   32.24
 -21   4  11  256.62   42.10
 -20  -4  11   60.86   11.89
 -20  -4  11   60.45   17.68
 -20   4  11   94.25   26.33
 -19  -4  11  146.54   18.31
 -19  -4  11  154.30   28.59
 -19   4  11  184.98   35.75
 -18  -4  11   11.62    5.46
 -18  -4  11   13.33    9.47
 -17  -4  11  208.50   20.84
 -17  -4  11  246.80   34.03
  17  -4 -11  254.79   25.02
  16  -4 -11  215.64   22.46
 -16  -4  11  195.50   19.26
 -16  -4  11  154.86   26.48
  15  -4 -11  488.50   33.19
 -15  -4  11  461.25   29.03
 -15  -4  11  417.11   42.26
  14  -4 -11   96.37   14.62
 -14  -4  11   65.40   15.83
  13  -4 -11  440.74   31.35
 -13  -4  11  403.22   38.34
 -13   4  11  387.06   32.57
  12  -4 -11  130.39   16.97
 -12  -4  11  118.27   13.19
 -12  -4  11  138.00   22.31
 -12   4  11  134.37   19.46
  11  -4 -11  359.28   27.78
 -11  -4  11  347.17   33.49
 -11  -4  11  370.34   23.01
 -11   4  11  386.94   32.02
 -10   4  11  100.70   16.73
  10  -4 -11   77.81   13.48
 -10  -4  11   83.91   10.81
 -10  -4  11   88.69   16.99
   9  -4 -11  392.03   28.72
  -9  -4  11  362.09   31.30
  -9  -4  11  349.83   20.58
  -9   4  11  362.46   30.39
  -8  -4  11  129.20   17.81
  -8   4  11  118.98   17.58
   8  -4 -11  150.65   17.90
  -8  -4  11  140.95   12.74
  -7  -4  11  384.49   28.81
   7  -4 -11  391.17   27.97
  -7  -4  11  393.01   20.39
  -7   4  11  352.68   30.48
  -6  -4  11  111.51   14.57
  -6   4  11  104.13   16.75
   6  -4 -11   92.43   14.11
  -6  -4  11  119.23   10.77
  -5  -4  11  269.14   20.71
   5  -4 -11  234.27   22.23
  -5  -4  11  246.32   15.13
  -5   4  11  254.71   25.78
  -4  -4  11  106.05    9.57
  -4  -4  11  110.59   12.04
   4  -4 -11  102.66   14.67
  -4   4  11   97.11   16.44
  -3   4  11  273.20   26.93
   3  -4 -11  287.10   24.42
  -3  -4  11  255.45   14.63
  -2   4  11   97.49   16.91
   2  -4 -11   95.92   14.77
   1   4 -11  206.27    9.16
  -1   4  11  245.71   26.83
   1  -4 -11  250.08   23.23
   0   4 -11   38.28    4.13
   0  -4 -11   64.06   12.40
   0   4  11   64.60   14.63
   1   4  11  364.31   33.91
  -1  -4 -11  367.65   28.79
  -2  -4 -11   81.98   13.90
  -2   4 -11   54.31    5.71
   2   4  11   79.89   16.27
  -3   4 -11  300.21   14.79
  -3  -4 -11  314.46   27.16
   3   4  11  325.50   33.32
   4   4  11   65.81   16.19
  -4  -4 -11   73.92   13.96
   4   4  11   77.68   13.99
  -4   4 -11   63.21    7.63
   5   4  11  369.81   29.64
   5   4  11  381.23   37.59
  -5   4 -11  401.01   20.27
  -5  -4 -11  348.14   29.87
  -6   4 -11  132.42   12.77
  -6  -4 -11  114.01   17.68
  -7  -4 -11  359.49   31.82
  -7   4 -11  386.40   23.28
  -8  -4 -11   88.14   16.91
  -8   4 -11   92.48   12.50
  -9  -4 -11  249.46   28.07
  -9   4 -11  348.49   26.02
 -10   4 -11   91.31   14.42
 -10  -4 -11   70.03   15.16
 -11  -4 -11  304.58   33.19
  11   4  11  261.33   30.47
 -11   4 -11  275.51   26.51
 -12   4 -11   77.28    7.76
 -12  -4 -11  100.52   20.20
  12   4  11   93.58   19.01
 -12   4 -11  110.21   17.89
 -13   4 -11  166.80   13.83
  13   4  11  234.07   30.44
 -13  -4 -11  233.75   30.73
 -13   4 -11  272.46   29.58
 -14   4 -11   40.59   11.40
 -14   4 -11   35.79    7.53
  14   4  11   30.51   11.00
 -14  -4 -11   33.60   13.16
 -15   4 -11  208.27   19.47
  15   4  11  158.26   26.86
 -15   4 -11  189.48   27.84
 -15  -4 -11  155.68   26.58
 -16   4 -11   41.71   14.27
 -16   4 -11   52.06   10.82
  16   4  11   32.72   11.02
 -16  -4 -11   18.02   11.18
 -17  -4 -11  168.96   30.06
 -17   4 -11  208.08   22.62
  17   4  11  163.84   27.70
 -18  -4 -11   43.93   16.23
 -18   4 -11   44.96   11.75
 -19  -4 -11   90.67   23.21
 -20  -4 -11   39.22   16.40
 -21  -4 -11   93.17   25.89
 -22  -4 -11   47.71   19.22
 -23  -4 -11  112.23   29.23
 -27  -5  11   76.34   22.21
 -26  -5  11   97.85   27.31
 -26   5  11  179.36   42.49
 -25  -5  11   62.75   21.22
 -25   5  11  105.09   33.75
 -24  -5  11   68.74   20.76
 -24   5  11  167.33   39.37
 -23  -5  11   33.21   14.93
 -23   5  11   34.25   18.93
 -22  -5  11   75.77   22.16
 -22   5  11   93.53   30.11
 -21  -5  11   45.43   15.91
 -21   5  11   69.68   24.81
 -20  -5  11   78.25   13.81
 -20  -5  11   75.75   19.91
 -19  -5  11   31.37    8.03
 -19  -5  11   27.16   10.81
 -18  -5  11   80.19   13.02
 -18  -5  11   75.59   19.93
  18  -5 -11   81.90   14.78
  17  -5 -11   12.76    6.44
 -17  -5  11    0.85    2.70
 -17  -5  11   -4.60    8.02
  16  -5 -11  112.89   17.72
 -16  -5  11  107.17   14.28
 -16  -5  11   84.88   20.36
  15  -5 -11  176.67   20.88
 -15  -5  11  191.06   18.08
 -15  -5  11  195.32   28.23
  14  -5 -11  404.54   31.53
 -14  -5  11  375.31   38.73
  13  -5 -11  112.59   16.30
 -13  -5  11  112.32   19.86
  12  -5 -11  275.72   25.47
 -12  -5  11  267.00   19.45
 -12  -5  11  281.30   31.07
 -11   5  11   97.60   17.52
 -11  -5  11   99.91   11.14
  11  -5 -11  103.11   15.72
 -11  -5  11  104.60   18.29
  11   5 -11   94.59   17.07
  10  -5 -11  271.83   24.68
 -10  -5  11  272.68   28.59
 -10  -5  11  263.82   17.68
 -10   5  11  272.01   28.07
  10   5 -11  220.69   25.12
  -9   5  11  100.23   16.84
  -9  -5  11  102.64   10.76
  -9  -5  11  103.01   16.58
   9  -5 -11   98.70   14.89
   9   5 -11   78.71   14.71
  -8  -5  11  254.33   25.10
   8  -5 -11  220.11   22.22
  -8  -5  11  255.47   15.72
   8   5 -11  219.97   22.70
  -8   5  11  243.66   26.41
  -7  -5  11   90.79   14.50
  -7   5  11   90.05   15.89
   7  -5 -11   76.90   13.16
  -7  -5  11   85.64    8.69
  -6  -5  11  177.57   18.47
   6  -5 -11  163.68   19.08
  -6  -5  11  147.50   10.62
  -6   5  11  174.92   22.14
  -5  -5  11   51.03    5.81
  -5  -5  11   64.10   10.68
   5  -5 -11   54.93   11.49
  -5   5  11   69.44   14.61
  -4   5  11  163.13   22.17
   4  -5 -11  147.00   18.11
  -4  -5  11  105.88    7.31
  -3   5  11   88.44   16.44
   3  -5 -11   82.09   13.61
  -2   5  11   91.02   17.04
   2  -5 -11   77.47   13.38
   1  -5 -11   31.86    9.06
  -1   5  11   40.45   11.26
   0   5  11  392.72   35.89
   0  -5 -11  207.66   22.27
   1   5  11   71.61   16.18
  -1  -5 -11   70.63   13.48
   2   5  11  168.79   24.24
  -2  -5 -11  163.14   20.42
   3   5  11   63.06   16.06
  -3   5 -11   42.27    3.73
  -3  -5 -11   77.52   14.57
   4   5  11  226.18   29.48
  -4  -5 -11  233.73   24.70
  -5   5 -11   26.13    4.38
  -5  -5 -11   36.72   10.73
   5   5  11   30.12   12.15
  -6  -5 -11  183.45   23.14
  -6   5 -11  193.34   13.67
  -7   5 -11   87.17   10.05
   7   5  11   91.09   16.88
  -7  -5 -11  121.98   20.40
  -8   5 -11  167.67   15.40
   8   5  11  140.81   21.13
  -8  -5 -11  137.44   21.14
  -9  -5 -11   57.18   15.87
   9   5  11   69.42   15.23
  -9   5 -11   68.91   10.99
 -10  -5 -11  163.57   24.08
  10   5  11  122.83   21.06
 -10   5 -11  146.54   17.37
 -11  -5 -11   61.21   15.90
  11   5  11   35.21   11.60
 -11   5 -11   49.45   10.66
 -12   5 -11  124.75   18.59
 -12   5 -11   73.54    8.25
 -12  -5 -11  111.15   21.27
  12   5  11  119.03   22.89
 -13   5 -11   13.12    4.18
 -13  -5 -11   19.47    9.15
  13   5  11   31.22   13.27
 -13   5 -11   37.70   12.78
 -14   5 -11   78.42   11.64
 -14  -5 -11   91.09   20.12
  14   5  11   69.96   18.37
 -14   5 -11   93.19   17.75
 -15   5 -11   22.86    7.10
  15   5  11    2.51    5.60
 -15  -5 -11   28.59   13.17
 -16   5 -11   67.77   13.06
  16   5  11   54.87   18.14
 -16  -5 -11   52.38   16.43
 -17   5 -11   15.85    6.93
 -17  -5 -11   15.54    9.97
 -18  -5 -11   70.92   20.01
 -19  -5 -11   34.04   16.06
 -20  -5 -11   53.67   16.76
 -21  -5 -11   35.28   16.40
 -22  -5 -11   41.72   14.37
 -27  -6  11   34.68   17.45
 -26  -6  11   30.47   17.29
 -25  -6  11   45.42   17.09
 -25   6  11   46.72   23.04
 -24  -6  11   28.97   15.54
 -24   6  11   71.08   27.08
 -23  -6  11   -1.87   11.32
 -23   6  11   36.41   20.63
 -22  -6  11   29.59   14.93
 -21  -6  11   27.72   14.11
 -20  -6  11    7.15    4.43
 -20  -6  11   27.98   16.29
 -19  -6  11   13.37    5.51
 -19  -6  11   26.69   13.26
  19  -6 -11   17.80    7.35
  18  -6 -11   13.17    8.00
 -18  -6  11   13.87    5.76
 -18  -6  11   20.11    9.61
  17  -6 -11   18.51    7.31
 -17  -6  11   23.85    6.74
 -17  -6  11    5.39    5.99
  16  -6 -11   -0.57    4.84
 -16  -6  11   -0.98    3.21
 -16  -6  11    1.84    5.14
  16   6 -11    6.95    5.33
  15  -6 -11   47.06   12.00
 -15  -6  11   65.05   16.94
  15   6 -11   71.07   17.80
  14  -6 -11  113.98   17.77
 -14  -6  11   97.46   19.62
  14   6 -11  113.36   21.05
  13  -6 -11  120.12   17.97
 -13  -6  11  106.86   12.55
 -13  -6  11   82.72   17.45
  13   6 -11  134.51   23.39
  12  -6 -11   41.31   10.45
 -12  -6  11   42.53   13.18
 -12  -6  11   56.42    8.73
  12   6 -11   46.80   13.88
  11  -6 -11  112.70   17.09
 -11  -6  11  134.23   12.78
 -11  -6  11  127.53   20.67
  11   6 -11   94.45   18.13
 -10  -6  11   63.16   13.78
  10  -6 -11   60.96   12.44
 -10  -6  11   58.43    8.02
  10   6 -11   39.85   11.39
  -9  -6  11   68.59   13.82
  -9  -6  11   76.69    8.67
   9  -6 -11   71.83   13.64
   9   6 -11   66.78   14.21
  -8  -6  11   32.84    9.00
  -8   6  11   25.33    9.31
   8  -6 -11   35.28    8.75
  -8  -6  11   35.88    5.43
   8   6 -11   28.80    9.74
  -7  -6  11   43.92   10.05
   7  -6 -11   46.55   10.95
  -7   6  11   63.76   14.43
  -7  -6  11   47.69    5.79
   7   6 -11   51.19   11.47
   6  -6 -11   31.74    9.32
  -6  -6  11   25.35    3.44
  -6   6  11   21.69    7.70
   6   6 -11   32.84    8.93
   5  -6 -11   42.93   10.45
  -5   6  11   49.70   13.29
   5   6 -11   38.30    8.50
   4  -6 -11   38.18    9.68
   4   6 -11   30.68    7.35
  -4   6  11   38.84   11.45
  -3   6  11   18.80    9.30
   3   6 -11   18.80    5.89
   3  -6 -11   22.31    7.94
  -2   6  11   34.45   12.14
   2   6 -11   19.63    5.05
   2  -6 -11   20.16    7.66
   1  -6 -11   40.90   10.90
  -1   6  11   35.08   12.76
   1   6 -11   30.16    5.91
   0  -6 -11   41.49   10.38
   0   6  11   42.35   12.52
   0   6 -11   30.23    4.95
   1   6  11   37.00   12.29
  -1  -6 -11   18.83    6.75
  -1   6 -11   15.47    2.93
  -2  -6 -11   62.08   13.56
   2   6  11   55.53   15.32
  -3  -6 -11   62.48   13.53
   3   6  11   62.33   15.82
   4   6  11   46.73   12.21
  -4  -6 -11   24.39    9.01
   4   6  11   49.84   14.06
   5   6  11   48.53   12.88
  -5  -6 -11   60.76   14.35
  -6   6 -11   29.75    3.56
   6   6  11   27.33    9.91
  -6   6 -11   27.42    4.21
  -6  -6 -11   30.88   10.74
  -7   6 -11   37.10    4.60
   7   6  11   38.73   11.49
  -7  -6 -11   29.42   10.70
  -7   6 -11   32.26    5.51
  -8   6 -11   28.19    5.97
   8   6  11   35.74   12.14
  -8  -6 -11   14.84    9.46
  -8   6 -11   27.28    4.42
   9   6  11   28.72   11.75
  -9   6 -11   45.83    8.58
  -9  -6 -11   36.52   12.13
 -10  -6 -11   30.12   10.19
 -10   6 -11   31.83    7.99
  10   6  11   35.72   12.61
 -11  -6 -11   33.45   11.53
 -11   6 -11   25.09    4.83
  11   6  11   36.26   13.51
 -11   6 -11   25.77    7.54
 -12  -6 -11   12.24    7.97
 -12   6 -11   -4.33    4.67
 -12   6 -11    5.59    2.62
  12   6  11   10.06    6.42
 -13   6 -11   21.73    8.39
 -13  -6 -11   35.04   13.15
 -13   6 -11   12.40    4.83
  13   6  11    0.15    6.84
 -14  -6 -11   24.93   13.13
 -14   6 -11   12.17    5.53
  14   6  11   44.28   16.11
 -15  -6 -11   19.64   12.39
 -15   6 -11   14.47    6.33
  15   6  11   23.12   10.09
 -16  -6 -11   25.42   13.71
 -17  -6 -11   47.08   15.72
 -18  -6 -11   14.89   12.06
 -19  -6 -11    3.23    7.47
 -20  -6 -11   26.06   12.67
 -21  -6 -11   36.15   16.52
 -26  -7  11   12.18   14.43
 -25  -7  11   24.39   16.03
 -24  -7  11  -12.45   10.45
 -24   7  11   -4.43   19.38
 -23  -7  11   45.08   17.26
 -22  -7  11    8.99    9.18
 -21  -7  11   -4.19    6.35
 -20  -7  11   -0.40    5.29
  20  -7 -11    6.65    6.67
  19  -7 -11   -3.32    4.63
 -19  -7  11    0.63    3.94
 -19  -7  11    2.99    5.67
  18  -7 -11    3.18    3.78
 -18  -7  11    2.66    2.55
 -18  -7  11    3.31    8.41
  17  -7 -11   -1.14    3.29
 -17  -7  11    6.13    3.43
 -17  -7  11   -0.28    5.69
  16  -7 -11   -5.09    6.22
 -16  -7  11    9.02    6.54
 -16  -7  11   -5.76    8.11
  15  -7 -11    0.68    3.51
 -15  -7  11   -8.73    7.91
  15   7 -11   -6.83    9.27
  14  -7 -11    1.64    3.93
 -14  -7  11   -1.21    6.36
  14   7 -11    4.46    6.41
 -13  -7  11   26.49    6.21
 -13  -7  11   25.62   10.90
  13  -7 -11   16.89    7.52
  13   7 -11   36.34   12.04
  12  -7 -11    9.41    4.84
 -12  -7  11   14.63    7.10
 -12  -7  11   12.42    4.19
  12   7 -11   10.55    7.38
 -11  -7  11   11.67    8.86
  11  -7 -11    9.00    6.25
 -11  -7  11   12.81    4.28
  11   7 -11   13.53    6.34
 -10  -7  11   22.40    8.77
  10  -7 -11   12.92    6.87
 -10  -7  11    9.35    3.31
  10   7 -11   17.75    9.73
  -9  -7  11    9.61    7.52
   9  -7 -11   -0.81    3.05
  -9  -7  11    4.16    2.40
   9   7 -11   18.13    7.39
  -8  -7  11   -2.50    4.59
   8  -7 -11    0.44    3.46
   8   7 -11    8.99    5.18
  -8  -7  11    4.00    1.96
   7  -7 -11   -0.94    3.49
   7   7 -11    3.36    4.08
   6  -7 -11    5.66    5.74
   6   7 -11   -1.87    3.72
   5  -7 -11   -0.98    4.06
   5   7 -11   18.21    7.52
   4   7 -11   -4.15    4.52
   4  -7 -11    0.71    4.07
   3   7 -11    8.61    4.41
   3  -7 -11    4.64    4.59
   2   7 -11   -0.78    3.74
   2  -7 -11    5.78    5.60
   1   7 -11   46.03    8.74
   1  -7 -11   50.27   11.73
   0  -7 -11    6.44    5.84
   0   7 -11   -0.22    3.37
  -1  -7 -11   41.89   11.26
  -1   7 -11   20.96    5.08
  -2  -7 -11    1.56    3.71
  -2   7 -11    0.78    1.64
  -3  -7 -11   19.89    8.17
  -3   7 -11    8.98    2.61
   4   7  11   -3.42    6.21
  -4  -7 -11   -1.52    5.75
  -4   7 -11    0.23    1.31
   5   7  11   10.55    5.44
  -5  -7 -11    6.48    4.78
  -5   7 -11    8.56    2.38
   6   7  11    5.75    5.86
  -6  -7 -11    0.18    5.92
   7   7  11    1.14    4.19
  -7   7 -11    1.86    1.04
  -7   7 -11    2.91    1.11
  -7  -7 -11    4.24    4.82
  -8   7 -11    3.69    1.50
  -8   7 -11   -0.20    1.02
   8   7  11   -8.39    6.60
  -8   7 -11    0.78    0.98
  -8   7 -11    0.55    1.50
  -8  -7 -11    0.81    4.17
  -9   7 -11    8.19    2.71
  -9   7 -11    1.74    1.64
   9   7  11    9.82    9.99
  -9   7 -11    3.71    2.96
  -9   7 -11    0.01    1.24
  -9  -7 -11    0.42    4.69
 -10   7 -11   -0.98    3.27
 -10   7 -11   -0.95    2.20
  10   7  11    4.95    5.92
 -10   7 -11    5.02    2.91
 -10  -7 -11   13.32    8.82
 -11  -7 -11   -2.35   10.28
 -11   7 -11    2.49    2.50
  11   7  11    5.14    7.56
 -11   7 -11   -4.20    4.79
 -11   7 -11   11.75    3.65
 -12  -7 -11    1.60    5.44
 -12   7 -11    3.09    2.46
 -12   7 -11    4.40    4.48
  12   7  11    9.64    5.66
 -12   7 -11    1.44    2.93
 -13   7 -11   12.90    4.11
 -13  -7 -11   -8.14    8.03
 -13   7 -11   12.01    5.11
 -13   7 -11    2.33    2.66
 -14  -7 -11    7.48    6.42
 -14   7 -11   -2.93    4.80
 -15  -7 -11   15.31   10.62
 -16  -7 -11   19.16   10.32
 -17  -7 -11   -1.55    5.21
 -18  -7 -11    3.24    6.02
 -19  -7 -11   25.83   14.09
 -20  -7 -11   12.06   10.35
 -25  -8  11    9.60    9.06
 -24  -8  11   13.85   13.63
 -23  -8  11   -5.31    6.40
 -22  -8  11    2.86    7.44
 -21  -8  11   14.94   13.48
 -20  -8  11   -9.10    9.33
  20  -8 -11    2.42    5.24
  19  -8 -11    2.56    4.87
 -19  -8  11   11.51    9.24
  18  -8 -11    1.07    4.98
 -18  -8  11   16.57   12.22
  17  -8 -11   10.64    7.48
 -17  -8  11    6.36    3.36
 -17  -8  11   12.17    9.86
  16  -8 -11   -9.59    5.13
 -16  -8  11    0.49    2.92
 -16  -8  11    3.76    4.98
  15  -8 -11    7.72    5.62
 -15  -8  11   14.15    8.17
  14  -8 -11   -0.73    3.63
 -14  -8  11    4.50    5.57
 -13  -8  11    9.47    5.99
  13  -8 -11   15.91    7.16
  13   8 -11   18.02    9.85
 -12  -8  11   19.10    8.84
 -12  -8  11    3.83    2.24
  12  -8 -11   -0.76    4.32
  12   8 -11    6.48    6.56
 -11  -8  11    2.98    5.53
 -11  -8  11   -2.41    2.55
  11  -8 -11   -1.50    4.57
  11   8 -11    5.75    7.26
  10  -8 -11    0.01    3.59
 -10  -8  11   -0.10    1.72
  10   8 -11    2.98    5.31
   9  -8 -11    0.61    3.56
  -9  -8  11    3.30    1.66
   9   8 -11    9.51    7.61
  -9  -8  11   -1.18    2.27
   8  -8 -11    3.72    3.56
   8   8 -11    2.95    3.76
   7  -8 -11   -6.47    6.08
   7   8 -11   12.21    7.07
   6  -8 -11    5.06    3.76
   6   8 -11   18.50    9.96
   5  -8 -11    2.16    4.17
   5   8 -11    8.42    6.78
   4   8 -11   -8.95    7.30
   4  -8 -11   -7.20    4.88
   3   8 -11    1.26    3.41
   3  -8 -11    8.42    4.23
   2   8 -11    8.16    6.32
   2  -8 -11    2.58    3.33
   1   8 -11    9.68    5.41
   1  -8 -11    7.90    4.54
   0  -8 -11    1.87    4.14
   0   8 -11    5.57    4.48
  -1  -8 -11   18.71    8.19
  -1   8 -11    6.49    3.50
  -2  -8 -11    3.18    3.57
  -2   8 -11    3.86    3.39
  -3  -8 -11   -0.04    3.95
  -3   8 -11   -0.38    3.40
  -4  -8 -11   -3.55    4.16
  -4   8 -11    2.15    2.57
   5   8  11    8.96    7.25
  -5  -8 -11    1.39    4.83
  -5   8 -11    8.77    3.89
   6   8  11   -0.93    6.66
  -6   8 -11   -0.51    1.84
  -6  -8 -11    1.04    5.17
   7   8  11   -5.58    6.28
  -7   8 -11    0.72    2.55
  -7  -8 -11    3.59    4.36
  -8   8 -11    4.19    2.94
   8   8  11   15.28    9.06
  -8  -8 -11    5.44    4.24
  -8   8 -11    1.55    1.51
  -9   8 -11    4.54    3.04
  -9   8 -11    0.63    1.64
  -9   8 -11   -2.28    1.66
  -9  -8 -11    4.50    7.25
  -9   8 -11    7.53    3.15
 -10   8 -11   11.65    3.30
 -10   8 -11    3.59    3.34
 -10  -8 -11    1.09    4.17
 -10   8 -11    9.26    4.13
 -11   8 -11    1.04    2.28
 -11   8 -11   10.47    4.50
 -11  -8 -11   -0.74    4.66
 -12   8 -11    5.00    4.33
 -12   8 -11    2.50    3.02
 -12  -8 -11   -0.61    4.89
 -13  -8 -11   -1.24    5.61
 -14  -8 -11   -4.36    8.87
 -15  -8 -11    1.91    5.72
 -16  -8 -11   -7.70    8.91
 -17  -8 -11    7.65    6.84
 -18  -8 -11  -28.05   13.39
 -19  -8 -11    0.16    7.37
 -24  -9  11   -5.52    6.89
 -23  -9  11   -9.70    9.76
 -22  -9  11   10.56    7.97
 -21  -9  11    3.71    6.69
  21  -9 -11    1.76    4.15
  20  -9 -11   -5.09    5.92
 -20  -9  11    8.41    9.34
  19  -9 -11  -12.80    7.83
 -19  -9  11    3.61    8.53
  18  -9 -11    0.66    4.51
 -18  -9  11  -11.73    9.85
  17  -9 -11    3.44    6.73
 -17  -9  11   14.26    9.50
  16  -9 -11   12.35    8.82
 -16  -9  11    6.75    7.22
  15  -9 -11    5.33    3.83
 -15  -9  11    4.38    7.01
 -14  -9  11    9.68    7.36
  14  -9 -11    7.02    4.99
 -13  -9  11   23.22   11.94
  13  -9 -11   18.13    8.92
  13   9 -11   17.08   10.84
 -12  -9  11   15.22    4.12
  12  -9 -11   11.91    5.98
 -12  -9  11   16.40    6.35
  12   9 -11   26.00   12.48
 -11  -9  11   -2.45    2.04
  11  -9 -11    5.23    4.43
 -11  -9  11    4.85    3.49
  10  -9 -11    6.24    8.00
 -10  -9  11    6.15    2.36
  10   9 -11   -5.97    7.58
 -10  -9  11    5.45    2.93
   9  -9 -11    3.83    6.19
  -9  -9  11    2.43    1.15
   9   9 -11    0.64    5.10
  -9  -9  11    7.98    2.54
   8  -9 -11    6.47    8.37
   8   9 -11   13.01    7.78
   7  -9 -11    2.93    7.60
   7   9 -11   16.47    8.07
   6  -9 -11    6.02    6.42
   6   9 -11    8.23    7.48
   5   9 -11   -1.98    4.36
   5  -9 -11    3.22    3.76
   4   9 -11   13.69    8.30
   4  -9 -11    0.71    4.88
   3   9 -11   17.51    9.21
   3  -9 -11    3.33    4.77
   2   9 -11   18.44    8.29
   2  -9 -11   20.00    8.82
   1   9 -11   -0.86    5.64
   1  -9 -11    5.36    6.85
   0  -9 -11   12.68    6.26
   0   9 -11    6.57    4.34
  -1  -9 -11    2.38    4.48
  -1   9 -11   -5.14    4.80
  -2  -9 -11    8.65    5.41
  -2   9 -11   14.19    6.57
  -3  -9 -11   -0.18    5.62
  -3   9 -11    1.72    4.48
  -4  -9 -11   15.93    6.20
  -4   9 -11   11.86    5.16
  -5  -9 -11   -5.39    8.85
  -5   9 -11   -0.98    4.46
  -6   9 -11   16.76    5.29
  -6  -9 -11    8.94    5.12
  -7   9 -11   16.31    6.19
  -7  -9 -11    9.30    8.01
  -8   9 -11   12.35    4.94
  -8  -9 -11    6.37    5.45
  -9  -9 -11   17.94    9.04
 -10  -9 -11    4.83    7.34
 -11  -9 -11   13.67   10.04
 -11   9 -11    1.91    3.44
 -12  -9 -11   31.51   13.39
 -13  -9 -11   -7.35    7.14
 -14  -9 -11   11.03    8.07
 -15  -9 -11    6.65    9.22
 -16  -9 -11   16.30    7.72
 -17  -9 -11    6.24    8.15
 -23 -10  11  -14.91   11.57
 -22 -10  11    3.11    7.00
 -21 -10  11   -1.03    8.82
  20 -10 -11   -9.06    6.87
 -20 -10  11   -0.92    6.54
  19 -10 -11    6.06    8.25
 -19 -10  11   -2.60    6.83
  18 -10 -11   11.35    8.81
 -18 -10  11    8.43    7.59
  17 -10 -11    0.34    5.68
 -17 -10  11   14.67   10.07
  16 -10 -11   17.12    8.87
 -16 -10  11    7.39   10.88
 -16 -10  11    5.91    4.46
  15 -10 -11   10.23    7.75
 -15 -10  11   -2.71    3.12
  14 -10 -11   23.20    9.48
 -14 -10  11   23.62    7.62
 -13 -10  11    4.88    3.42
  13 -10 -11   12.52    7.49
  12 -10 -11   10.21    6.74
 -12 -10  11   10.25    4.70
 -11 -10  11    6.84    3.42
  11 -10 -11    7.47    7.05
  11  10 -11    1.82    5.28
  10 -10 -11    1.72    6.59
 -10 -10  11    5.13    2.97
   9 -10 -11    0.59    5.43
   9  10 -11   -3.19    8.01
   8 -10 -11    4.22    7.16
   8  10 -11   -3.40    7.15
   7 -10 -11   10.11    7.38
   7  10 -11   11.39    9.16
   6 -10 -11   -0.79    4.21
   6  10 -11    4.38    4.77
   5  10 -11    5.77    5.59
   5 -10 -11    1.66    8.32
   4  10 -11   13.81    8.32
   4 -10 -11    2.35    6.17
   3  10 -11   17.20   10.12
   3 -10 -11    4.66    9.74
   2  10 -11   18.72    7.89
   2 -10 -11   11.64    6.71
   1  10 -11   15.00    6.96
   1 -10 -11   -0.62    4.56
   0  10 -11    8.43    6.99
   0 -10 -11   -5.11    6.06
  -1 -10 -11    4.21    6.57
  -1  10 -11    7.03    6.85
  -2 -10 -11    1.50    4.57
  -2  10 -11   -4.33    5.99
  -3 -10 -11    0.75    4.10
  -3  10 -11   -1.33    5.75
  -4 -10 -11    0.23    4.74
  -4  10 -11    5.60    4.54
  -5 -10 -11    6.43    4.76
  -5  10 -11   11.82    5.64
  -6 -10 -11    2.42    4.90
  -7 -10 -11   31.48   13.33
  -8 -10 -11   12.72    8.73
  -9 -10 -11    7.74    8.24
 -10 -10 -11    8.11    7.52
 -11 -10 -11   16.91    7.89
 -12 -10 -11    9.89   10.43
 -13 -10 -11    1.81    5.26
 -14 -10 -11   -5.94    7.23
 -15 -10 -11   -0.50    9.43
 -22 -11  11   -0.06   10.81
 -21 -11  11    2.28    7.86
 -20 -11  11   17.87   10.30
  18 -11 -11   -2.21    5.25
  17 -11 -11   19.22    9.37
  16 -11 -11   -0.52    5.19
  15 -11 -11   25.44   10.06
  14 -11 -11   -0.30    4.99
  13 -11 -11   26.44   10.32
  12 -11 -11    9.70    7.67
  11 -11 -11   19.38    8.75
  10 -11 -11    7.22    8.57
   9 -11 -11    2.59    4.10
   9  11 -11  -15.38   10.17
   8 -11 -11    0.12    5.80
   8  11 -11   16.86   11.20
   7 -11 -11   -0.43    4.36
   7  11 -11   12.98    7.60
   6  11 -11  -13.49    8.66
   6 -11 -11   -0.66    4.67
   5  11 -11  -23.45   10.81
   5 -11 -11   -2.07    5.20
   4  11 -11    9.07    6.29
   4 -11 -11    8.11    8.93
   3  11 -11   11.62    5.39
   3 -11 -11    7.83   10.34
   2  11 -11   -2.83    5.01
   2 -11 -11    2.12    6.52
   1  11 -11   16.14    6.75
   1 -11 -11   26.26   11.53
   0  11 -11   -1.39    7.87
   0 -11 -11    0.28    7.54
  -1 -11 -11   11.56    8.70
  -1  11 -11    6.50    7.11
  -2 -11 -11    8.26    6.97
  -2  11 -11    3.23    4.31
  -3 -11 -11  -17.69    9.19
  -4 -11 -11   -0.91    7.30
  -5 -11 -11   14.90    9.05
  -6 -11 -11   26.35   12.31
  -7 -11 -11   12.18   10.66
  -8 -11 -11    1.49    5.09
  -9 -11 -11    8.59    6.93
 -10 -11 -11    6.58    7.25
 -11 -11 -11   -2.13    7.77
 -12 -11 -11    2.62    7.24
 -13 -11 -11    2.78    7.59
  15 -12 -11   -1.50    4.14
  14 -12 -11   15.84    8.38
  13 -12 -11   -4.63    6.40
  12 -12 -11   11.85    7.81
  11 -12 -11    2.56    6.03
  10 -12 -11    1.48    4.87
   9 -12 -11    4.53    7.07
   8 -12 -11    1.62    5.22
   7 -12 -11   -1.16    4.99
   6 -12 -11    3.88    7.58
   5 -12 -11    6.28    8.24
   4  12 -11    6.79    5.01
   4 -12 -11    3.13    7.97
   3  12 -11  -10.44   10.09
   3 -12 -11   -2.64    4.96
   2 -12 -11    6.57    9.74
   1 -12 -11    2.85    4.87
   0 -12 -11    6.07    6.35
  -1 -12 -11    8.22    5.72
  -2 -12 -11   -1.74    5.97
  -3 -12 -11   -3.69    7.02
  -4 -12 -11    4.88    4.59
  -5 -12 -11  -15.03    8.87
  -6 -12 -11   -1.12    5.98
  -7 -12 -11   14.29    6.77
  -8 -12 -11  -18.18    9.84
  -9 -12 -11    4.48    6.61
 -10 -12 -11    6.60    8.64
  12 -13 -11   15.68    8.67
  11 -13 -11   -4.40    4.62
  10 -13 -11   -3.54    5.77
   9 -13 -11    1.53    3.90
   8 -13 -11   -0.33    7.22
   7 -13 -11    4.94    9.58
   6 -13 -11    0.16    3.72
   5 -13 -11    0.49    5.49
   4 -13 -11    5.83    5.99
   3 -13 -11    5.11    8.70
   2 -13 -11    0.91    7.79
   1 -13 -11   10.10    9.94
   0 -13 -11   -0.55    5.67
  -1 -13 -11    9.43    6.75
  -2 -13 -11    1.01    5.35
  -3 -13 -11  -15.32    9.42
  -4 -13 -11  -23.33   10.61
  -5 -13 -11    4.24    7.59
  -6 -13 -11   12.33    8.72
  -7 -13 -11   46.16   14.08
   5 -14 -11    6.74    9.02
   4 -14 -11    1.11    5.81
   3 -14 -11    0.46    6.39
   2 -14 -11   -2.65    8.60
   1 -14 -11   57.01   21.47
   0 -14 -11   -0.41    6.57
 -28   0  12   72.24   23.89
 -27   0  12    8.17   11.35
 -26   0  12   47.86   18.23
 -25   0  12    3.28    7.41
 -24   0  12   32.96   16.12
 -23   0  12   -1.51    9.80
 -22   0  12   33.83   16.86
 -21   0  12   35.19   14.75
 -20   0  12  177.83   30.37
 -19   0  12   14.49    9.66
 -18   0  12  148.21   26.66
 -17   0  12   43.46   11.41
 -17   0  12   71.22   17.62
 -16   0  12  161.65   20.40
 -16   0  12  147.57   25.55
 -15   0  12   78.23   13.97
 -15   0  12   76.47   18.60
 -14   0  12  136.02   17.67
 -14   0  12  105.07   20.21
 -13   0  12   66.35   12.12
 -13   0  12   73.23   17.04
 -12   0  12  113.63   19.75
 -12   0  12   88.78   13.38
  12   0 -12   95.07   12.25
  11   0 -12   62.13   10.06
 -11   0  12   58.79   14.49
 -11   0  12   54.30   10.95
 -10   0  12   75.33   12.57
  10   0 -12   79.85   11.38
 -10   0  12   61.75   13.78
  -9   0  12   37.56    8.94
   9   0 -12   54.45    9.48
  -9   0  12   57.93   13.23
   8   0 -12   64.39    9.88
  -8   0  12   59.98   12.45
   7   0 -12  104.18   12.43
  -7   0  12  102.01   15.46
   6   0 -12  260.46   19.36
  -6   0  12  256.98   23.28
   5   0 -12   41.48    8.06
  -5   0  12   53.53   10.49
   4   0 -12   60.97    9.78
  -4   0  12   73.14   11.91
   3   0 -12   36.94    7.59
  -3   0  12   46.06    8.64
  -2   0  12  220.05   21.59
   2   0 -12  194.36   16.88
   1   0 -12   19.02    5.86
  -1   0  12   23.37    7.55
   0   0 -12   13.94    5.34
  -1   0 -12    9.11    4.21
   1   0  12   14.28    3.72
   2   0  12  200.98   11.43
  -2   0 -12  242.15   20.56
   3   0  12   50.61    5.44
  -3   0 -12   63.46   10.47
   4   0  12   45.05    4.87
  -4   0 -12   58.47   10.73
  -5   0 -12   35.55    8.99
   5   0  12   24.44    3.58
   6   0  12   30.74    4.24
  -6   0 -12   42.32    9.71
   7   0  12   26.65    4.39
  -7   0 -12   43.02   10.98
  -8   0 -12   44.08    9.84
  -9   0 -12   48.47   11.67
 -10   0 -12   66.74   14.13
 -11   0 -12   43.44   11.61
 -12   0 -12   51.43   13.50
 -13   0 -12   24.64   11.27
 -14   0 -12   40.01   14.07
 -15   0 -12    8.13    4.81
 -16   0 -12  115.86   23.39
 -17   0 -12   49.00   16.18
 -18   0 -12   54.54   17.21
 -19   0 -12   23.60   14.21
 -20   0 -12   33.98   12.72
 -21   0 -12    3.55   10.47
 -22   0 -12   35.39   14.11
 -23   0 -12    0.83   11.59
 -24   0 -12   43.46   19.94
 -25   0 -12    5.98   12.53
 -28  -1  12   -2.49   10.88
 -27  -1  12   49.99   17.94
 -27   1  12   47.21   22.29
 -26  -1  12   42.80   21.06
 -26   1  12   33.67   15.93
 -25  -1  12   43.17   17.39
 -25   1  12   34.58   17.06
 -24  -1  12   -4.29   12.30
 -24   1  12   22.74   12.10
 -23  -1  12   20.17   12.41
 -23   1  12    4.34    7.90
 -22  -1  12   19.03    9.27
 -22   1  12   15.89    8.00
 -21  -1  12   62.26   20.30
 -21   1  12   63.60   20.89
 -20  -1  12   26.67   14.24
 -20   1  12   33.52   15.51
 -19  -1  12  184.32   31.53
 -19   1  12  171.25   30.72
 -18  -1  12   17.54    7.37
 -18  -1  12    9.70    9.69
 -18   1  12   13.27   10.46
 -17  -1  12  133.71   18.26
 -17  -1  12  167.15   27.93
 -17   1  12  148.65   27.23
 -16  -1  12   54.70   11.49
 -16   1  12   47.00   11.96
 -16  -1  12   30.26   11.94
 -16   1  12   42.94   13.64
 -15  -1  12  125.81   16.78
 -15   1  12  116.71   17.26
 -15  -1  12  112.84   21.59
 -15   1  12  122.62   23.06
 -14  -1  12   37.40    9.11
 -14  -1  12   27.03    9.87
 -14   1  12   35.59    9.74
 -14   1  12   51.90   14.91
  14  -1 -12   40.82    9.30
  13  -1 -12  115.04   14.66
 -13  -1  12  106.16   14.93
 -13  -1  12  124.89   22.04
 -13   1  12   94.17   14.93
 -13   1  12  118.90   21.15
  12  -1 -12   25.77    7.22
 -12  -1  12   26.81    9.72
 -12  -1  12   21.49    7.41
 -12   1  12   15.01    6.28
 -12   1  12   15.91    7.58
  11  -1 -12   87.11   12.29
 -11  -1  12  102.05   17.71
 -11  -1  12   68.28   11.78
 -11   1  12   88.29   17.39
 -11   1  12   78.18   13.44
 -10   1  12   32.16    7.84
  10  -1 -12   26.73    6.82
 -10  -1  12   27.08    8.94
 -10   1  12   28.92    9.44
  10   1 -12   35.62    7.21
   9   1 -12   73.34   10.06
   9  -1 -12   89.85   12.56
  -9   1  12   73.35   12.29
  -9  -1  12   79.81   14.57
  -9   1  12   77.47   15.47
   8   1 -12   46.99    8.07
  -8   1  12   37.30    8.74
   8  -1 -12   34.10    7.61
  -8  -1  12   32.60    8.57
   7   1 -12  157.98   14.14
   7  -1 -12  117.43   13.89
  -7  -1  12  137.91   17.44
  -7  -1  12  119.12   14.73
  -7   1  12  135.48   17.02
   6   1 -12   36.74    6.77
   6  -1 -12   37.44    8.35
  -6  -1  12   35.69    7.98
  -6  -1  12   33.27    8.46
   5   1 -12  179.14   14.93
   5  -1 -12  169.85   16.24
  -5  -1  12  190.37   18.73
  -5  -1  12  157.76   16.45
   4   1 -12   23.54    5.41
   4  -1 -12   29.23    6.93
  -4  -1  12   26.57    6.74
  -4  -1  12   21.44    6.56
  -3  -1  12  122.45   15.35
   3   1 -12  122.39   12.50
   3  -1 -12  117.39   14.04
  -3  -1  12  129.07   13.09
  -2  -1  12   23.44    7.60
   2   1 -12   27.11    5.99
  -2  -1  12   25.26    5.55
   2  -1 -12   20.29    6.06
  -1  -1  12   86.63   13.00
  -1  -1  12   72.06    7.64
   1   1 -12   80.16   10.47
   1  -1 -12   80.80   11.58
   0   1 -12    6.33    3.08
   0  -1  12   17.24    7.69
   0  -1 -12   14.96    5.58
  -1  -1 -12   76.30   11.45
   1  -1  12   76.58   13.35
  -1   1 -12   71.21   10.31
  -2   1 -12   33.71    7.24
  -2  -1 -12   30.25    8.32
   2   1  12   31.09    5.81
   3   1  12  101.89   10.75
  -3   1 -12  107.72   13.26
  -3  -1 -12  113.01   14.85
  -4   1 -12   24.05    6.76
   4   1  12   34.06    6.31
  -4  -1 -12   34.97    8.63
   5   1  12   60.09    9.01
  -5   1 -12   47.13    9.77
  -5  -1 -12   52.72   10.86
   6   1  12   19.10    5.90
  -6  -1 -12   24.84    8.18
  -6   1 -12   13.17    5.66
   7   1  12   63.27   10.11
  -7  -1 -12   55.19   12.12
  -7   1 -12   42.27    9.52
  -8  -1 -12   28.97    9.85
  -8   1 -12   13.73    5.28
   8   1  12   25.11    6.90
  -9  -1 -12   71.56   14.55
  -9   1 -12   50.10   11.48
   9   1  12   66.72   11.01
 -10  -1 -12   15.74    7.44
 -10   1 -12   16.09    5.84
  10   1  12   19.92    6.75
 -11  -1 -12   79.22   16.63
 -11   1 -12   73.85   15.20
  11   1  12   82.13   13.19
 -12  -1 -12   33.78   11.06
 -12   1 -12    8.46    7.58
  12   1  12   14.89    4.60
 -13   1 -12   38.84   12.06
 -13  -1 -12   40.84   12.88
  13   1  12   29.30    8.36
 -14   1 -12   11.50    5.87
 -14  -1 -12    2.83    5.04
  14   1  12   12.59    6.42
 -15  -1 -12   39.10   13.99
 -15   1 -12   70.39   16.97
  15   1  12   53.57   12.55
 -16  -1 -12   12.78    7.60
 -16   1 -12   16.95   10.65
 -17  -1 -12   13.00    6.75
 -17   1 -12   43.94   14.87
 -18  -1 -12    3.47    7.84
 -18   1 -12   11.47    6.70
 -19   1 -12   17.06    9.05
 -19  -1 -12   51.98   19.04
 -20   1 -12  -15.37   15.17
 -20  -1 -12    9.76   11.01
 -21   1 -12   21.48    8.24
 -21  -1 -12   11.99    7.01
 -22   1 -12   10.01   11.21
 -22  -1 -12   32.58   15.00
 -23   1 -12   20.85   15.88
 -23  -1 -12   12.32   11.36
 -24   1 -12   21.93   10.02
 -24  -1 -12    4.46   10.33
 -25   1 -12   -4.22   11.08
 -26   1 -12   14.20   14.67
 -28  -2  12   86.91   27.22
 -27  -2  12    1.95   11.44
 -27   2  12   13.37    9.90
 -26  -2  12   32.13   16.11
 -26   2  12   25.59   14.50
 -25  -2  12   -2.91    7.92
 -25   2  12   -3.13   12.29
 -24  -2  12   41.60   17.41
 -24   2  12   26.84   16.09
 -23  -2  12    9.22   11.05
 -23   2  12   -7.06   14.39
 -22  -2  12   29.99   14.99
 -22   2  12   55.02   20.30
 -21  -2  12  106.44   22.43
 -21   2  12    2.43    8.19
 -20  -2  12   36.61   14.31
 -20   2  12   64.55   21.56
 -19  -2  12   12.00    8.66
 -19   2  12   23.94   12.51
 -18  -2  12  133.60   18.14
 -18  -2  12  131.20   25.69
 -18   2  12  136.29   27.95
 -17  -2  12    7.81    5.91
 -17  -2  12   -1.60    6.96
 -17   2  12    0.30    7.86
 -16  -2  12   69.37   12.54
 -16  -2  12  102.39   21.79
 -16   2  12  126.97   25.36
 -15  -2  12    5.50    3.38
 -15  -2  12    9.91    8.03
 -15   2  12    3.68    3.70
 -15   2  12   12.77    8.76
  15  -2 -12    2.93    3.51
  14  -2 -12  111.90   15.15
 -14  -2  12  116.68   15.50
 -14   2  12  107.57   16.89
 -14  -2  12   88.21   18.76
 -14   2  12  136.31   24.92
  13  -2 -12    1.12    3.17
 -13  -2  12    0.76    6.10
 -13  -2  12    3.55    3.75
 -13   2  12    5.84    5.21
 -13   2  12    4.67    6.87
  12  -2 -12   58.72   10.70
 -12  -2  12   77.18   16.89
 -12   2  12   70.26   14.85
 -11   2  12    3.42    3.63
  11  -2 -12    3.70    2.36
 -11  -2  12    0.81    5.05
 -10   2  12   62.96   12.07
  10  -2 -12   52.02    9.60
 -10  -2  12   53.55   12.42
  -9  -2  12    5.18    3.34
  -9   2  12    4.71    3.45
   9  -2 -12    3.45    3.48
  -9  -2  12    8.66    6.33
   8  -2 -12  120.08   14.60
  -8  -2  12  136.51   18.59
  -8  -2  12  124.04   14.03
  -8   2  12  126.42   17.44
   8   2 -12  119.74   11.55
   7   2 -12    2.26    2.54
  -7  -2  12    3.48    3.58
   7  -2 -12    2.32    2.51
  -7   2  12   -0.47    3.17
  -7  -2  12    3.26    4.14
   6   2 -12   83.86    9.43
   6  -2 -12   85.75   12.22
  -6   2  12   82.08   13.28
  -6  -2  12   81.36   12.99
  -6  -2  12   79.99   11.15
   5   2 -12    6.54    3.30
   5  -2 -12    8.76    4.57
  -5  -2  12    7.66    4.29
  -5  -2  12    7.73    3.86
  -5   2  12   14.88    6.89
   4   2 -12  186.98   13.76
  -4   2  12  184.56   20.89
  -4  -2  12  189.94   17.14
  -4  -2  12  204.92   17.37
   4  -2 -12  157.60   16.95
  -3   2  12    6.83    4.58
   3   2 -12    8.50    3.99
  -3  -2  12   -0.37    2.78
  -3  -2  12    3.00    2.17
   3  -2 -12    1.16    2.40
  -2   2  12   38.40   10.16
  -2  -2  12   38.20    5.44
   2   2 -12   47.04    7.00
   2  -2 -12   24.56    6.23
  -2  -2  12   41.82    8.22
  -1  -2  12    0.40    3.21
   1   2 -12    0.67    2.82
  -1   2  12    1.44    3.78
   1  -2 -12   -0.38    2.55
   0  -2  12  142.62   16.16
   0   2 -12  155.05   13.36
   0   2  12  143.88   19.93
   0  -2 -12  143.56   16.41
  -1  -2 -12   13.21    5.77
   1   2  12   14.16    7.26
  -1   2 -12    8.63    4.19
  -2   2 -12    2.21    2.51
   2   2  12    2.38    5.95
  -2  -2 -12    3.72    2.78
  -3   2 -12    8.11    3.59
   3   2  12    4.64    3.58
  -3  -2 -12    0.96    2.57
   3   2  12   -4.01    4.84
   4   2  12   81.26   11.39
  -4   2 -12   80.34   10.68
  -4  -2 -12   78.66   13.11
   5   2  12    7.28    4.80
  -5   2 -12    9.06    5.62
  -5  -2 -12   14.02    6.73
   6   2  12   74.51   12.00
  -6   2 -12   81.57   11.96
  -6  -2 -12   85.81   14.28
   7   2  12    8.53    4.85
  -7  -2 -12   -2.23    4.18
  -7   2 -12    8.63    4.92
  -8   2 -12  100.85   14.64
   8   2  12   95.02   14.65
  -8  -2 -12   99.40   16.62
  -9  -2 -12    7.58    5.61
  -9   2 -12   13.38    6.49
   9   2  12    3.73    4.42
 -10  -2 -12   91.72   17.32
 -10   2 -12   92.63   15.64
  10   2  12   81.08   14.10
 -11  -2 -12   -1.36    4.93
  11   2  12    0.61   10.46
 -11   2 -12    2.51    3.53
 -12  -2 -12   60.05   15.79
  12   2  12   54.96   13.29
 -12   2 -12   55.10   13.36
 -13   2 -12   -4.55    5.64
 -13  -2 -12    6.94    7.34
  13   2  12   -2.41    6.89
 -14   2 -12   69.23   16.67
 -14  -2 -12   76.92   18.37
 -15   2 -12   -3.70    7.26
 -15  -2 -12  -10.43   10.08
 -16   2 -12    5.82    5.31
  16   2  12   10.12    7.54
 -16  -2 -12   10.29    9.13
 -17  -2 -12    5.92    6.66
 -17   2 -12    3.77    8.74
 -18  -2 -12   18.08   12.52
 -18   2 -12   26.47   13.98
 -19  -2 -12   14.58   10.59
 -19   2 -12   -4.65    6.97
 -20  -2 -12   13.47    7.88
 -20   2 -12    5.17    6.68
 -21  -2 -12    5.53   10.16
 -21   2 -12   21.82   17.66
 -22  -2 -12   35.02   17.48
 -22   2 -12   -0.53   10.75
 -23   2 -12   24.89   16.40
 -23  -2 -12  -11.41   11.32
 -24   2 -12   56.38   22.67
 -24  -2 -12   28.62   16.59
 -25   2 -12   25.46   18.04
 -26   2 -12  -83.13   29.42
 -27  -3  12   62.03   22.75
 -27   3  12   68.94   28.32
 -26  -3  12  -14.57   14.90
 -26   3  12   -8.55   11.42
 -25  -3  12   20.80   12.85
 -25   3  12    8.86    8.04
 -24  -3  12   11.66   12.52
 -24   3  12   -8.70   12.23
 -23  -3  12   26.99   12.60
 -23   3  12   51.27   20.06
 -22  -3  12    2.35    7.86
 -22   3  12    3.21    7.70
 -21  -3  12   23.19   13.31
 -21   3  12   26.05   15.24
 -20  -3  12   -1.30    7.88
 -20   3  12   -0.21    9.39
 -19  -3  12    8.06    5.33
 -19  -3  12    9.31    9.00
 -19   3  12   -4.07    7.31
 -18  -3  12   -2.18    3.97
 -18  -3  12   -2.39    9.02
 -18   3  12    6.40    6.94
 -17  -3  12   78.73   13.21
 -17  -3  12  112.73   23.24
 -17   3  12  109.65   25.67
  16  -3 -12   30.27    9.53
 -16  -3  12   37.29    9.13
 -16  -3  12   36.54   13.84
 -16   3  12   30.66   13.91
  15  -3 -12   55.20   11.23
 -15  -3  12   58.73   10.85
 -15  -3  12   58.28   15.29
  14  -3 -12   22.65    7.90
 -14  -3  12   22.29    6.60
 -14  -3  12   25.95   11.04
  13  -3 -12   59.85   11.54
 -13  -3  12   56.31   15.48
 -13   3  12   50.38   12.08
 -12   3  12   18.65    7.30
  12  -3 -12   16.04    6.80
 -12  -3  12   30.08   11.91
 -11   3  12   38.61   10.44
  11  -3 -12   29.38    8.17
 -11  -3  12   35.82   10.87
 -10   3  12   11.52    4.88
  10  -3 -12    7.28    3.62
 -10  -3  12   15.92    7.61
 -10  -3  12   10.59    4.72
  -9   3  12   88.32   15.25
   9  -3 -12   80.06   12.69
  -9  -3  12   80.04   11.13
  -9  -3  12   77.33   14.71
  -8  -3  12   14.88    5.46
  -8   3  12   14.49    5.88
   8  -3 -12    3.95    3.43
  -8  -3  12   12.03    7.38
  -7  -3  12   63.88    9.30
   7  -3 -12   60.15   10.63
  -7   3  12   64.15   13.55
  -7  -3  12   57.29   11.97
  -6  -3  12   14.61    6.49
  -6  -3  12    9.98    3.92
   6  -3 -12    6.50    4.24
  -6   3  12    5.66    3.87
  -5  -3  12   67.70    9.79
  -5  -3  12   61.30    9.83
   5  -3 -12   50.49   10.14
  -5   3  12   61.12   12.47
   5   3 -12   66.59    7.38
   4   3 -12    4.15    1.97
  -4  -3  12    4.50    3.35
  -4  -3  12    6.78    3.65
   4  -3 -12    8.77    5.02
  -4   3  12   11.09    5.92
   3   3 -12   76.26    7.71
  -3   3  12   68.25   14.42
  -3  -3  12   82.07    8.79
  -3  -3  12   63.49    9.23
   3  -3 -12   68.44   11.74
   2   3 -12    8.11    2.57
  -2  -3  12   12.27    4.81
  -2   3  12   11.88    5.80
   2  -3 -12   12.52    5.60
   1   3 -12   56.61    6.84
  -1   3  12   59.97   13.22
   1  -3 -12   47.69   10.16
   0  -3 -12    0.72    3.89
   0   3 -12    6.02    2.67
   0   3  12    4.70    3.31
  -1  -3 -12    3.64    3.79
   1   3  12    3.02    3.15
  -1   3 -12    3.44    1.96
  -2  -3 -12   14.03    7.52
  -2   3 -12   13.18    3.92
   2   3  12    9.97    5.70
  -3   3 -12    3.39    3.80
   3   3  12    7.33    5.51
  -3  -3 -12   -1.46    4.35
   3   3  12    1.40    4.90
  -4   3 -12    6.26    3.40
   4   3  12   13.50    7.55
  -4  -3 -12    0.47    3.62
   4   3  12    9.33    7.05
   5   3  12   51.03   11.18
  -5   3 -12   65.13    9.42
  -5  -3 -12   61.01   12.75
   6   3  12    4.95    4.00
  -6  -3 -12    4.50    3.63
   7   3  12   70.40   12.55
  -7  -3 -12   66.67   13.69
  -7   3 -12   62.68   10.31
  -8   3 -12   14.58    6.05
   8   3  12   16.85    7.75
  -8  -3 -12    6.03    4.25
  -9  -3 -12   79.92   15.46
  -9   3 -12   74.17   12.97
   9   3  12   78.94   15.09
 -10  -3 -12   23.72    9.50
 -10   3 -12   18.78    7.47
  10   3  12   10.95    4.29
 -11  -3 -12   33.15   10.53
 -11   3 -12   43.91   11.44
 -12   3 -12   27.46    9.73
 -12  -3 -12   16.07    8.86
 -13   3 -12   52.90   14.02
 -13  -3 -12   57.35   15.42
 -14   3 -12   24.05    9.23
 -14  -3 -12    7.55    7.87
  14   3  12   25.15   11.83
 -15  -3 -12   23.16   10.13
 -15   3 -12    9.65    7.84
  15   3  12   16.20    9.14
  16   3  12   12.50    8.13
 -16  -3 -12   26.10   12.80
 -16   3 -12    8.07    5.62
 -17   3 -12    5.74    6.50
 -17  -3 -12    3.52    5.26
 -18  -3 -12   17.59    9.03
 -18   3 -12   31.95   15.49
 -19  -3 -12   21.94   12.22
 -19   3 -12    8.95    6.43
 -20   3 -12   18.90   13.87
 -20  -3 -12   18.25   12.08
 -21  -3 -12   16.15    9.22
 -21   3 -12    7.99    8.46
 -22  -3 -12   33.24   15.91
 -22   3 -12   21.31   17.07
 -23  -3 -12   31.02   15.13
 -23   3 -12   36.85   18.28
 -24   3 -12  -20.95   21.02
 -25   3 -12  -21.09   16.04
 -27  -4  12    4.21    7.75
 -26  -4  12   11.77   13.25
 -26   4  12   13.13   15.20
 -25  -4  12   14.72   10.69
 -25   4  12    2.99    7.67
 -24  -4  12   11.53   11.85
 -24   4  12   31.27   36.44
 -23  -4  12    5.30    8.82
 -23   4  12  -12.17   14.92
 -22  -4  12    0.41   10.68
 -22   4  12   37.89   18.07
 -21  -4  12    5.97    7.07
 -21   4  12   27.93   17.48
 -20  -4  12    0.89    6.07
 -20   4  12   10.55    6.82
 -19  -4  12   22.33    7.46
 -19  -4  12   13.79    9.64
 -19   4  12   41.24   18.45
 -18  -4  12   -1.49    2.59
 -18  -4  12    5.10    7.14
  17  -4 -12    7.13    4.68
 -17  -4  12   10.74    5.17
 -17  -4  12    1.49    7.05
  16  -4 -12   51.58   11.63
 -16  -4  12   49.48    9.99
 -16  -4  12   65.78   17.14
  15  -4 -12   88.94   14.98
 -15  -4  12   80.53   12.59
 -15  -4  12   96.10   20.56
  14  -4 -12   29.13    8.25
 -14  -4  12   13.41    8.09
 -14  -4  12   19.33    6.32
  13  -4 -12   56.72   12.63
 -13  -4  12   63.87   16.34
 -12   4  12   22.55    7.34
  12  -4 -12   32.82    8.63
 -12  -4  12   30.64   10.07
 -11   4  12   68.05   14.31
  11  -4 -12   47.31   10.57
 -11  -4  12   38.16   11.09
 -11  -4  12   40.52    8.24
 -10   4  12   20.81    8.23
  10  -4 -12   27.46    8.25
 -10  -4  12   39.58   12.01
 -10  -4  12   29.47    6.55
  -9   4  12   56.58   12.20
   9  -4 -12   44.83   10.16
  -9  -4  12   71.20   15.03
  -9  -4  12   52.21    8.52
  -8  -4  12   26.55    6.01
  -8  -4  12   20.21    7.75
  -8   4  12   31.00    8.81
   8  -4 -12   18.63    7.00
  -7  -4  12   47.99    7.95
  -7  -4  12   62.08   11.77
   7  -4 -12   40.82    9.67
  -7   4  12   46.88   11.47
  -6  -4  12   26.36    7.30
  -6  -4  12   18.76    4.23
   6  -4 -12   13.70    6.06
  -6   4  12   15.61    7.23
  -5  -4  12   42.34    8.57
   5  -4 -12   38.20    9.22
  -5   4  12   28.54    9.76
  -5  -4  12   39.60    6.79
  -4  -4  12   24.22    5.39
  -4  -4  12   21.09    4.52
   4  -4 -12   22.55    6.66
  -4   4  12   16.43    6.35
  -3   4  12   55.16   13.39
  -3  -4  12   43.66    6.66
   3  -4 -12   41.75    9.98
  -2   4  12   75.66   15.55
   2  -4 -12   52.45   10.63
   2   4 -12   42.62    4.52
   1   4 -12   15.70    2.95
  -1   4  12   26.76    9.80
   1  -4 -12   21.81    8.19
   0  -4 -12    4.49    4.75
   0   4 -12   -0.45    1.46
   0   4  12    7.53    5.54
  -1  -4 -12   42.34    9.95
  -1   4 -12   35.86    4.62
   1   4  12   48.61   12.94
  -2  -4 -12   15.10    6.57
  -2   4 -12   14.05    3.28
   2   4  12   30.94   11.21
  -3  -4 -12   68.68   13.25
   3   4  12   92.82   18.72
  -3   4 -12   89.22    8.54
  -4   4 -12    0.24    1.75
  -4  -4 -12   -0.06    4.41
   4   4  12    0.88    7.42
  -5   4 -12   45.68    7.46
  -5  -4 -12   42.25   11.19
  -6   4 -12   28.65    6.41
  -6  -4 -12   15.27    6.63
  -7  -4 -12   53.67   12.89
  -7   4 -12   50.85    9.19
  -8   4 -12   42.20    8.23
  -8  -4 -12   38.73   11.73
  -9   4 -12   52.70   10.60
  -9  -4 -12   42.46   11.85
 -10  -4 -12   21.97    7.88
 -10   4 -12   21.90    6.92
 -11  -4 -12   59.77   14.97
  11   4  12   59.34   14.79
 -11   4 -12   53.87   11.35
 -12   4 -12   20.10    7.06
 -12  -4 -12   23.26   10.00
  12   4  12   19.57   10.17
 -13   4 -12   22.76    7.72
 -13  -4 -12   18.04    9.41
  13   4  12   38.98   12.91
 -14  -4 -12    4.41    4.80
 -14   4 -12    5.31    5.63
  14   4  12    4.03    6.89
 -15  -4 -12   34.38   12.49
  15   4  12   41.66   14.35
 -15   4 -12   39.04   12.56
 -16   4 -12    3.77    6.14
  16   4  12    3.37    5.93
 -17   4 -12   47.60   17.98
 -17  -4 -12   31.07   13.88
 -18  -4 -12    1.46    5.67
 -18   4 -12    1.15    6.56
 -19   4 -12   14.46    9.48
 -19  -4 -12   28.71   13.47
 -20   4 -12   13.47   13.75
 -20  -4 -12   -4.44   12.74
 -21  -4 -12   33.38   16.02
 -21   4 -12   39.70   18.49
 -22  -4 -12   -3.43   11.67
 -22   4 -12    1.00   12.31
 -23   4 -12   24.63   14.33
 -24   4 -12    4.48    8.79
 -27  -5  12  -21.61   15.72
 -26  -5  12   15.93   13.44
 -25  -5  12   -3.16   12.51
 -25   5  12   49.40   26.29
 -24  -5  12   22.96   14.93
 -24   5  12  -31.17   19.09
 -23  -5  12    2.04    7.18
 -23   5  12    9.46   18.45
 -22  -5  12   18.20   10.80
 -22   5  12   26.44   17.59
 -21  -5  12   -9.57    5.76
 -21   5  12   -5.28    8.96
 -20  -5  12   30.68   13.68
 -19  -5  12    6.68    4.28
 -19  -5  12   -1.25    5.86
  18  -5 -12   32.71    9.97
 -18  -5  12   25.84    8.17
 -18  -5  12   22.20   10.56
  17  -5 -12    5.44    5.43
 -17  -5  12    1.68    3.18
 -17  -5  12   -6.30    8.49
  16  -5 -12   43.07   11.31
 -16  -5  12   39.35    9.43
 -16  -5  12   28.41   12.08
  15  -5 -12    4.71    3.54
 -15  -5  12   13.63    6.01
 -15  -5  12    0.29    4.99
  14  -5 -12   85.85   14.91
 -14  -5  12   96.53   20.49
  13  -5 -12   12.34    6.44
 -13  -5  12    0.92    4.79
  12  -5 -12   86.86   14.44
 -12  -5  12   83.18   11.43
 -12  -5  12   83.28   17.55
  11  -5 -12   16.11    6.67
 -11  -5  12   12.09    7.62
 -11  -5  12   13.62    4.67
 -10  -5  12   88.64   16.08
 -10  -5  12   97.15   11.27
  10  -5 -12   77.30   13.87
  -9  -5  12   -7.62    7.14
  -9   5  12    8.48    6.99
   9  -5 -12    0.35    4.03
  -9  -5  12    0.10    2.17
  -8  -5  12   95.58   15.88
   8  -5 -12   71.33   13.14
  -8   5  12   61.37   14.00
  -8  -5  12   79.56    9.18
  -7  -5  12   -1.81    4.31
  -7  -5  12    5.38    3.19
   7  -5 -12    2.48    2.70
  -7   5  12    8.12    5.09
  -6  -5  12   67.78    7.92
  -6  -5  12   88.91   13.08
   6  -5 -12   58.79   11.78
  -6   5  12   71.81   15.24
  -5  -5  12    2.44    1.66
  -5   5  12   -4.53    5.94
  -4   5  12   51.16   13.48
   4  -5 -12   56.32   11.87
  -4  -5  12   47.05    5.35
  -3   5  12    9.05    3.48
   3  -5 -12   18.58    6.51
  -2   5  12   45.63   13.08
   2  -5 -12   42.67   10.35
  -1   5  12   -7.69    9.20
   1  -5 -12   -3.36    5.02
   0  -5 -12   70.21   13.27
   0   5  12   76.30   16.69
  -1  -5 -12   10.42    5.96
   1   5  12    8.74    8.60
  -2  -5 -12   94.01   16.20
   2   5  12  105.01   20.58
   3   5  12    4.99    4.18
  -3  -5 -12   22.66    8.74
  -3   5 -12    7.55    1.83
   4   5  12  109.02   21.59
  -4  -5 -12  113.14   18.05
  -4   5 -12  111.56    8.06
   5   5  12    4.34    6.46
  -5   5 -12    7.36    2.52
  -5  -5 -12   10.34    7.05
   6   5  12   70.59   14.71
  -6  -5 -12   77.68   15.42
  -6   5 -12   88.44    9.45
   7   5  12    7.77    4.34
  -7   5 -12   11.83    3.05
  -7  -5 -12    7.40    4.66
   8   5  12   66.17   15.30
  -8  -5 -12   75.37   15.77
  -8   5 -12   78.26   10.75
  -9   5 -12    5.24    3.38
   9   5  12    5.35    6.99
  -9  -5 -12   -0.02    6.08
  10   5  12   59.16   15.23
 -10   5 -12   39.77    8.33
 -10  -5 -12   49.39   14.19
 -11  -5 -12    3.81    5.79
  11   5  12   10.20    8.18
 -11   5 -12    7.54    5.93
 -12   5 -12   47.23   11.01
 -12  -5 -12   41.28   13.03
  12   5  12   49.15   14.46
 -13  -5 -12   11.83    8.41
 -13   5 -12   -0.57    4.62
  13   5  12   13.22   10.24
 -14  -5 -12   37.89   13.71
  14   5  12   56.28   17.31
 -14   5 -12   68.39   15.95
 -15   5 -12   -6.06    7.84
 -15  -5 -12   -3.81    7.22
 -16   5 -12   51.75   15.20
 -16  -5 -12   26.53   12.00
 -17  -5 -12   -8.33    6.36
 -17   5 -12   75.78   31.26
 -18   5 -12   23.00    8.41
 -18  -5 -12   21.56   11.98
 -19   5 -12   10.19   12.36
 -19  -5 -12   -9.38   10.79
 -20   5 -12   53.36   20.79
 -20  -5 -12   42.03   14.83
 -21   5 -12    5.77    9.78
 -21  -5 -12  -25.46   13.79
 -26  -6  12   -3.65   10.38
 -25  -6  12   23.25   14.74
 -25   6  12   82.64   33.40
 -24  -6  12   -8.73   11.74
 -24   6  12   -3.64   14.32
 -23  -6  12   42.84   16.08
 -23   6  12   56.05   25.55
 -22  -6  12   -3.74   12.15
 -21  -6  12   22.07   13.37
 -20  -6  12   11.59    9.41
 -19  -6  12   16.47    6.41
 -19  -6  12   44.80   15.79
  19  -6 -12   36.45   11.07
  18  -6 -12    2.05    4.70
 -18  -6  12   -2.60    4.35
 -18  -6  12    4.44    6.00
  17  -6 -12   55.40   12.98
 -17  -6  12   38.26    8.79
 -17  -6  12   66.80   18.34
  16  -6 -12   34.01    9.58
 -16  -6  12    9.69    3.20
 -16  -6  12   23.54   10.77
  15  -6 -12   47.78   11.66
 -15  -6  12   39.14   13.19
  14  -6 -12   -0.96    3.14
 -14  -6  12   -1.93    7.78
 -13  -6  12  104.07   12.70
  13  -6 -12   83.77   15.45
 -13  -6  12   80.35   17.73
  13   6 -12   73.83   16.66
  12  -6 -12   -1.29    3.25
 -12  -6  12   -5.38    7.47
 -12  -6  12   -5.42    3.96
  12   6 -12    2.90    4.28
 -11  -6  12  104.07   11.73
  11  -6 -12   97.66   16.16
 -11  -6  12   98.98   18.13
  11   6 -12   77.48   16.26
 -10  -6  12    1.66    3.82
  10  -6 -12    5.51    5.40
 -10  -6  12   -1.45    2.67
  10   6 -12   -3.05    5.65
  -9  -6  12   96.07   16.37
   9  -6 -12   85.82   15.12
  -9  -6  12  102.86   10.60
   9   6 -12   67.59   14.16
  -8  -6  12   23.93    5.02
  -8  -6  12   20.69    7.19
   8  -6 -12   24.16    7.79
   8   6 -12   17.16    7.29
  -7  -6  12   69.61   12.85
   7  -6 -12   36.89   10.50
  -7  -6  12   40.56    5.50
   7   6 -12   49.97   11.07
   6  -6 -12    0.24    3.58
   5  -6 -12   41.47   10.90
   4  -6 -12   -2.68    3.74
  -3   6  12   46.94   14.23
   3  -6 -12   10.81    5.19
  -2   6  12   11.21    6.85
   2  -6 -12   17.66    6.83
  -1   6  12   68.29   19.03
   1  -6 -12   32.73    9.43
   0  -6 -12   14.86    7.26
  -1  -6 -12   65.57   13.44
  -2  -6 -12    5.61    4.83
  -3  -6 -12   67.62   14.34
   4   6  12    2.76    6.60
  -4  -6 -12   -6.86    7.57
   5   6  12   75.45   15.89
  -5  -6 -12   95.33   17.57
  -6   6 -12   18.24    3.26
  -6   6 -12   16.04    2.56
   6   6  12   10.29    5.20
  -6  -6 -12   14.54    7.53
   7   6  12   38.50   12.56
  -7   6 -12   27.62    5.04
  -7  -6 -12   58.92   14.61
  -7   6 -12   50.11    5.22
   8   6  12    2.48    5.52
  -8   6 -12    1.21    2.13
  -8  -6 -12    2.39    5.86
  -9   6 -12   43.17    7.72
   9   6  12   38.14   13.34
  -9  -6 -12   51.41   14.20
 -10   6 -12   -1.83    2.73
  10   6  12   -2.08    5.21
 -10  -6 -12    1.92    6.27
  11   6  12    8.62    4.84
 -11   6 -12   26.05    8.15
 -11  -6 -12   24.78   11.29
 -12   6 -12    0.11    3.21
 -12  -6 -12   -3.54    6.67
 -13  -6 -12   38.80   14.52
 -13   6 -12   44.06   12.92
  13   6  12   31.77   12.97
 -14  -6 -12   -2.09    4.00
 -14   6 -12   12.33    7.84
 -15   6 -12   42.27   13.99
 -15  -6 -12    8.33    5.88
 -16  -6 -12  -18.94    9.86
 -16   6 -12    4.36    8.27
 -17   6 -12   15.89    8.60
 -17  -6 -12   12.02   10.40
 -18  -6 -12   13.08   10.35
 -18   6 -12   -4.66    6.89
 -19  -6 -12   16.60   10.17
 -20  -6 -12    9.42   13.26
 -25  -7  12   17.25   12.60
 -24  -7  12   -8.08   10.58
 -24   7  12   21.86   19.38
 -23  -7  12   31.28   16.26
 -22  -7  12   -1.43    8.13
 -21  -7  12    0.84    6.82
 -20  -7  12   17.59   10.16
  20  -7 -12    5.91    5.04
  19  -7 -12   18.00    8.42
 -19  -7  12   12.42    9.69
  18  -7 -12   15.88    7.22
 -18  -7  12   29.25   13.61
  17  -7 -12   15.38    8.14
 -17  -7  12   16.85    5.96
 -17  -7  12   22.20   12.22
  16  -7 -12    2.40    5.15
 -16  -7  12    6.81    3.52
 -16  -7  12    8.18    6.63
  15  -7 -12   23.40    7.14
 -15  -7  12   27.61   12.41
  15   7 -12   55.38   17.29
  14  -7 -12   20.34    7.84
 -14  -7  12   17.58   11.43
  14   7 -12   20.55   11.33
  13  -7 -12   22.44    8.16
 -13  -7  12    8.19    6.77
 -13  -7  12   14.47    4.71
  13   7 -12   21.70    9.74
 -12  -7  12   44.52   13.26
  12  -7 -12   17.89    7.80
 -12  -7  12   40.80    7.40
  12   7 -12   39.06   12.91
 -11  -7  12   34.16   12.10
  11  -7 -12   17.49    7.22
 -11  -7  12   20.97    5.04
  11   7 -12   10.05    4.99
 -10  -7  12   43.59   11.91
  10  -7 -12   53.75   13.38
 -10  -7  12   40.11    6.70
  10   7 -12   44.72   12.97
  -9  -7  12   42.98   11.54
   9  -7 -12   35.98   10.27
   9   7 -12   46.80   12.96
  -9  -7  12   37.58    5.54
  -8  -7  12   21.82    3.56
   8  -7 -12   25.96    9.72
   8   7 -12   24.74    9.86
   7  -7 -12   25.68    9.01
   7   7 -12   39.42   11.08
   6  -7 -12   -0.01    3.20
   6   7 -12    6.52    4.96
   5  -7 -12   27.98    8.28
   5   7 -12   23.17    7.96
   4  -7 -12   16.97    8.51
   4   7 -12    3.70    3.30
   3  -7 -12   65.14   13.84
   3   7 -12   55.79    9.66
   2   7 -12    4.43    3.46
   2  -7 -12    2.65    4.75
   1   7 -12    4.51    2.81
   1  -7 -12   -0.48    3.87
   0  -7 -12   25.45    8.82
   0   7 -12   10.35    2.90
  -1  -7 -12   -1.60    3.53
  -1   7 -12    0.23    1.18
  -2  -7 -12    9.05    5.82
  -3  -7 -12    7.79    7.16
   4   7  12   33.81   12.03
  -4  -7 -12   28.30   10.29
   5   7  12    5.65    5.49
  -5  -7 -12    3.09    5.18
   6   7  12   30.21   11.96
  -6  -7 -12   28.55   10.15
   7   7  12   34.59   11.17
  -7  -7 -12   54.24   14.64
  -8   7 -12    8.17    2.28
   8   7  12   13.24    8.94
  -8   7 -12   11.45    2.82
  -8  -7 -12   10.12   10.28
  -9   7 -12    8.46    2.46
   9   7  12   18.55    9.10
  -9  -7 -12   15.32    8.41
  -9   7 -12    8.79    3.01
 -10   7 -12    8.31    2.82
 -10   7 -12    7.18    4.19
  10   7  12   12.11    7.05
 -10  -7 -12    2.62    6.29
  11   7  12   11.22    8.37
 -11   7 -12   12.06    4.28
 -11  -7 -12   24.57    9.85
 -12   7 -12   16.22    6.52
 -12  -7 -12   15.54    9.25
 -13  -7 -12   12.07    7.83
 -13   7 -12   -5.17    6.23
 -14  -7 -12   33.28   13.15
 -14   7 -12    5.02    6.71
 -15  -7 -12   -1.51    4.56
 -16  -7 -12    8.44    8.41
 -17  -7 -12    2.84    6.52
 -18  -7 -12   16.05   11.32
 -19  -7 -12   -5.17    6.68
 -25  -8  12   -5.38   13.24
 -24  -8  12   25.22   14.84
 -23  -8  12   -4.46    7.69
 -22  -8  12   14.66   12.90
 -21  -8  12    3.00    7.41
  20  -8 -12   15.21    8.33
 -20  -8  12   14.64    9.58
  19  -8 -12   10.17    7.48
 -19  -8  12   -4.96    5.96
  18  -8 -12   43.99   12.49
 -18  -8  12   28.95   12.52
  17  -8 -12    9.93    6.93
 -17  -8  12    3.04    5.78
  16  -8 -12   49.27   13.15
 -16  -8  12   35.11   14.42
  15  -8 -12    1.50    4.32
 -15  -8  12   24.43   12.38
  14  -8 -12   66.15   13.81
 -14  -8  12   61.83   15.71
  14   8 -12   50.39   15.33
  13  -8 -12    3.22    4.74
 -13  -8  12    4.76    3.58
 -12  -8  12   68.50   16.68
  12  -8 -12   41.06   11.09
 -12  -8  12   45.13    7.37
  12   8 -12   40.61   12.95
 -11  -8  12    2.00    5.04
  11  -8 -12   11.34    6.59
 -11  -8  12   18.27    6.88
  10  -8 -12   20.96   10.36
 -10  -8  12   36.66    5.65
  10   8 -12   49.05   13.42
  -9  -8  12    0.30    0.79
  -9  -8  12   -2.91    1.90
   9  -8 -12    3.50    5.95
   9   8 -12    6.07    5.73
   8  -8 -12   19.93    9.10
   8   8 -12   36.12   10.69
   7  -8 -12   10.81    5.69
   7   8 -12    6.34    6.18
   6  -8 -12   88.70   16.63
   6   8 -12   78.52   15.54
   5  -8 -12   -2.80    5.92
   5   8 -12   -4.64    6.90
   4  -8 -12   63.01   13.62
   4   8 -12   65.33   13.77
   3   8 -12    2.71    4.42
   3  -8 -12   -0.37    5.55
   2   8 -12    4.81    2.80
   2  -8 -12   13.52    6.96
   1   8 -12    7.80    5.06
   1  -8 -12   -4.84    5.45
   0  -8 -12    7.05    5.37
   0   8 -12   12.80    4.63
  -1  -8 -12   -0.06    3.18
  -1   8 -12   -0.69    2.63
  -2  -8 -12   19.43    9.54
  -2   8 -12   13.08    4.29
  -3  -8 -12   -7.59    6.05
  -3   8 -12    7.28    3.02
   4   8  12   27.06   13.03
  -4  -8 -12   12.60    7.42
  -4   8 -12    9.16    2.38
   5   8  12    5.28    5.63
  -5  -8 -12   -3.41    7.45
   6   8  12   24.51   10.29
  -6  -8 -12   31.37   11.28
  -7  -8 -12   -1.31    4.48
  -8  -8 -12   61.56   16.35
  -9  -8 -12    1.38    6.41
 -10  -8 -12   31.79   13.08
 -11  -8 -12    8.99    8.04
 -12  -8 -12    9.89    9.21
 -13  -8 -12    7.45    7.78
 -14  -8 -12   -1.00    6.15
 -15  -8 -12    7.17    8.33
 -16  -8 -12    7.67    9.58
 -17  -8 -12   -6.10    8.83
 -24  -9  12  -28.41   14.67
 -23  -9  12   35.95   14.34
 -22  -9  12    1.14    6.58
 -21  -9  12   15.79    9.79
  20  -9 -12   -2.09    5.59
 -20  -9  12  -17.82   12.19
  19  -9 -12   29.82   11.01
 -19  -9  12   22.49   11.60
  18  -9 -12    8.62    7.35
 -18  -9  12    9.55    5.07
  17  -9 -12   50.70   13.31
 -17  -9  12   72.29   18.16
  16  -9 -12   13.22    7.49
 -16  -9  12    2.35    9.35
  15  -9 -12   40.46   12.19
 -15  -9  12   40.53   13.93
 -14  -9  12    9.47    6.57
  14  -9 -12    6.76    5.07
 -13  -9  12   65.68   17.77
  13  -9 -12   47.24   12.60
 -12  -9  12   15.75    5.40
  12  -9 -12   32.25   10.85
  12   9 -12   -6.76    8.40
 -11  -9  12   26.20    6.32
  11  -9 -12   68.90   14.91
  11   9 -12   50.39   15.70
 -10  -9  12    3.88    2.13
  10  -9 -12    7.37    8.14
  10   9 -12   11.24    7.41
   9  -9 -12   22.47   12.34
   9   9 -12   47.17   13.42
   8  -9 -12    5.82    8.52
   8   9 -12   11.51    4.99
   7  -9 -12   17.13   10.34
   7   9 -12   38.87   13.52
   6  -9 -12   -0.04    5.33
   6   9 -12   15.82    8.92
   5  -9 -12   44.90   16.19
   5   9 -12   91.64   17.85
   4   9 -12   13.58    7.13
   4  -9 -12    5.11    8.29
   3   9 -12   15.42    7.66
   3  -9 -12    3.83    7.68
   2   9 -12   -2.52    5.13
   2  -9 -12   15.92    8.12
   1   9 -12   20.93    7.52
   1  -9 -12   20.20    9.18
   0   9 -12    3.24    3.48
   0  -9 -12    4.85    5.24
  -1  -9 -12   17.37    7.90
  -1   9 -12   26.24    8.49
  -2  -9 -12    1.97    5.71
  -2   9 -12    1.50    3.33
  -3  -9 -12   20.20    8.62
  -3   9 -12   20.40    5.95
  -4  -9 -12    0.25    5.29
  -4   9 -12    4.39    3.14
  -5  -9 -12   16.46    8.19
  -5   9 -12   27.59    6.61
  -6  -9 -12   17.41    8.45
  -7  -9 -12   18.89    8.60
  -8  -9 -12   10.03    7.44
  -9  -9 -12   42.07   13.89
 -10  -9 -12   15.58   10.89
 -11  -9 -12   25.03   12.58
 -12  -9 -12    1.72    5.36
 -13  -9 -12   21.36   12.91
 -14  -9 -12   15.56   11.31
 -15  -9 -12   15.55   10.45
 -23 -10  12  -34.27   16.09
 -22 -10  12   20.36   13.08
 -21 -10  12  -40.25   16.47
 -20 -10  12   10.22    6.64
 -19 -10  12   -1.16    5.99
  18 -10 -12   31.00   11.16
 -18 -10  12   21.16   12.42
  17 -10 -12   11.54    6.89
 -17 -10  12   14.11   10.52
  16 -10 -12   38.02   12.06
 -16 -10  12   48.39   17.44
  15 -10 -12   19.26    9.41
  14 -10 -12   24.08    9.63
  13 -10 -12   14.90    8.11
  12 -10 -12   34.30   11.58
  11 -10 -12   39.36   12.46
  11  10 -12   34.46   14.95
  10 -10 -12   26.80   14.99
  10  10 -12   40.66   15.35
   9 -10 -12    5.52    9.08
   9  10 -12   37.13   15.75
   8 -10 -12    9.75   10.16
   8  10 -12   45.02   15.18
   7 -10 -12    9.98    7.67
   7  10 -12   32.03   13.41
   6 -10 -12   19.05   10.53
   6  10 -12   13.95    6.98
   5 -10 -12    4.52    9.78
   5  10 -12   -1.23    5.32
   4  10 -12   45.57   14.35
   4 -10 -12   11.60   12.21
   3  10 -12    4.69    6.77
   3 -10 -12    4.11    6.06
   2  10 -12   25.26   10.44
   2 -10 -12    3.15    6.35
   1  10 -12    9.39    6.54
   1 -10 -12   11.83    6.27
   0  10 -12   30.70    9.99
   0 -10 -12   38.37   13.25
  -1 -10 -12   17.68    9.32
  -1  10 -12   13.99    7.92
  -2 -10 -12   20.60    8.33
  -3 -10 -12   18.34    9.10
  -4 -10 -12   30.03   10.93
  -5 -10 -12   17.76    8.25
  -6 -10 -12   16.63    8.77
  -7 -10 -12   41.41   14.77
  -8 -10 -12   22.81   11.24
  -9 -10 -12   19.60   11.52
 -10 -10 -12   12.40   10.01
 -11 -10 -12   42.50   17.20
 -12 -10 -12    2.91    5.09
 -13 -10 -12   36.16   14.08
 -21 -11  12   21.70   12.52
 -20 -11  12   24.80   13.09
  16 -11 -12   10.59    7.63
  15 -11 -12   21.49    9.86
  14 -11 -12   24.55   10.37
  13 -11 -12   15.37    8.40
  12 -11 -12   37.69   10.95
  11 -11 -12    7.09    6.35
  10 -11 -12   22.60   12.60
   9 -11 -12    8.16   11.08
   8 -11 -12    6.17    7.55
   7 -11 -12    3.73    7.54
   7  11 -12   11.63    5.88
   6 -11 -12   19.41   13.35
   6  11 -12   35.62   13.08
   5  11 -12  -10.78   10.44
   5 -11 -12    3.16    8.10
   4 -11 -12   13.51    7.75
   3 -11 -12   10.94    8.25
   2 -11 -12   19.28   11.59
   1 -11 -12   23.78   11.27
   0 -11 -12   20.96    9.90
  -1 -11 -12   35.13   14.88
  -2 -11 -12   21.43   12.05
  -3 -11 -12   29.56   12.77
  -4 -11 -12   35.70   13.34
  -5 -11 -12   25.51   10.09
  -6 -11 -12   28.02   10.92
  -7 -11 -12    6.83    5.33
  -8 -11 -12   50.78   16.91
  -9 -11 -12    2.27    6.69
 -10 -11 -12   10.82    7.40
 -11 -11 -12  -10.66    8.52
  13 -12 -12    6.73    4.92
  12 -12 -12    9.76    7.51
  11 -12 -12   24.84   11.37
  10 -12 -12    3.08    9.96
   9 -12 -12   11.82   11.12
   8 -12 -12    3.57    8.69
   7 -12 -12   22.02   12.19
   6 -12 -12    1.91    8.37
   5 -12 -12    6.11   10.05
   4 -12 -12    3.62    8.30
   3 -12 -12    8.40    7.99
   2 -12 -12    1.68    7.55
   1 -12 -12   10.32   11.40
   0 -12 -12   13.25    9.26
  -1 -12 -12   10.68    8.38
  -2 -12 -12   12.37    7.56
  -3 -12 -12   36.06   14.20
  -4 -12 -12    6.88    7.86
  -5 -12 -12   20.07    9.63
  -6 -12 -12   10.12    8.58
  -7 -12 -12    1.53    5.67
  -8 -12 -12   -0.73    4.50
   8 -13 -12   -1.23    4.32
   7 -13 -12    9.98   10.72
   6 -13 -12    3.06    7.75
   5 -13 -12    1.73    7.49
   4 -13 -12   13.02   10.50
   3 -13 -12    6.88   10.11
   2 -13 -12    8.09    9.90
   1 -13 -12    2.88    8.03
   0 -13 -12    3.13    5.38
  -1 -13 -12  -14.55    8.63
  -2 -13 -12   15.52    7.87
  -3 -13 -12   -6.40    8.07
 -27   0  13   45.04   18.55
 -26   0  13    3.81   10.65
 -25   0  13  -25.45   14.86
 -24   0  13   13.15   14.92
 -23   0  13    1.09    6.81
 -22   0  13  -11.67   10.22
 -21   0  13   12.78   11.18
 -20   0  13   -0.10    5.77
 -19   0  13   -0.25    5.72
 -18   0  13    7.53    8.31
 -17   0  13   -3.27    8.18
 -16   0  13    3.09    3.04
 -16   0  13    5.76    7.34
 -15   0  13   -1.26    2.73
 -15   0  13   -1.58    7.95
 -14   0  13    1.23    5.88
 -14   0  13   -4.19    4.34
 -13   0  13    0.77    5.95
 -13   0  13   -2.33    3.33
 -12   0  13    3.57    4.94
 -12   0  13   -0.92    2.51
  12   0 -13   -1.07    2.34
 -11   0  13   -2.95    3.34
  11   0 -13    3.91    3.49
 -11   0  13    3.52    4.61
  10   0 -13    0.63    2.70
 -10   0  13   -1.37    4.39
 -10   0  13    6.99    6.47
   9   0 -13   -0.34    2.14
  -9   0  13    1.31    3.26
  -9   0  13    5.04    4.14
   8   0 -13   -0.23    2.12
  -8   0  13   -1.03    3.81
  -8   0  13   -3.24    6.76
   7   0 -13    0.46    2.74
  -7   0  13   -1.26    3.09
  -7   0  13    6.31    6.00
   6   0 -13   -0.35    2.24
  -6   0  13   -1.56    2.88
   5   0 -13   -0.71    1.88
  -5   0  13   -2.97    4.45
   4   0 -13    2.86    3.30
  -4   0  13   -1.85    4.08
   3   0 -13    3.87    4.00
  -3   0  13   14.44    7.09
   2   0 -13    0.02    2.15
  -2   0  13   -4.00    3.36
   1   0 -13   -3.23    4.89
  -1   0  13   -0.31    1.84
   0   0 -13    0.28    3.13
   0   0  13    2.66    2.05
   1   0  13   -0.15    1.47
   1   0  13    2.59    1.82
  -1   0 -13   -4.60    5.03
  -2   0 -13   -2.61    3.50
   2   0  13    0.50    1.41
   2   0  13    0.14    0.81
  -3   0 -13   -1.19    2.09
  -4   0 -13   -2.11    4.04
  -5   0 -13   -1.45    2.74
  -6   0 -13    1.16    3.35
  -7   0 -13    2.55    3.83
  -8   0 -13    4.85    3.79
  -9   0 -13    0.73    3.39
 -10   0 -13    4.63    4.98
 -11   0 -13    7.17    7.44
 -12   0 -13    3.93    6.85
 -13   0 -13   -2.17    4.60
 -14   0 -13   -4.36    7.67
 -15   0 -13  -13.86    9.03
 -16   0 -13    9.44    5.57
 -17   0 -13   13.08    9.92
 -18   0 -13    6.72    9.89
 -19   0 -13    6.18    6.00
 -20   0 -13  -11.21   10.03
 -21   0 -13  -12.52   17.31
 -22   0 -13   -0.35   13.75
 -23   0 -13  -11.21   10.80
 -24   0 -13    9.16    7.51
 -27  -1  13   12.17   10.97
 -27   1  13  -17.40   13.95
 -26  -1  13   31.08   17.71
 -26   1  13   16.11   15.88
 -25  -1  13   -1.04    8.43
 -25   1  13    6.95   11.23
 -24  -1  13  -11.91   14.80
 -24   1  13   -1.30    9.85
 -23  -1  13   -4.00    9.00
 -23   1  13   -3.19    7.72
 -22  -1  13  -12.28    8.37
 -22   1  13   16.14   12.40
 -21  -1  13   -5.65    8.79
 -21   1  13    6.17    9.90
 -20  -1  13    2.12    6.47
 -20   1  13    8.28   10.49
 -19  -1  13   -2.13    7.70
 -19   1  13   -2.26    9.14
 -18  -1  13    1.17    7.63
 -18   1  13   25.17   14.20
 -17  -1  13   41.88   10.91
 -17  -1  13   45.59   14.80
 -17   1  13   50.69   16.99
 -16  -1  13   -2.93    4.39
 -16  -1  13    6.71    5.35
 -16   1  13   -0.69    5.95
 -15  -1  13   15.42    9.27
 -15  -1  13    3.14    3.91
 -15   1  13    6.85    4.94
 -15   1  13    8.88    8.19
 -14  -1  13   -1.31    5.31
 -14  -1  13    4.10    2.92
 -14   1  13    8.52    8.81
 -14   1  13   12.35    5.90
  14  -1 -13    4.89    4.78
  13  -1 -13    9.94    5.38
 -13  -1  13    6.32    4.09
 -13  -1  13   17.94    7.39
 -13   1  13    4.83    5.19
 -13   1  13   12.12    6.01
 -12   1  13    7.96    4.59
  12  -1 -13    1.35    2.89
 -12  -1  13    2.76    4.58
 -12   1  13   -0.64    6.58
 -12  -1  13    1.53    3.12
 -11   1  13   -0.95    3.68
  11  -1 -13    3.53    2.91
 -11  -1  13   -0.71    6.12
 -11   1  13    4.59    5.49
 -11  -1  13    5.41    5.02
  10   1 -13    1.62    2.23
 -10  -1  13   -3.35    4.35
 -10   1  13    2.55    3.41
  10  -1 -13    2.45    2.93
 -10  -1  13    1.86    4.45
 -10   1  13    1.95    6.67
   9   1 -13   13.71    4.96
   9  -1 -13   15.52    5.45
  -9   1  13   16.76    5.93
  -9  -1  13   16.70    8.12
  -9   1  13    7.52    4.64
   8   1 -13    3.64    3.04
   8  -1 -13    5.19    3.91
  -8   1  13    5.12    4.31
  -8  -1  13    6.00    4.30
  -8   1  13    2.71    4.59
   7   1 -13    4.06    2.59
   7  -1 -13    8.78    3.87
  -7   1  13    6.56    3.15
  -7  -1  13    8.82    4.04
   6   1 -13    3.30    2.99
   6  -1 -13   -1.58    3.40
  -6   1  13    0.61    2.76
  -6  -1  13   10.60    5.90
   5   1 -13    6.05    4.09
   5  -1 -13    2.56    2.67
  -5  -1  13    5.69    4.80
  -5   1  13    0.38    2.85
  -4   1  13    6.40    5.24
  -4  -1  13    6.61    4.26
   4   1 -13    3.46    3.17
   4  -1 -13   -2.80    3.60
  -4  -1  13   12.34    5.72
  -3   1  13   48.53   10.96
  -3  -1  13   55.57   10.82
   3   1 -13   59.82    9.03
   3  -1 -13   62.44   10.43
  -3  -1  13   65.63    9.43
  -2   1  13   25.34   13.27
   2   1 -13    1.60    2.75
  -2  -1  13    6.25    3.44
   2  -1 -13    7.61    4.33
  -2  -1  13    4.79    5.08
  -1  -1  13   45.01    5.76
  -1  -1  13   62.43   11.94
   1   1 -13   50.79    8.55
   1  -1 -13   50.57    9.72
  -1   1  13   52.05   12.13
   0  -1  13   -0.17    3.62
   0   1  13   -1.85    5.64
   0   1 -13    5.97    3.63
   0  -1 -13    5.90    5.27
   1   1  13    2.25    5.24
  -1  -1 -13    0.69    2.75
  -1   1 -13    9.44    4.31
  -2   1 -13    0.88    2.84
  -2  -1 -13    1.12    2.50
   2   1  13    3.28    6.02
   2   1  13    2.41    1.97
  -3   1 -13    1.12    2.18
  -3  -1 -13    1.57    3.38
   3   1  13   -1.31    3.02
  -4   1 -13    3.73    2.55
  -4  -1 -13   -2.06    2.94
   4   1  13    2.11    2.32
  -5   1 -13    6.53    3.45
  -5  -1 -13   10.49    5.32
   5   1  13   14.41    4.54
  -6   1 -13    4.38    3.88
  -6  -1 -13   12.05    6.40
   6   1  13    3.81    3.36
   7   1  13    9.12    3.44
  -7   1 -13    7.48    4.76
  -7  -1 -13    7.59    3.46
   8   1  13    0.45    3.40
  -8   1 -13    2.96    3.30
  -9   1 -13   66.28   12.90
   9   1  13   50.20    8.88
  -9  -1 -13   53.85   12.22
 -10  -1 -13    6.82    4.79
 -10   1 -13   -7.94    7.10
  10   1  13    1.31    2.69
 -11  -1 -13   20.99    8.19
 -11   1 -13   25.57    8.79
  11   1  13   18.95    6.07
 -12  -1 -13   -1.42    4.72
 -12   1 -13   -0.70    5.33
  12   1  13    4.02    3.03
 -13  -1 -13   42.42   12.33
 -13   1 -13   39.84   11.83
  13   1  13   29.95    8.32
 -14  -1 -13   -4.22    9.65
 -14   1 -13    3.32    4.17
 -15  -1 -13    0.40    6.66
 -15   1 -13   -0.27    5.63
 -16   1 -13  -11.41   11.16
 -16  -1 -13   -5.39   10.00
 -17   1 -13    0.72    7.06
 -17  -1 -13   -1.11    5.74
 -18   1 -13   -1.22    5.78
 -18  -1 -13    1.81   13.45
 -19  -1 -13   12.08   10.99
 -19   1 -13   -5.45    8.35
 -20  -1 -13   20.27   13.87
 -20   1 -13   -2.45   11.92
 -21  -1 -13   19.14   13.94
 -21   1 -13  -39.39   17.62
 -22  -1 -13   16.12   12.09
 -22   1 -13   25.64   16.51
 -23  -1 -13   12.39   12.60
 -23   1 -13   23.38   10.89
 -24  -1 -13   54.00   24.18
 -24   1 -13  -25.50   15.37
 -25   1 -13   15.20   14.49
 -27  -2  13   -6.23   12.47
 -27   2  13   -9.90   11.73
 -26  -2  13   13.29   10.30
 -26   2  13   14.04    9.14
 -25  -2  13   -6.48   12.44
 -25   2  13    9.69   14.13
 -24  -2  13    1.21    6.90
 -24   2  13   -9.62    9.21
 -23  -2  13    1.02    6.95
 -23   2  13   -3.33   10.55
 -22  -2  13   13.22    9.86
 -22   2  13   -4.24   10.01
 -21  -2  13    8.71    8.02
 -21   2  13   -8.59    6.08
 -20  -2  13   -7.35    8.53
 -20   2  13    2.42   10.79
 -19  -2  13    0.60    6.87
 -19   2  13   -5.23    9.08
 -18  -2  13    3.12    2.92
 -18  -2  13   12.25    9.86
 -18   2  13    3.26    6.90
 -17  -2  13    3.93    4.22
 -17  -2  13    7.24    7.98
 -17   2  13   -2.26    6.59
 -16  -2  13   81.76   14.15
 -16  -2  13  108.74   22.21
 -16   2  13  118.58   25.61
  15  -2 -13    1.69    4.00
 -15  -2  13    3.33    6.89
 -15  -2  13    2.14    3.90
 -15   2  13   -3.34    9.54
  14  -2 -13   39.27    9.18
 -14  -2  13   35.48   12.53
 -14  -2  13   64.04   12.49
 -14   2  13   28.77   13.13
 -14   2  13   34.65    9.94
 -13   2  13   -1.29    4.21
  13  -2 -13   -8.35    5.62
 -13  -2  13   -3.51    6.20
 -13  -2  13   -2.75    2.92
 -13   2  13   14.92   10.34
 -12   2  13   18.29    7.91
  12  -2 -13    9.67    4.40
 -12  -2  13   10.51    7.37
 -12  -2  13   13.08    5.43
 -12   2  13   21.00    8.51
 -11   2  13   -0.34    2.77
  11  -2 -13    2.57    3.87
 -11  -2  13    5.42    3.81
 -10   2  13   31.55    9.39
  10  -2 -13   18.86    5.84
 -10  -2  13    9.20    6.12
   9  -2 -13   12.86    5.66
  -9   2  13   17.14    6.50
  -9  -2  13    4.04    5.56
   8  -2 -13   17.92    6.79
  -8   2  13   16.98    7.34
  -8  -2  13    3.58    3.27
   8   2 -13    3.72    2.47
   7   2 -13    5.96    3.21
   7  -2 -13   -0.54    2.38
  -7  -2  13    2.86    3.61
  -7   2  13    7.81    4.32
  -7  -2  13   12.26    6.51
   6   2 -13   25.72    6.11
   6  -2 -13   27.28    8.03
  -6  -2  13   29.81    7.92
  -6  -2  13   26.05    6.92
  -6   2  13   20.89    7.89
   5   2 -13    6.31    3.39
  -5  -2  13    1.09    2.52
   5  -2 -13    3.41    4.00
  -5   2  13    5.54    4.62
  -5  -2  13   -2.14    3.69
  -4   2  13   49.55   11.82
  -4  -2  13   35.94    7.81
   4   2 -13   52.99    7.91
  -4  -2  13   58.58    9.54
   4  -2 -13   40.84    9.00
  -3   2  13    9.98    5.73
   3   2 -13    4.14    2.97
  -3  -2  13    4.28    2.76
  -3  -2  13    0.45    2.92
   3  -2 -13    1.04    3.54
  -2  -2  13   98.33   13.90
   2   2 -13  111.35   11.44
  -2  -2  13   91.98    7.38
  -2   2  13  105.19   17.61
   2  -2 -13   87.36   13.19
   1   2 -13    4.04    2.90
  -1   2  13    9.87    4.12
   1  -2 -13   -1.53    4.03
  -1  -2  13    1.99    3.15
   0   2  13   22.30    7.38
   0   2 -13   32.08    6.43
   0  -2 -13   35.63    8.94
  -1  -2 -13   -0.90    3.03
   1   2  13   -2.74    7.24
  -1   2 -13   -1.26    3.00
  -2  -2 -13   43.01    9.65
   2   2  13   50.34    9.12
   2   2  13   49.44   13.10
  -2   2 -13   50.93    8.47
  -3   2 -13   -1.20    3.18
   3   2  13    2.63    4.63
  -3  -2 -13    3.76    4.45
   3   2  13    1.35    3.03
  -4   2 -13   11.59    4.66
   4   2  13   10.62    4.60
  -4  -2 -13    5.41    4.36
  -5   2 -13   -0.23    2.59
   5   2  13   -1.06    4.20
  -5  -2 -13    5.47    4.53
   6   2  13   27.54    7.13
  -6   2 -13   24.94    7.79
  -6  -2 -13   31.80    9.22
   7   2  13   12.99    5.03
  -7   2 -13   13.25    5.57
  -7  -2 -13    3.22    4.91
   8   2  13   38.31    9.53
  -8  -2 -13   54.82   12.56
  -8   2 -13   47.81   10.85
  -9   2 -13    4.51    4.46
   9   2  13   -3.14    5.88
  -9  -2 -13    4.45    5.78
 -10  -2 -13   96.31   17.31
 -10   2 -13   94.04   15.60
  10   2  13  122.02   17.71
 -11  -2 -13   -0.44    6.45
 -11   2 -13   10.70    6.79
  11   2  13    2.86    3.62
 -12  -2 -13   70.79   16.77
 -12   2 -13   81.74   16.71
  12   2  13   71.26   14.26
 -13  -2 -13    3.20    4.54
 -13   2 -13   -2.59    4.29
  13   2  13   -0.10    4.31
 -14  -2 -13   24.85   10.22
 -14   2 -13   14.83    8.53
 -15  -2 -13   -2.42    5.22
 -15   2 -13  -10.87    7.04
 -16   2 -13   -2.49    6.71
 -16  -2 -13  -12.80   10.75
 -17   2 -13   -5.52    9.48
 -17  -2 -13   -2.48    5.43
 -18   2 -13   -1.89    9.32
 -18  -2 -13    3.59    5.96
 -19   2 -13    7.34    9.89
 -19  -2 -13   20.51   12.83
 -20  -2 -13   29.47   15.36
 -20   2 -13   -0.84   11.43
 -21  -2 -13   11.62    7.64
 -21   2 -13  -11.88    9.31
 -22  -2 -13   10.57    6.57
 -22   2 -13  -28.36   16.24
 -23  -2 -13   12.62   10.39
 -23   2 -13    1.26    8.38
 -24   2 -13  -26.76   19.46
 -27  -3  13   20.98   11.87
 -26  -3  13   20.23   12.49
 -26   3  13   11.02   13.85
 -25  -3  13    9.31    6.50
 -25   3  13   -4.08    9.87
 -24  -3  13   -3.04    8.86
 -24   3  13  212.35   44.31
 -23  -3  13   -1.44    7.30
 -23   3  13    6.79   11.78
 -22  -3  13   -8.50    8.57
 -22   3  13    7.88    7.82
 -21  -3  13   14.08    9.72
 -21   3  13   -8.62    9.69
 -20  -3  13    8.39    8.62
 -20   3  13   10.38    8.92
 -19  -3  13    4.35    3.47
 -19   3  13    9.89    7.70
 -18  -3  13   -2.39    5.71
 -18  -3  13   -1.09    5.78
 -18   3  13   -8.37   12.43
 -17  -3  13   17.67    6.03
 -17  -3  13   29.97   13.41
 -17   3  13    2.04    6.17
  17  -3 -13   16.13    7.19
  16  -3 -13   16.54    7.36
 -16  -3  13    5.30    5.14
 -16  -3  13   11.57    6.63
 -16   3  13    4.59    6.13
  15  -3 -13  140.91   18.23
 -15  -3  13  109.46   22.09
 -15  -3  13  108.01   15.60
  14  -3 -13    4.06    3.43
 -14  -3  13    1.72    5.03
 -14  -3  13   -5.11    3.64
  13  -3 -13   27.78    7.66
 -13  -3  13   31.46   12.29
 -13  -3  13   18.23    6.25
 -12   3  13    3.44    3.73
  12  -3 -13   -6.66    5.24
 -12  -3  13    1.70    4.42
 -11   3  13   26.22    8.93
  11  -3 -13   17.12    6.22
 -11  -3  13   11.58    5.98
 -10   3  13    4.64    5.72
  10  -3 -13    3.21    2.92
 -10  -3  13   -1.08    5.12
  -9  -3  13    7.94    4.37
   9  -3 -13    7.09    4.82
  -9  -3  13   12.86    6.49
  -8  -3  13    1.74    2.90
   8  -3 -13    0.70    4.05
  -8   3  13    5.33    6.17
  -8  -3  13    5.98    5.03
   7  -3 -13   19.16    6.69
  -7  -3  13   19.10    5.13
  -7  -3  13    9.40    4.03
  -7   3  13   36.71   10.62
  -6  -3  13   -0.23    2.96
   6  -3 -13   -0.53    2.54
  -6  -3  13    2.81    2.82
  -6   3  13    1.30    5.18
  -5  -3  13   43.28    8.22
   5   3 -13   35.93    5.84
  -5  -3  13   45.64    8.53
   5  -3 -13   48.30   10.13
  -5   3  13   38.89   11.17
  -4   3  13    8.29    3.72
   4   3 -13    1.20    1.48
  -4  -3  13    2.18    3.23
  -4  -3  13    4.39    4.35
   4  -3 -13   -3.77    4.16
   3   3 -13   34.10    5.54
  -3  -3  13   28.11    4.78
  -3   3  13   36.79   10.30
   3  -3 -13   35.75    8.58
  -3  -3  13   32.71    7.90
   2   3 -13   -0.86    2.36
  -2   3  13   -3.49    4.42
  -2  -3  13   -4.53    4.14
   2  -3 -13    2.80    3.16
   1   3 -13   62.46    7.41
  -1   3  13   60.19   14.02
   1  -3 -13   54.48   10.64
   0   3  13   -2.52    4.41
   0   3 -13   -0.31    2.66
   0  -3 -13    2.17    4.00
  -1  -3 -13   -3.52    5.42
   1   3  13   -3.40    4.26
  -1   3 -13    3.66    2.53
   2   3  13    9.67    5.99
  -2  -3 -13    7.66    6.32
  -2   3 -13   -1.37    2.17
   3   3  13   15.18    9.15
   3   3  13   10.05    4.64
  -3  -3 -13   11.62    6.12
  -3   3 -13    4.86    1.95
  -4   3 -13    2.94    3.20
   4   3  13   -1.58    4.63
  -4  -3 -13   -3.02    3.38
   4   3  13    4.10    3.42
  -5   3 -13   26.60    6.37
   5   3  13    9.75    4.84
  -5  -3 -13   15.02    7.09
   6   3  13    6.24    3.99
  -6   3 -13    4.69    3.37
  -6  -3 -13    1.28    4.46
   7   3  13   28.03    8.88
  -7   3 -13   29.02    7.13
  -7  -3 -13   25.38    8.13
   8   3  13    4.88    5.79
  -8  -3 -13    5.44    6.21
  -8   3 -13   -0.27    3.79
  -9   3 -13   53.50   10.60
   9   3  13   66.99   13.99
  -9  -3 -13   33.17   10.42
  10   3  13    1.01    3.28
 -10  -3 -13   -6.60    5.60
 -11  -3 -13  108.58   19.94
 -11   3 -13  113.37   17.33
 -12  -3 -13   -1.26    6.59
 -12   3 -13    0.92    3.99
 -13  -3 -13   12.51    6.15
 -13   3 -13   78.70   17.95
 -14  -3 -13    0.73    6.11
 -14   3 -13    1.78    4.99
 -15   3 -13   -1.35    8.21
 -15  -3 -13    6.60    8.82
 -16   3 -13   -4.30    7.20
 -16  -3 -13    3.10    7.93
 -17   3 -13   22.03    9.86
 -17  -3 -13   17.25   11.76
 -18   3 -13    3.06    5.79
 -18  -3 -13  -14.26   12.20
 -19   3 -13   -9.18   12.38
 -19  -3 -13    2.52   12.10
 -20  -3 -13  -19.16   12.18
 -20   3 -13  -14.09   15.88
 -21  -3 -13   -2.91    9.46
 -21   3 -13   17.16   13.15
 -22   3 -13   21.69   17.61
 -22  -3 -13   -3.82    8.53
 -23   3 -13   -0.42    8.58
 -27  -4  13   11.49   11.02
 -26  -4  13   16.30    9.11
 -25  -4  13    2.88   11.54
 -25   4  13   16.80   11.80
 -24  -4  13    9.30    9.33
 -24   4  13  -12.01   13.95
 -23  -4  13   10.83    7.89
 -23   4  13    1.11   10.74
 -22  -4  13  -10.41   10.04
 -22   4  13  -11.19   16.03
 -21  -4  13   -4.40    9.63
 -21   4  13    9.50    9.97
 -20  -4  13    5.48    5.32
 -20   4  13  -14.66   12.15
 -19  -4  13    0.96    4.18
 -19  -4  13   13.84    7.58
 -19   4  13   12.54    9.65
 -18  -4  13   10.79    5.47
 -18  -4  13   19.10   10.73
 -18   4  13   24.34   14.86
  18  -4 -13   13.80    7.13
  17  -4 -13    6.35    5.70
 -17  -4  13    3.19    3.89
 -17  -4  13   15.34   11.14
  16  -4 -13    5.86    4.44
 -16  -4  13    2.03    8.08
 -16  -4  13   10.19    5.27
  15  -4 -13   11.01    6.15
 -15  -4  13    4.90    5.15
 -15  -4  13   12.30    5.20
  14  -4 -13   40.54   10.12
 -14  -4  13   63.08   16.73
 -14  -4  13   48.83    9.72
  13  -4 -13    6.40    5.43
 -13  -4  13    3.93    4.33
  12  -4 -13   30.54    9.03
 -12  -4  13   31.67   11.45
  11  -4 -13    8.25    5.36
 -11  -4  13    4.14    6.61
 -11  -4  13    6.79    2.88
  10  -4 -13   12.15    7.85
 -10  -4  13   -0.96    4.77
 -10  -4  13    3.28    3.63
  -9  -4  13    3.47    2.55
   9  -4 -13    1.84    5.22
  -9   4  13    1.92    4.98
  -9  -4  13   -2.62    5.93
  -8  -4  13   11.82    4.64
  -8  -4  13   14.82    6.40
   8  -4 -13   16.62    6.87
  -8   4  13   13.78    6.62
  -7  -4  13   11.41    6.21
   7  -4 -13   18.57    6.86
  -7  -4  13    5.47    2.99
  -7   4  13    1.38    3.29
  -6  -4  13   33.67    6.96
   6  -4 -13   20.29    7.32
  -6   4  13    2.96    3.47
  -6  -4  13   16.78    5.16
  -5  -4  13    1.34    2.76
  -5  -4  13    6.44    3.33
   5  -4 -13    7.96    5.62
  -5   4  13   12.65    6.17
  -4   4  13   23.44    8.48
  -4  -4  13   37.55    6.92
   4  -4 -13   37.97    9.96
  -4  -4  13   23.52    5.59
  -3  -4  13   -0.53    3.00
  -3   4  13   -8.03    6.06
   3  -4 -13    4.87    4.47
   2   4 -13   10.84    2.65
  -2   4  13   14.98    7.54
   2  -4 -13   13.28    5.98
   1   4 -13    3.20    1.28
  -1   4  13   18.12    9.88
   1  -4 -13    6.94    4.99
   0  -4 -13   -5.41    4.16
   0   4 -13   -1.02    1.98
  -1  -4 -13   -0.05    3.60
  -1   4 -13    0.21    1.61
   1   4  13    0.88    3.67
  -2  -4 -13   29.35    9.25
  -2   4 -13   20.50    4.07
   2   4  13   24.08    8.97
  -3  -4 -13   -0.27    5.24
  -3   4 -13   -0.33    1.81
   3   4  13   -7.82    7.58
  -4  -4 -13    0.51    4.67
   4   4  13   -0.65    5.43
  -4   4 -13    4.97    3.19
  -5   4 -13   15.89    4.71
  -5  -4 -13    5.65    5.79
  -6   4 -13   19.28    5.22
  -6  -4 -13   15.51    7.09
  -7   4 -13    1.01    2.63
  -7  -4 -13    1.02    4.21
  -8   4 -13   35.03    8.17
  -8  -4 -13   33.69   10.73
  -9  -4 -13    6.53    5.05
  -9   4 -13    3.12    4.63
 -10   4 -13   46.30   10.25
 -10  -4 -13   46.32   13.59
 -11  -4 -13    2.73    6.99
 -11   4 -13   13.36    6.12
  11   4  13    0.65    5.42
 -12  -4 -13   32.97   11.37
 -12   4 -13   21.46    7.80
  12   4  13   46.48   14.03
 -13  -4 -13    2.68    6.30
  13   4  13  -11.17   11.10
 -13   4 -13    3.40    4.23
 -14  -4 -13    9.41    8.79
 -14   4 -13   26.73   10.16
 -15   4 -13   -2.76    5.37
 -15  -4 -13   11.19    8.01
 -16   4 -13   29.90   12.15
 -16  -4 -13   20.99   10.19
 -17   4 -13  -11.83   10.88
 -17  -4 -13   13.83    9.71
 -18  -4 -13  -13.10    9.71
 -18   4 -13  -16.73   10.85
 -19  -4 -13   15.24   10.66
 -19   4 -13    3.08    5.73
 -20   4 -13    7.75   10.33
 -20  -4 -13   32.20   16.49
 -21   4 -13    6.59   15.01
 -21  -4 -13    4.77   11.92
 -26  -5  13   28.64   16.05
 -25  -5  13    8.78    6.66
 -25   5  13    7.77   17.63
 -24  -5  13   22.28   13.94
 -24   5  13    7.27   12.16
 -23  -5  13   -8.10   10.78
 -23   5  13  -11.08   13.54
 -22  -5  13   13.68    8.43
 -22   5  13   15.09   15.36
 -21  -5  13    6.29    5.56
 -21   5  13   -1.77   11.11
 -20  -5  13   29.96   14.66
 -20   5  13   20.16   17.28
 -19  -5  13   10.76    9.06
  19  -5 -13    6.28    6.29
  18  -5 -13    9.62    5.12
 -18  -5  13   14.72    5.96
 -18  -5  13   32.33   14.22
  17  -5 -13   -4.13    4.43
 -17  -5  13   10.60    9.96
 -17  -5  13   -3.00    4.89
  16  -5 -13   28.01    9.08
 -16  -5  13   23.77   10.33
 -16  -5  13   38.96    9.51
  15  -5 -13    5.68    3.57
 -15  -5  13    5.16    4.96
 -15  -5  13   15.44    6.08
  14  -5 -13   33.08    9.69
 -14  -5  13   17.65    9.44
  13  -5 -13   22.95    7.90
 -13  -5  13   32.35   11.43
  12  -5 -13   33.32    9.75
 -12  -5  13   36.55   11.24
 -12  -5  13   33.70    7.86
  11  -5 -13    7.74    4.52
 -11  -5  13   11.32    7.59
 -11  -5  13    3.47    4.64
  10  -5 -13   34.54    9.94
 -10  -5  13   49.76   12.34
 -10  -5  13   45.33    8.48
  -9  -5  13    2.66    2.90
  -9  -5  13    1.84    4.28
   9  -5 -13    1.12    3.30
  -8  -5  13   65.48   13.41
  -8  -5  13   50.79    8.08
   8  -5 -13   53.21   12.04
  -7  -5  13    3.28    3.48
   7  -5 -13   -4.41    5.16
  -7  -5  13    4.83    2.16
  -6  -5  13   31.45    5.71
  -6  -5  13   47.89    9.45
   6  -5 -13   38.90    9.94
   5  -5 -13   -0.96    3.65
  -5  -5  13   -0.14    1.87
  -4   5  13   18.82    8.44
   4  -5 -13   34.28   10.35
  -3   5  13   16.05    8.85
   3  -5 -13   14.63    6.52
  -2   5  13   55.41   15.56
   2  -5 -13   41.71   10.27
  -1   5  13   24.68   11.16
   1  -5 -13    4.63    4.00
   0  -5 -13   10.56    6.81
   0   5  13   12.92    8.66
  -1  -5 -13   17.61    7.40
   1   5  13    7.43    4.60
  -2  -5 -13   26.80    9.15
  -2   5 -13   12.53    1.97
   3   5  13   34.21    9.52
  -3  -5 -13   31.83   10.00
  -3   5 -13   24.30    3.31
   4   5  13   22.62   10.21
  -4  -5 -13    8.86    5.13
  -4   5 -13   13.11    3.14
   5   5  13   -6.21    6.16
  -5  -5 -13   -2.17    5.59
  -5   5 -13    2.51    1.75
  -6   5 -13   50.17    7.06
   6   5  13   31.70   10.71
  -6  -5 -13   48.94   12.69
  -7   5 -13    8.61    3.18
   7   5  13   -1.14    4.42
  -7  -5 -13    7.76    5.64
   8   5  13   37.50   11.71
  -8   5 -13   44.03    8.36
  -8  -5 -13   41.57   12.02
   9   5  13    6.68    6.04
  -9  -5 -13   31.30   11.07
  -9   5 -13    9.70    4.48
 -10   5 -13   20.34    6.23
  10   5  13   25.12   10.53
 -10  -5 -13   24.39   11.80
 -11   5 -13    8.50    5.29
  11   5  13    9.62    6.90
 -11  -5 -13   11.40    7.34
 -12  -5 -13   48.98   15.58
 -12   5 -13   29.17    9.13
  12   5  13    1.78    4.71
 -13  -5 -13   27.90   11.76
  13   5  13   11.51    9.64
 -13   5 -13    8.56    5.68
 -14  -5 -13   14.74   10.70
 -14   5 -13   14.88    6.67
 -15   5 -13   15.12    9.01
 -15  -5 -13   15.43    9.72
 -16  -5 -13   24.17    9.55
 -16   5 -13   17.32    7.70
 -17  -5 -13   -9.35   10.80
 -17   5 -13    4.63    6.68
 -18  -5 -13   -9.20   13.37
 -18   5 -13    8.82    6.42
 -19  -5 -13   15.25    9.31
 -20  -5 -13   -2.14    6.55
 -26  -6  13  -17.08   14.84
 -25  -6  13   31.89   16.65
 -24  -6  13   -8.14    9.06
 -24   6  13    3.04   13.36
 -23  -6  13   44.23   18.26
 -23   6  13   74.89   30.58
 -22  -6  13    1.60    6.75
 -22   6  13    7.56   17.12
 -21  -6  13   47.94   16.97
 -20  -6  13   13.40   10.94
  19  -6 -13   40.68   11.37
 -19  -6  13   50.66   16.90
  18  -6 -13    2.47    3.52
 -18  -6  13    0.23    8.61
  17  -6 -13   43.11   12.22
 -17  -6  13   47.78   16.45
 -17  -6  13   59.28   11.54
  16  -6 -13    7.13    4.75
 -16  -6  13    8.03    9.39
 -16  -6  13    7.47    3.38
  15  -6 -13   59.05   13.18
 -15  -6  13   51.45   14.91
  14  -6 -13    5.69    5.19
 -14  -6  13   16.01    8.40
  13  -6 -13   39.98   10.64
 -13  -6  13   61.86   15.49
 -13  -6  13   69.43   11.15
  12  -6 -13    5.11    4.26
 -12  -6  13    2.54    5.84
 -12  -6  13    3.13    3.11
 -11  -6  13   93.11   17.87
  11  -6 -13   80.84   15.02
 -11  -6  13   86.50   10.86
 -10  -6  13   12.79    6.72
  10  -6 -13    3.75    4.90
 -10  -6  13   -2.34    2.65
  -9  -6  13  111.90   17.56
   9  -6 -13   93.38   16.10
  -9  -6  13   95.19   10.42
  -8  -6  13    8.96    5.85
   8  -6 -13    6.45    4.75
  -8  -6  13    1.09    1.88
  -7  -6  13   82.64    7.70
   7  -6 -13   94.59   16.15
   6  -6 -13   -1.12    3.18
   5  -6 -13   68.92   13.63
   4  -6 -13   -0.79    4.87
   3  -6 -13   96.35   16.53
   2  -6 -13   29.93    9.72
   1  -6 -13   41.17   11.70
   0  -6 -13   -2.71    3.87
  -1  -6 -13   46.62   12.16
  -2  -6 -13    1.71    4.50
   3   6  13   38.37   11.38
  -3  -6 -13   46.19   11.25
   4   6  13    2.47    4.50
  -4  -6 -13   -2.14    6.52
   5   6  13   44.84   12.23
  -5  -6 -13   69.14   15.97
  -6   6 -13    3.74    1.19
   6   6  13   -1.67    6.74
  -6  -6 -13   11.41    7.58
  -6   6 -13    5.37    1.83
   7   6  13   60.96   14.66
  -7  -6 -13   76.57   16.82
  -7   6 -13   71.44    7.71
  -7   6 -13   74.03    6.16
  -8   6 -13   -1.75    1.99
   8   6  13   -6.68    3.98
  -8  -6 -13    3.30    5.33
   9   6  13   49.14   14.45
  -9   6 -13   73.39    9.80
  -9  -6 -13   63.37   16.74
  10   6  13   -0.30    3.95
 -10  -6 -13   11.63    9.16
 -10   6 -13    5.89    4.60
 -11   6 -13   55.34   10.00
  11   6  13   55.47   16.15
 -11  -6 -13   60.88   16.59
 -12   6 -13  -10.17    6.52
 -12  -6 -13   -9.62    7.44
 -13  -6 -13   36.20   12.94
 -13   6 -13   39.44    9.91
 -14  -6 -13   -5.89    9.30
 -14   6 -13   14.16    7.56
 -15  -6 -13   27.99   10.64
 -16  -6 -13   -1.22    7.04
 -17  -6 -13   30.17   13.75
 -18  -6 -13   22.60   12.99
 -19  -6 -13   63.56   21.22
 -25  -7  13    6.06   11.94
 -24  -7  13   44.36   17.99
 -23  -7  13   17.45   12.51
 -22  -7  13   62.05   19.36
 -21  -7  13   16.67   12.66
 -20  -7  13   79.13   20.33
  20  -7 -13   75.72   15.91
  19  -7 -13   12.46    7.07
 -19  -7  13   10.00    7.66
  18  -7 -13   59.77   14.30
 -18  -7  13   75.78   20.60
  17  -7 -13   25.50   10.03
 -17  -7  13   30.73   11.90
  16  -7 -13   71.15   15.61
 -16  -7  13   66.92   17.94
  15  -7 -13    2.85    3.68
 -15  -7  13    6.01    7.68
  14  -7 -13   82.53   16.07
 -14  -7  13   91.37   20.00
  13  -7 -13   32.70   11.23
 -13  -7  13   20.64   10.13
 -13  -7  13   19.97    5.90
 -12  -7  13   84.02   17.89
  12  -7 -13   71.07   14.63
 -12  -7  13   70.24    9.70
  12   7 -13   61.93   15.50
 -11  -7  13    6.34    7.09
  11  -7 -13    8.61    6.32
 -11  -7  13   11.42    3.80
  11   7 -13   -3.79    8.47
 -10  -7  13  130.91   20.30
  10  -7 -13  117.31   18.56
 -10  -7  13  132.56   11.66
  10   7 -13  112.74   19.63
  -9  -7  13    1.17    4.63
  -9  -7  13    8.72    3.18
   9  -7 -13   -0.05    4.20
   9   7 -13   -9.71    7.83
   8  -7 -13  105.10   17.87
   8   7 -13  106.77   17.40
   7  -7 -13    8.13    5.04
   7   7 -13   -0.18    3.38
   6  -7 -13   96.73   16.77
   5  -7 -13    8.59    6.09
   4  -7 -13  124.59   19.25
   3  -7 -13   43.06   11.93
   2  -7 -13   81.07   15.82
   1  -7 -13    2.00    3.50
   0  -7 -13   57.06   13.74
  -1  -7 -13    7.42    4.70
  -2  -7 -13   62.91   13.73
  -3  -7 -13    7.84    6.98
   3   7  13   13.68    8.67
   4   7  13   94.17   18.55
  -4  -7 -13   80.46   16.99
   5   7  13    0.33    6.12
  -5  -7 -13    8.05    6.81
   6   7  13   76.58   17.47
  -6  -7 -13   73.61   16.51
   7   7  13   -5.17    8.78
  -7  -7 -13    9.65    5.42
   8   7  13   73.88   17.10
  -8  -7 -13   75.65   17.27
  -8   7 -13   61.03    5.21
   9   7  13    8.03    8.49
  -9  -7 -13   -0.89    5.53
 -10  -7 -13   86.79   19.96
 -11  -7 -13   11.55    9.34
 -12  -7 -13   48.20   15.64
 -13  -7 -13   -1.69    5.95
 -14  -7 -13   51.41   17.34
 -15  -7 -13   -5.18    8.69
 -16  -7 -13   37.10   14.61
 -17  -7 -13   -6.67    8.57
 -24  -8  13    2.68    5.89
 -23  -8  13   77.17   23.26
 -22  -8  13   21.60   11.24
 -21  -8  13   56.62   19.56
  21  -8 -13   57.24   14.86
  20  -8 -13   19.77    8.76
 -20  -8  13   30.76   14.75
  19  -8 -13   92.80   18.21
 -19  -8  13   82.40   21.67
  18  -8 -13    1.89    5.73
 -18  -8  13   -3.56    8.95
  17  -8 -13   68.92   16.06
 -17  -8  13   86.75   21.04
  16  -8 -13   -7.14    6.36
 -16  -8  13   10.65    9.32
  15  -8 -13   47.30   12.76
 -15  -8  13   59.05   17.34
  14  -8 -13    2.34    3.48
 -14  -8  13   -5.45    8.32
  14   8 -13  -16.47    9.71
 -13  -8  13   80.31   17.76
  13  -8 -13   60.88   13.77
  13   8 -13   60.09   17.55
 -12  -8  13   29.11   10.74
  12  -8 -13   26.14    8.94
  12   8 -13   14.81    7.88
 -11  -8  13   90.99   18.18
  11  -8 -13   82.01   16.15
  11   8 -13   64.97   16.67
 -10  -8  13   10.60    3.36
  10  -8 -13    2.32    6.80
  10   8 -13   25.16   10.48
   9  -8 -13   69.25   16.99
   9   8 -13   78.37   17.12
   8  -8 -13    0.84    7.69
   8   8 -13    1.06    4.07
   7  -8 -13   51.58   17.61
   7   8 -13   86.55   16.33
   6  -8 -13    3.04    6.76
   6   8 -13   16.88    7.66
   5  -8 -13   56.58   17.61
   5   8 -13   97.21   15.82
   4  -8 -13    7.16    8.93
   4   8 -13   22.63    7.09
   3  -8 -13   40.82   15.92
   3   8 -13   39.38    8.77
   2  -8 -13    5.37    5.83
   2   8 -13   -1.01    3.12
   1   8 -13   59.53    9.00
   1  -8 -13   47.74   12.32
   0   8 -13    2.46    1.41
   0  -8 -13    0.09    5.29
  -1  -8 -13   71.29   14.83
  -2  -8 -13   33.38   10.28
  -3  -8 -13   71.67   15.96
   3   8  13   68.03   18.01
  -4  -8 -13   29.53   10.87
  -5  -8 -13   95.24   18.82
  -6  -8 -13   -1.41    4.79
  -7  -8 -13   80.13   17.87
  -8  -8 -13   20.88   11.43
  -9  -8 -13   53.46   15.27
 -10  -8 -13   -0.63    5.28
 -11  -8 -13   64.75   17.76
 -12  -8 -13   -0.68    7.58
 -13  -8 -13   57.21   17.22
 -14  -8 -13    9.25    9.19
 -15  -8 -13   50.03   16.73
 -16  -8 -13   43.57   17.63
 -23  -9  13    4.01    5.56
 -22  -9  13   53.20   19.44
 -21  -9  13    9.37    7.14
 -20  -9  13   47.03   18.49
  19  -9 -13    3.46    6.90
 -19  -9  13   17.44   10.02
  18  -9 -13   55.48   14.31
 -18  -9  13   63.83   19.66
  17  -9 -13    6.16    5.78
 -17  -9  13   -0.47    6.00
  16  -9 -13   30.70   11.23
 -16  -9  13   41.27   13.34
  15  -9 -13    3.96    7.25
 -15  -9  13   23.10   15.25
 -14  -9  13   25.35   11.24
  14  -9 -13   34.90   11.09
  13  -9 -13    6.54    4.34
  12  -9 -13   33.17   10.97
  12   9 -13   46.65   14.68
  11  -9 -13   17.76    9.08
  11   9 -13   20.15   10.97
  10  -9 -13   18.60   10.62
  10   9 -13   26.81   11.11
   9  -9 -13    7.65    6.82
   9   9 -13   23.42   11.75
   8  -9 -13   14.68   13.62
   8   9 -13   52.67   14.88
   7  -9 -13    2.50    8.66
   7   9 -13   -9.57   10.11
   6  -9 -13   33.81   13.58
   6   9 -13   51.16   11.97
   5  -9 -13   -1.03    5.37
   5   9 -13    8.42    5.80
   4  -9 -13   16.95   12.00
   4   9 -13   39.76   10.60
   3   9 -13   -5.73    4.89
   3  -9 -13    2.16    6.26
   2   9 -13   23.22    7.61
   2  -9 -13   21.19   11.66
   1   9 -13   -4.90    4.46
   1  -9 -13    4.52    8.03
   0  -9 -13   52.56   14.53
  -1  -9 -13   17.21    7.96
  -2  -9 -13   58.01   15.29
  -3  -9 -13    8.55    5.85
  -4  -9 -13   35.02   11.18
  -5  -9 -13    9.95    7.20
  -6  -9 -13   47.84   13.74
  -7  -9 -13   -1.42    7.07
  -8  -9 -13   39.25   14.96
  -9  -9 -13   32.92   12.84
 -10  -9 -13   29.67   11.92
 -11  -9 -13    7.04    9.21
 -12  -9 -13   49.60   15.41
 -13  -9 -13   18.23   10.31
 -14  -9 -13   23.98   11.82
 -22 -10  13  -13.78   10.95
 -21 -10  13   46.84   17.40
 -20 -10  13   -4.71    8.78
 -19 -10  13   28.55   13.48
 -18 -10  13    0.31    7.33
  17 -10 -13   27.61   10.35
 -17 -10  13   34.13   14.12
  16 -10 -13    3.46    6.06
  15 -10 -13   39.50   17.63
  14 -10 -13    2.38    5.65
  13 -10 -13   23.10    8.91
  12 -10 -13   -3.76    5.41
  11 -10 -13   11.94    6.51
  10 -10 -13    2.83    6.69
   9 -10 -13    6.98    6.92
   9  10 -13   17.53    8.05
   8 -10 -13   -0.56    6.47
   7 -10 -13    5.59   10.08
   6 -10 -13    0.13    4.05
   5 -10 -13    4.54    4.83
   4 -10 -13    1.94    3.83
   3 -10 -13    6.86    9.79
   2 -10 -13    1.26    7.16
   1 -10 -13   16.94    8.66
   0 -10 -13   -1.15    5.17
  -1 -10 -13   18.77   10.32
  -2 -10 -13  -12.60    7.93
  -3 -10 -13   20.60    9.59
  -4 -10 -13   11.48    8.83
  -5 -10 -13   16.80    9.40
  -6 -10 -13   -5.53    8.89
  -7 -10 -13    6.66    7.47
  -8 -10 -13    9.48    7.67
  -9 -10 -13    5.91    6.20
 -10 -10 -13    0.67    5.76
 -11 -10 -13    2.01    4.98
 -21 -11  13  -30.70   15.14
  14 -11 -13   -3.58    4.50
  13 -11 -13   19.14   10.38
  12 -11 -13  -25.94   10.15
  11 -11 -13   -1.35    7.24
  10 -11 -13    1.11    4.98
   9 -11 -13    3.54    6.08
   8 -11 -13   -4.05    4.19
   7 -11 -13    0.41    5.94
   6 -11 -13    0.73    4.52
   5 -11 -13    3.70    3.60
   4 -11 -13    3.27    6.35
   3 -11 -13   -1.07    5.71
   2 -11 -13    6.29    8.81
   1 -11 -13    2.26    5.22
   0 -11 -13    2.24    6.92
  -1 -11 -13    4.07    8.76
  -2 -11 -13    5.52    7.59
  -3 -11 -13    5.16    5.17
  -4 -11 -13  -15.89    8.80
  -5 -11 -13    0.22    5.28
  -6 -11 -13    1.43    6.17
  -7 -11 -13    0.39    6.03
  -8 -11 -13    0.08    4.94
  10 -12 -13    5.41    9.54
   9 -12 -13   -0.02    5.02
   8 -12 -13  -23.11    9.94
   7 -12 -13   -0.07    5.77
   6 -12 -13   -2.35    7.51
   5 -12 -13    0.35    4.47
   4 -12 -13    1.27    6.46
   3 -12 -13  -19.60    9.37
   2 -12 -13    0.15    6.03
   1 -12 -13    4.08    7.35
   0 -12 -13  -10.84    7.50
  -1 -12 -13   -7.37   10.07
  -2 -12 -13   -2.53    7.15
  -3 -12 -13    0.60    4.22
  -4 -12 -13   -7.29    9.22
 -26   0  14  169.64   36.25
 -25   0  14    6.26    9.01
 -24   0  14  189.66   36.72
 -23   0  14   13.86    9.87
 -22   0  14  237.08   39.20
 -21   0  14   43.73   17.09
 -20   0  14  179.29   33.11
 -19   0  14  -17.42   10.74
 -18   0  14  252.11   36.76
 -17   0  14   11.37    9.95
 -16   0  14  387.38   42.83
 -15   0  14    6.78    9.58
 -15   0  14   14.83    7.22
 -14   0  14  383.43   32.20
 -14   0  14  375.35   39.77
 -13   0  14   39.84   10.52
 -13   0  14   29.93    9.34
  12   0 -14  447.51   28.65
 -12   0  14  404.30   38.25
 -12   0  14  417.41   32.58
  11   0 -14   18.28    6.61
 -11   0  14   14.97    6.61
 -11   0  14    1.53    5.31
  10   0 -14  305.17   23.23
 -10   0  14  255.00   29.23
 -10   0  14  280.32   26.38
   9   0 -14   45.81    9.37
  -9   0  14   34.57    9.28
  -9   0  14   47.45   11.84
   8   0 -14  375.23   25.54
  -8   0  14  328.53   30.03
  -8   0  14  390.72   30.31
   7   0 -14   38.48    8.80
  -7   0  14   37.93    9.70
  -7   0  14   49.57   12.33
  -6   0  14  397.30   30.91
   6   0 -14  319.83   23.26
  -6   0  14  434.92   31.51
  -5   0  14   63.81   12.17
   5   0 -14   45.22    9.30
  -5   0  14   59.62   11.00
   4   0 -14  449.86   27.71
  -4   0  14  579.14   38.34
  -4   0  14  558.62   31.88
   3   0 -14   34.65    8.24
  -3   0  14   50.48    9.10
   2   0 -14  299.56   23.07
  -2   0  14  362.03   22.39
   1   0 -14   21.59    6.97
  -1   0  14   18.52    4.85
   0   0  14  304.84   15.92
   0   0 -14  266.48   22.21
   0   0  14  267.61   15.48
   1   0  14   39.64   11.58
   1   0  14   35.46    4.91
   1   0  14   34.17    4.73
  -1   0 -14   70.68   12.37
  -2   0 -14  535.75   32.70
  -3   0 -14   20.28    6.62
  -4   0 -14  229.59   22.09
  -5   0 -14   33.65    9.31
  -6   0 -14  331.01   27.94
  -7   0 -14   26.27    8.00
  -8   0 -14  308.91   28.62
  -9   0 -14   27.23    8.82
 -10   0 -14  262.23   27.94
 -11   0 -14   15.13    7.72
 -12   0 -14  218.85   27.58
 -13   0 -14   18.85    9.78
 -14   0 -14  123.09   22.47
 -15   0 -14   11.96    7.66
 -16   0 -14  179.79   29.68
 -17   0 -14   23.51   13.02
 -18   0 -14  196.08   33.73
 -19   0 -14    8.33   10.73
 -20   0 -14  187.02   35.60
 -21   0 -14   20.24   14.58
 -22   0 -14  104.58   28.28
 -23   0 -14  -37.92   19.06
 -27  -1  14  161.19   35.76
 -26  -1  14   13.31   12.35
 -26   1  14   -0.08    7.09
 -25  -1  14  117.69   29.31
 -25   1  14  188.64   38.54
 -24  -1  14    8.91    6.75
 -24   1  14    1.51    7.98
 -23  -1  14  162.54   33.20
 -23   1  14  118.25   30.47
 -22  -1  14    5.93    9.66
 -22   1  14   10.83    9.19
 -21  -1  14  199.74   34.88
 -21   1  14  209.10   36.52
 -20  -1  14   21.29   12.03
 -20   1  14   -6.94   10.27
 -19  -1  14  208.97   33.26
 -19   1  14  226.53   36.10
 -18  -1  14   -4.17    9.30
 -18   1  14   13.99    7.13
 -17  -1  14  247.21   34.64
 -17   1  14  232.63   34.46
 -16  -1  14   11.10    8.61
 -16  -1  14   14.83    6.52
 -16   1  14   38.36   13.44
 -15  -1  14  209.28   30.33
 -15  -1  14  271.30   26.54
 -15   1  14  271.56   36.62
 -14  -1  14   18.80    9.69
 -14   1  14   25.08   13.07
 -14  -1  14   19.43    6.89
  14  -1 -14   23.50    7.99
 -14   1  14   17.62    6.86
  13  -1 -14  315.86   25.39
 -13  -1  14  261.42   32.42
 -13  -1  14  302.70   27.26
 -13   1  14  339.05   30.42
 -13   1  14  330.63   37.10
 -12  -1  14   18.79    7.50
  12  -1 -14   20.18    7.47
 -12   1  14   15.91    6.82
 -12  -1  14   18.06    8.65
 -12   1  14   17.63    7.67
  11  -1 -14  245.75   22.20
 -11  -1  14  223.86   27.81
 -11   1  14  244.43   29.69
 -11  -1  14  266.07   24.68
 -11   1  14  245.59   25.17
  10   1 -14    2.43    2.22
  10  -1 -14    9.55    5.17
 -10  -1  14   16.76    6.49
 -10   1  14    9.46    4.91
 -10  -1  14   12.22    7.15
 -10   1  14   17.95    8.41
   9   1 -14  285.82   21.00
   9  -1 -14  261.86   22.50
  -9  -1  14  274.19   28.47
  -9   1  14  251.20   28.12
  -9  -1  14  234.96   23.20
  -9   1  14  240.44   25.38
   8   1 -14   35.43    7.63
   8  -1 -14   29.05    6.87
  -8  -1  14   29.15    7.24
  -8   1  14   22.94    7.59
  -8  -1  14   34.39    9.69
  -8   1  14   31.77   10.48
   7   1 -14  290.03   20.95
   7  -1 -14  332.52   25.17
  -7  -1  14  339.24   28.76
  -7   1  14  308.16   29.21
  -7   1  14  328.37   29.51
   6   1 -14   28.04    7.21
   6  -1 -14   44.13    9.34
  -6  -1  14   47.24   15.65
  -6   1  14   31.51    9.13
   5   1 -14  444.54   25.69
  -5   1  14  358.31   31.54
   5  -1 -14  405.18   27.71
  -5  -1  14  439.60   29.44
  -4   1  14   27.44    9.09
   4   1 -14   56.52    9.52
   4  -1 -14   45.93    9.89
  -4  -1  14   42.66    8.80
   3   1 -14  379.80   23.96
   3  -1 -14  385.53   27.28
  -3   1  14  366.29   32.71
  -3  -1  14  360.50   22.17
   2   1 -14   18.77    6.38
  -2  -1  14   13.02    4.05
   2  -1 -14   17.49    7.00
  -2   1  14   -1.51    4.73
   1   1 -14  260.60   20.54
   1  -1 -14  247.90   22.36
  -1   1  14  270.86   28.72
   0   1  14   20.62    9.43
   0   1 -14   16.25    6.05
   0  -1 -14   12.46    5.57
   1   1  14  351.85   20.94
  -1   1 -14  346.78   24.40
  -1  -1 -14  365.92   28.03
   1   1  14  353.35   34.00
  -2  -1 -14   28.66    9.28
   2   1  14   26.15    5.75
  -2   1 -14   32.28    8.79
   2   1  14   19.08    8.42
   3   1  14  293.71   18.66
  -3   1 -14  332.53   25.24
  -3  -1 -14  308.09   27.24
  -4   1 -14   12.81    4.80
  -4  -1 -14   17.33    6.56
   4   1  14   18.30    4.92
   5   1  14  241.42   16.75
  -5   1 -14  271.22   23.55
  -5  -1 -14  261.54   24.97
  -6   1 -14   14.17    5.17
  -6  -1 -14   22.59    6.92
   6   1  14   23.29    5.00
   7   1  14  225.69   16.24
  -7   1 -14  307.07   26.48
  -7  -1 -14  287.96   27.03
  -8   1 -14   18.83    7.37
  -8  -1 -14   31.85   10.02
   8   1  14   23.32    5.11
  -9  -1 -14  232.07   26.36
  -9   1 -14  234.74   24.58
   9   1  14  216.82   16.94
  10   1  14   25.04    6.04
 -10  -1 -14   19.94    7.84
 -10   1 -14   19.66    7.97
 -11  -1 -14  165.11   23.64
 -11   1 -14  193.91   24.71
 -12  -1 -14    4.13    7.59
 -12   1 -14   19.92    8.53
 -13  -1 -14   96.89   19.72
 -13   1 -14  152.31   23.79
 -14  -1 -14   12.47    8.37
 -14   1 -14   14.83    5.60
 -15  -1 -14  120.94   23.19
 -15   1 -14  120.73   22.90
 -16  -1 -14   17.88    9.32
 -16   1 -14   21.02   10.17
 -17  -1 -14  141.23   27.60
 -17   1 -14  121.69   24.26
 -18  -1 -14    3.74   13.06
 -18   1 -14    3.06    7.70
 -19  -1 -14  146.61   29.61
 -19   1 -14  139.43   28.71
 -20   1 -14    5.64    9.34
 -20  -1 -14   -7.25   13.20
 -21   1 -14  149.98   33.81
 -21  -1 -14  136.32   31.42
 -22   1 -14   34.79   20.11
 -22  -1 -14   20.72   15.38
 -23   1 -14   78.08   26.23
 -23  -1 -14   94.30   25.91
 -26  -2  14   51.33   20.53
 -26   2  14   84.68   26.87
 -25  -2  14  -10.29   12.80
 -25   2  14    5.06    9.78
 -24  -2  14   80.27   23.82
 -24   2  14  130.47   34.13
 -23  -2  14    2.25    8.32
 -23   2  14   29.20   19.09
 -22  -2  14   61.52   20.17
 -22   2  14   98.57   28.27
 -21  -2  14  -13.70   10.49
 -21   2  14    3.15    6.72
 -20  -2  14  144.68   28.15
 -20   2  14  180.49   35.10
 -19  -2  14   -0.93   10.73
 -19   2  14   24.02   12.23
 -18  -2  14   98.49   22.33
 -18   2  14  137.88   29.69
 -17  -2  14   -9.12    8.17
 -17  -2  14    0.15    4.76
 -17   2  14    2.10    7.53
 -16  -2  14   77.66   19.68
 -16  -2  14   74.03   14.07
 -16   2  14   89.33   23.09
  15  -2 -14    4.64    4.15
 -15  -2  14    8.28    8.56
 -15  -2  14    3.50    2.83
 -15   2  14    8.51    7.69
  14  -2 -14  137.84   17.70
 -14  -2  14  157.55   25.89
 -14  -2  14  118.37   17.05
 -14   2  14  143.59   26.22
  13  -2 -14   -1.38    3.96
 -13  -2  14   -4.22    5.08
 -13   2  14   -4.68    6.41
 -13  -2  14   -7.61    4.81
 -12  -2  14  109.94   15.54
  12  -2 -14  106.72   15.71
 -12   2  14   92.00   16.26
 -12  -2  14  110.35   20.81
 -12   2  14   88.24   19.12
 -11  -2  14    8.38    4.84
  11  -2 -14    8.82    5.63
 -11   2  14   12.11    5.58
 -11  -2  14    7.04    6.32
 -11   2  14   -5.68    7.66
  10  -2 -14  169.26   19.12
 -10  -2  14  178.47   23.99
 -10   2  14  175.88   22.70
   9  -2 -14    1.73    4.15
  -9   2  14    7.10    5.33
  -9  -2  14   -4.12    6.46
   8   2 -14  155.66   14.15
   8  -2 -14  137.09   16.85
  -8  -2  14  156.15   20.61
  -8   2  14  151.17   20.67
   7   2 -14    5.63    3.14
   7  -2 -14    3.23    3.61
  -7  -2  14    3.22    5.18
  -7   2  14    9.80    5.59
   6   2 -14  186.13   15.39
  -6   2  14  199.51   23.64
  -6  -2  14  203.89   20.29
   6  -2 -14  192.15   20.15
  -6  -2  14  207.33   20.93
  -5   2  14    7.16    5.83
  -5  -2  14    9.11    5.53
   5   2 -14    5.31    2.16
  -5  -2  14    1.42    3.36
   5  -2 -14    4.95    3.72
   4   2 -14  120.94   12.43
  -4   2  14  133.98   20.53
  -4  -2  14  119.10   12.84
   4  -2 -14  135.93   17.04
  -4  -2  14  125.49   16.61
   3   2 -14    1.99    2.41
  -3  -2  14    2.59    2.17
  -3   2  14   -5.85    6.36
   3  -2 -14    2.58    2.76
  -3  -2  14    4.55    3.97
   2   2 -14  121.87   12.64
   2  -2 -14  108.77   15.65
  -2  -2  14  108.81   15.68
  -2   2  14  100.77   17.82
  -1   2  14    8.82    5.75
   1   2 -14    0.86    3.09
  -1  -2  14   -2.36    5.27
   1  -2 -14    2.08    4.03
   0   2 -14  180.77   16.24
   0   2  14  144.24   22.14
   0  -2 -14  174.92   19.96
  -1  -2 -14   -1.83    5.25
   1   2  14   -0.31    4.42
  -2  -2 -14   90.95   14.63
   2   2  14  107.18   14.02
  -2   2 -14   98.63   12.46
   2   2  14   71.34   16.23
  -3  -2 -14    4.47    4.16
   3   2  14    0.84    3.22
   3   2  14   14.71    7.92
  -3   2 -14    2.74    3.08
   4   2  14  230.59   20.27
  -4   2 -14  192.02   18.30
  -4  -2 -14  191.69   21.97
  -5   2 -14    4.16    5.19
  -5  -2 -14    4.60    3.83
   5   2  14    5.45    2.90
   6   2  14  156.93   17.57
  -6  -2 -14  125.19   17.46
  -6   2 -14  164.81   17.94
  -7   2 -14   14.28    5.73
   7   2  14   15.27    7.64
  -7  -2 -14   23.24    8.14
   8   2  14  158.84   18.64
  -8   2 -14  126.08   16.23
  -8  -2 -14  119.06   18.50
   9   2  14    3.15    4.22
  -9  -2 -14    7.40    5.78
  -9   2 -14    2.71    4.70
  10   2  14  108.14   15.84
 -10  -2 -14  106.49   18.63
 -10   2 -14   84.37   15.04
 -11   2 -14   -0.50    4.23
 -11  -2 -14   -0.62    4.47
 -12  -2 -14   59.96   16.10
 -12   2 -14   63.57   14.37
 -13  -2 -14    1.09    5.80
 -13   2 -14    2.46    3.83
 -14  -2 -14   73.30   18.41
 -14   2 -14   89.55   18.58
 -15  -2 -14   15.96    8.16
 -15   2 -14    4.58    6.13
 -16  -2 -14   54.54   17.53
 -16   2 -14   75.63   18.67
 -17  -2 -14  -12.87   10.43
 -17   2 -14   -8.57    8.69
 -18  -2 -14   80.59   21.17
 -18   2 -14   64.01   18.28
 -19   2 -14    6.09    6.82
 -19  -2 -14    7.23    8.38
 -20   2 -14   80.27   23.46
 -20  -2 -14   87.14   24.62
 -21   2 -14  -41.56   18.16
 -21  -2 -14  -12.47   12.66
 -22   2 -14   38.54   19.59
 -22  -2 -14   80.06   25.18
 -23   2 -14  -16.61   13.28
 -26  -3  14    1.57    7.22
 -25  -3  14   14.36   10.29
 -25   3  14   85.77   26.76
 -24  -3  14    2.36    7.41
 -24   3  14  -10.34   16.81
 -23  -3  14   22.84   13.30
 -23   3  14   26.43   14.54
 -22  -3  14  -34.07   15.16
 -22   3  14  -12.84   13.47
 -21  -3  14   33.39   14.92
 -21   3  14   51.24   18.35
 -20  -3  14  -11.43   11.46
 -20   3  14  -52.34   19.89
 -19  -3  14   49.26   16.43
 -19   3  14   29.18   12.23
 -18  -3  14   -4.38    8.13
 -18  -3  14   -2.10    5.14
 -18   3  14    9.95   12.64
 -17  -3  14   24.54   10.86
 -17  -3  14   27.90    9.64
 -17   3  14   54.96   18.43
  17  -3 -14   37.52   10.33
 -16  -3  14    9.02   10.42
 -16  -3  14    6.05    3.39
 -16   3  14   -1.57    5.60
  15  -3 -14    5.49    3.86
 -15  -3  14    5.24    6.90
 -15  -3  14   13.42    6.86
 -15   3  14    6.63    7.14
  14  -3 -14    8.46    5.46
 -14  -3  14   12.40    7.93
 -14  -3  14    7.91    4.71
  13  -3 -14    6.21    5.63
 -13  -3  14    1.61    5.62
 -13  -3  14    3.28    2.52
  12  -3 -14    2.53    4.70
 -12  -3  14    3.75    6.48
 -12  -3  14   10.33    5.68
  11  -3 -14   41.17    9.92
 -11  -3  14   34.96   11.64
  10  -3 -14    6.08    4.14
 -10   3  14    3.86    2.95
 -10  -3  14    1.96    5.48
   9  -3 -14   63.98   11.92
  -9   3  14   59.47   14.23
  -9  -3  14   64.72   14.01
   8  -3 -14    0.58    3.18
  -8  -3  14    4.76    5.62
  -8  -3  14   -0.33    3.72
  -8   3  14    2.52    3.53
   7  -3 -14   55.42   11.20
  -7  -3  14   63.01   12.07
  -7  -3  14   61.51   10.76
  -7   3  14   53.64   13.03
  -6  -3  14   -5.02    5.14
   6  -3 -14   -0.90    2.94
  -6   3  14    1.97    3.93
  -6  -3  14   -5.19    5.04
   5   3 -14   16.60    4.30
  -5   3  14   20.09    9.09
  -5  -3  14   23.44    6.57
  -5  -3  14   23.55    6.62
   5  -3 -14   19.24    7.09
   4   3 -14    5.09    2.69
  -4   3  14    6.54    6.78
  -4  -3  14    1.68    1.93
   4  -3 -14    1.53    3.70
  -4  -3  14    8.73    5.43
   3   3 -14   19.36    4.57
  -3  -3  14   20.15    6.19
  -3   3  14   20.18    8.93
   3  -3 -14   24.99    8.02
   2   3 -14    2.49    2.20
  -2  -3  14    4.18    3.00
  -2   3  14    1.58    6.48
   2  -3 -14   -2.10    5.02
   1   3 -14   42.73    6.87
   1  -3 -14   49.72   11.39
  -1   3  14   32.08    9.46
   0   3  14   -1.02    4.10
   0   3 -14    2.06    1.62
   0  -3 -14   -1.10    4.50
  -1  -3 -14    7.42    4.88
  -1   3 -14   16.04    4.76
   1   3  14   10.73    5.31
  -2  -3 -14    9.01    5.37
   2   3  14    2.50    2.93
   2   3  14   13.98    8.32
  -2   3 -14    5.23    2.08
  -3  -3 -14   36.73   10.66
   3   3  14   44.83   10.33
  -3   3 -14   47.00    8.55
   3   3  14   23.71    9.88
  -4  -3 -14    5.83    7.01
   4   3  14   -0.34    3.05
  -4   3 -14    3.36    2.95
  -5   3 -14   71.22   10.98
  -5  -3 -14   56.55   13.23
   5   3  14   67.54   12.50
  -6   3 -14    1.81    3.69
   6   3  14    8.25    5.80
  -6  -3 -14    3.78    5.65
  -7   3 -14   40.46    8.81
   7   3  14   30.09    9.28
  -7  -3 -14   42.78   12.16
   8   3  14   -0.86    6.14
  -8   3 -14    1.30    4.28
  -8  -3 -14   -5.41    7.46
   9   3  14   18.29    5.87
  -9   3 -14   13.04    5.14
  -9  -3 -14   19.49    7.93
  10   3  14    5.82    6.31
 -10  -3 -14    1.86    5.01
 -10   3 -14   -2.95    4.46
 -11   3 -14    2.80    3.67
 -11  -3 -14    8.59    6.73
 -12  -3 -14    2.51    6.22
 -12   3 -14    8.89    5.96
 -13  -3 -14   25.45   10.61
 -13   3 -14   12.21    7.44
 -14  -3 -14    1.52    5.59
 -14   3 -14  133.61   20.69
 -15  -3 -14   15.52    8.86
 -15   3 -14   26.99   11.94
 -16  -3 -14    6.45    5.98
 -16   3 -14    3.10    9.09
 -17  -3 -14    6.92    5.78
 -17   3 -14    8.65    7.21
 -18  -3 -14   -8.85   11.39
 -18   3 -14    0.57    8.79
 -19   3 -14   20.02   11.03
 -19  -3 -14   14.98   12.48
 -20   3 -14  -11.17   12.59
 -20  -3 -14   -9.47    9.94
 -21  -3 -14   12.74    9.41
 -26  -4  14  -34.79   16.65
 -25  -4  14   16.10   11.08
 -25   4  14  -33.53   19.61
 -24  -4  14   -7.03   10.68
 -24   4  14  -14.03   21.20
 -23  -4  14   10.47   10.37
 -23   4  14   17.21   15.90
 -22  -4  14   14.77   11.91
 -22   4  14    4.79    9.20
 -21  -4  14    7.41    9.84
 -21   4  14   25.48   17.11
 -20  -4  14    8.63    9.19
 -20   4  14   -6.57    7.42
 -19  -4  14    5.41    6.36
 -19   4  14   17.75   11.74
 -18  -4  14    9.07    8.82
 -18   4  14   10.48   12.55
  18  -4 -14   -3.86    3.57
  17  -4 -14    4.31    5.02
 -17  -4  14    0.97    6.86
 -17  -4  14    1.70    2.98
  16  -4 -14    3.77    5.37
 -16  -4  14   -3.47    7.48
 -16  -4  14    3.91    3.88
  15  -4 -14   18.57    7.17
 -15  -4  14   21.68   10.29
 -15  -4  14   30.22    8.04
  14  -4 -14   41.09   11.18
 -14  -4  14    3.47    6.27
 -14  -4  14   32.77    8.88
  13  -4 -14   12.68    6.04
 -13  -4  14   14.45    6.38
  12  -4 -14    5.77    4.61
 -12  -4  14   -1.68    4.94
  11  -4 -14    7.63    4.21
 -11  -4  14   15.58    9.50
 -10  -4  14    0.39    3.99
  10  -4 -14    5.65    4.95
 -10  -4  14   -2.06    6.74
  -9  -4  14   -0.93    2.31
   9  -4 -14    4.90    4.52
  -9  -4  14   -1.19    3.71
  -8  -4  14    8.62    4.99
   8  -4 -14    5.59    3.79
  -8  -4  14   10.93    4.15
  -7  -4  14   13.51    6.02
   7  -4 -14   10.57    5.82
  -7  -4  14   -2.06    3.52
  -6  -4  14   -3.19    3.76
  -6  -4  14   -4.32    3.97
   6  -4 -14    3.54    4.72
  -6   4  14    3.36    5.22
  -5   4  14   12.42    7.27
  -5  -4  14   23.37    5.92
  -5  -4  14   11.86    5.11
   5  -4 -14   11.77    6.91
  -4   4  14   10.05    8.13
  -4  -4  14   -2.71    2.11
   4  -4 -14    3.76    5.04
  -3   4  14   18.13    8.81
   3  -4 -14    8.20    4.06
   2   4 -14    2.77    1.74
  -2   4  14    8.42    5.81
   2  -4 -14    5.27    3.92
   1   4 -14    9.18    3.00
   1  -4 -14    7.46    3.33
  -1   4  14   17.33   10.07
   0   4 -14    3.92    2.19
   0   4  14    5.80    6.39
   0  -4 -14   -2.09    3.36
  -1  -4 -14   34.92    9.32
  -1   4 -14   37.77    5.51
   1   4  14   30.16   11.63
  -2  -4 -14    8.16    4.89
   2   4  14    6.09    5.38
  -2   4 -14    3.15    2.57
  -3  -4 -14    2.81    4.70
  -3   4 -14   10.40    3.76
  -4  -4 -14    2.62    3.13
  -4   4 -14    3.25    2.71
  -5  -4 -14    6.10    4.42
  -5   4 -14    8.48    4.09
  -6   4 -14   -1.03    2.59
  -6  -4 -14   -0.69    5.85
  -7   4 -14    4.19    2.49
  -7  -4 -14   14.95    6.40
  -8   4 -14   -5.97    4.86
  -8  -4 -14    4.57    5.42
  -9   4 -14   12.73    5.37
  -9  -4 -14   -3.30    6.61
 -10  -4 -14    5.05    3.78
 -10   4 -14    3.18    4.31
 -11  -4 -14    7.48    4.60
 -11   4 -14    4.38    5.39
 -12   4 -14   -3.10    5.23
 -12  -4 -14   -0.51    4.40
 -13  -4 -14    1.88    5.25
 -13   4 -14    7.53    5.48
 -14  -4 -14    5.00    6.17
 -14   4 -14    0.98    4.04
 -15  -4 -14   -1.31    8.27
 -15   4 -14    8.96    7.80
 -16  -4 -14   12.33    9.98
 -16   4 -14   -2.16    4.30
 -17  -4 -14    5.22    5.74
 -17   4 -14   11.29    9.41
 -18  -4 -14   -3.29   10.43
 -19  -4 -14    9.97    9.01
 -20  -4 -14  -10.36    9.72
 -26  -5  14    9.28    7.39
 -25  -5  14  -34.66   16.24
 -24  -5  14    8.53    8.34
 -24   5  14  100.24   33.38
 -23  -5  14   -0.47    5.74
 -23   5  14   -9.68   12.97
 -22  -5  14    8.98    6.46
 -22   5  14   14.02   14.37
 -21  -5  14   -1.90    7.42
 -21   5  14   21.44   20.11
 -20  -5  14    6.07    7.02
 -20   5  14   11.11   11.27
 -19  -5  14   16.34    9.01
  19  -5 -14   18.32    8.26
  18  -5 -14   30.89    9.57
 -18  -5  14   26.45   11.72
  17  -5 -14   21.96    8.60
 -17  -5  14   31.26   12.32
  16  -5 -14   30.21    9.35
 -16  -5  14   36.43   13.35
 -16  -5  14   32.13    8.61
  15  -5 -14   28.69    9.52
 -15  -5  14   21.36    9.84
 -15  -5  14   28.63    8.27
  14  -5 -14   41.65   11.53
 -14  -5  14   25.65    9.67
  13  -5 -14   29.29    9.45
 -13  -5  14   35.39   12.63
  12  -5 -14   19.81    7.15
 -12  -5  14   23.88    9.85
 -12  -5  14   14.75    5.30
 -11  -5  14   20.67    5.97
  11  -5 -14   36.29   10.88
 -11  -5  14   26.10   10.27
 -10  -5  14   28.88    7.11
 -10  -5  14   33.25   10.62
  10  -5 -14   30.71    9.81
  -9  -5  14   -0.24    5.59
  -9  -5  14    7.04    3.23
   9  -5 -14   -0.31    3.10
  -8  -5  14   -1.13    4.59
   8  -5 -14   -0.61    2.99
  -8  -5  14    4.62    3.03
  -7  -5  14   20.16    5.30
  -7  -5  14   25.96    6.82
   7  -5 -14   17.90    7.45
   6  -5 -14   30.81    9.07
  -6  -5  14   24.27    5.24
   5  -5 -14   27.78    9.16
  -5  -5  14   27.80    5.54
   4  -5 -14   12.38    6.30
   3  -5 -14   27.65    9.70
   2  -5 -14   44.39   11.14
   1  -5 -14   41.32   10.96
   0  -5 -14   38.39   10.70
  -1  -5 -14   10.79    5.44
  -2  -5 -14   30.95   10.07
  -2   5 -14   12.71    2.09
  -3  -5 -14   28.54    9.71
   3   5  14   26.87    9.36
  -3   5 -14   13.12    2.68
  -4  -5 -14   19.26    7.31
   4   5  14   19.07    7.40
  -4   5 -14   12.18    2.97
   5   5  14   17.17    7.24
  -5  -5 -14   16.26    8.72
  -5   5 -14   29.29    5.16
   6   5  14   18.66    6.62
  -6  -5 -14   27.52   10.38
  -6   5 -14    9.46    3.42
  -7   5 -14   23.97    5.67
   7   5  14   17.73    8.98
  -7  -5 -14   27.88   10.91
  -8   5 -14   14.54    4.90
   8   5  14    5.79    5.79
  -8  -5 -14    4.41    4.95
   9   5  14   29.21   10.46
  -9   5 -14   39.11    8.59
  -9  -5 -14   40.80   12.90
  10   5  14    3.57    4.66
 -10   5 -14   24.09    7.38
 -10  -5 -14   15.19    7.31
 -11  -5 -14    4.32    6.29
 -11   5 -14    7.78    4.46
 -12   5 -14   -2.52    4.57
 -12  -5 -14    1.97    4.47
 -13   5 -14   28.75    9.15
 -13  -5 -14   12.88    8.29
 -14  -5 -14   13.25    9.03
 -15  -5 -14   14.93    9.28
 -16  -5 -14   97.32   23.29
 -17  -5 -14   13.92    9.37
 -18  -5 -14   28.96   14.31
 -19  -5 -14    6.51   10.57
 -25  -6  14   28.51   17.30
 -24  -6  14   11.17    9.92
 -23  -6  14   53.50   19.45
 -23   6  14   18.04   15.39
 -22  -6  14   41.65   16.27
 -22   6  14   52.85   26.99
 -21  -6  14   31.37   14.46
 -20  -6  14   25.24   14.95
  20  -6 -14   16.81    8.05
  19  -6 -14   23.37    9.27
 -19  -6  14   40.17   13.17
  18  -6 -14   32.09   10.81
 -18  -6  14   33.70   13.91
  17  -6 -14   28.55   11.29
 -17  -6  14   31.89   11.62
  16  -6 -14   64.56   13.80
 -16  -6  14   55.04   16.36
  15  -6 -14   27.40    9.23
 -15  -6  14   13.39    9.52
  14  -6 -14   18.78    8.57
 -14  -6  14    9.03    6.24
  13  -6 -14   34.42   10.62
 -13  -6  14   31.27   11.13
  12  -6 -14   72.19   14.78
 -12  -6  14   63.22   15.12
 -12  -6  14   58.46    9.68
 -11  -6  14   20.32    5.66
 -11  -6  14   21.03    7.89
  11  -6 -14   22.46    8.42
 -10  -6  14   58.02    9.18
 -10  -6  14   69.58   14.74
  10  -6 -14   68.90   14.47
  -9  -6  14   38.35   10.62
   9  -6 -14   17.65    9.71
  -9  -6  14   26.40    5.89
  -8  -6  14   62.48   12.79
   8  -6 -14   34.23   11.77
  -8  -6  14   51.47    7.30
   7  -6 -14    3.37    4.45
  -7  -6  14   10.35    2.82
   6  -6 -14   60.02   12.70
   5  -6 -14   14.99    7.53
   4  -6 -14   54.78   12.57
   3  -6 -14   22.60    8.83
   2  -6 -14   81.86   15.28
   1  -6 -14   66.08   14.11
   0  -6 -14   31.72    9.60
  -1  -6 -14   26.20    9.67
  -2  -6 -14   49.75   13.42
  -3  -6 -14   27.77    9.66
   3   6  14   26.94   10.87
  -4  -6 -14   68.80   15.19
   4   6  14   52.48   14.33
   5   6  14    1.95    5.62
  -5  -6 -14   29.56   10.56
  -6   6 -14   26.05    2.79
   6   6  14   22.18    8.36
  -6  -6 -14   33.18   12.21
  -6   6 -14   28.50    3.43
   7   6  14   21.26    8.80
  -7  -6 -14   12.96    7.50
  -7   6 -14   10.04    3.10
  -8   6 -14   52.80    7.56
   8   6  14   38.64   12.56
  -8  -6 -14   59.66   15.55
   9   6  14    1.21    5.56
  -9  -6 -14   20.28    9.02
 -10  -6 -14   29.49   12.01
 -11  -6 -14    1.91    5.45
 -12  -6 -14   18.48    9.11
 -13  -6 -14    8.79    8.75
 -14  -6 -14   18.51   10.47
 -15  -6 -14    4.69    9.33
 -16  -6 -14   17.58    9.92
 -17  -6 -14   15.22   10.72
 -25  -7  14   29.33   17.72
 -24  -7  14   18.34   13.07
 -23  -7  14   25.00   14.59
 -22  -7  14   27.25   14.92
 -21  -7  14   63.16   20.05
  20  -7 -14   29.07   10.55
 -20  -7  14   17.27    8.94
  19  -7 -14   33.73   10.08
 -19  -7  14    6.95    8.27
  18  -7 -14   32.66   11.35
 -18  -7  14   31.12   14.17
  17  -7 -14   32.68   11.43
 -17  -7  14   52.44   16.45
  16  -7 -14    8.66    6.65
 -16  -7  14    8.99    7.91
  15  -7 -14   36.50   11.59
 -15  -7  14   20.93   10.80
  14  -7 -14   17.41    7.61
 -14  -7  14   24.06    9.58
  13  -7 -14   17.05    7.93
 -13  -7  14   22.25   10.16
 -12  -7  14   21.02   10.37
  12  -7 -14   29.66    9.83
 -11  -7  14   54.12   13.57
  11  -7 -14   33.45   10.57
 -10  -7  14   16.87    6.22
  10  -7 -14   10.44    6.21
   9  -7 -14   46.25   16.95
   8  -7 -14   13.11   10.51
   7  -7 -14   30.71   13.41
   6  -7 -14    4.44    6.03
   5  -7 -14   31.33   13.70
   4  -7 -14   16.80   10.57
   3  -7 -14   45.07   15.31
   2  -7 -14   25.31   12.75
   1  -7 -14   36.71   11.78
   0  -7 -14   23.11    9.66
  -1  -7 -14   53.22   13.42
  -2  -7 -14   32.78   11.03
  -3  -7 -14   49.21   13.36
   3   7  14   40.33   12.25
  -4  -7 -14   11.02    6.82
   4   7  14   21.40   10.99
  -5  -7 -14   41.98   13.04
   5   7  14   39.46   13.50
   6   7  14   10.13    7.67
  -6  -7 -14   -0.66    4.81
   7   7  14   65.08   15.96
  -7  -7 -14   39.70   13.58
  -8  -7 -14   10.62    8.84
  -9  -7 -14   25.16   10.93
 -10  -7 -14   15.17    9.92
 -11  -7 -14   21.05   10.12
 -12  -7 -14   18.01   11.99
 -13  -7 -14   10.77    5.12
 -14  -7 -14    7.05    8.41
 -15  -7 -14   23.74   11.94
 -16  -7 -14   -4.96    6.80
 -24  -8  14   17.65   11.73
 -23  -8  14    3.35    6.47
 -22  -8  14   27.74   13.17
 -21  -8  14   -1.91    6.09
 -20  -8  14   34.40   15.10
  19  -8 -14    7.40    3.99
 -19  -8  14    6.77    7.18
  18  -8 -14   30.50   10.27
 -18  -8  14    7.15    7.05
  17  -8 -14   11.17    7.79
 -17  -8  14   15.51   10.78
  16  -8 -14   11.62    6.79
 -16  -8  14   15.47   11.60
  15  -8 -14    0.61    5.91
 -15  -8  14  -11.29   11.30
  14  -8 -14    2.90    4.85
 -14  -8  14   24.37   11.67
 -13  -8  14    9.39    6.33
  13  -8 -14   13.04    7.21
 -12  -8  14   19.12    9.32
  12  -8 -14   14.26    7.89
  11  -8 -14    7.99    4.03
  10  -8 -14    7.95    9.54
   9  -8 -14    3.11    8.93
   8  -8 -14   26.84   13.06
   7  -8 -14    4.35    6.47
   6  -8 -14    2.84    7.47
   5  -8 -14    3.78    7.97
   4  -8 -14    8.29   10.35
   3  -8 -14    6.90    5.89
   2  -8 -14    1.71    4.60
   1  -8 -14   13.11    7.60
   0  -8 -14   29.19   10.94
  -1  -8 -14    4.45    4.89
  -2  -8 -14   25.41   10.86
  -3  -8 -14    1.04    4.66
  -4  -8 -14   28.22   10.78
  -5  -8 -14   -8.31    6.71
  -6  -8 -14   16.65    9.21
  -7  -8 -14    4.78    7.94
  -8  -8 -14   15.55    9.11
  -9  -8 -14    7.07    6.22
 -10  -8 -14   24.91   11.91
 -11  -8 -14   -1.23    5.07
 -12  -8 -14   15.02   10.93
 -13  -8 -14    0.07    5.96
 -14  -8 -14   28.40   13.12
 -23  -9  14   15.63   12.08
 -22  -9  14   16.15    9.88
 -21  -9  14   30.10   15.25
 -20  -9  14    1.37    9.18
 -19  -9  14   37.25   15.03
 -18  -9  14   -2.79    8.87
  17  -9 -14   19.21    8.34
 -17  -9  14   14.10   11.16
  16  -9 -14    3.98    4.17
 -16  -9  14   -8.80    9.26
 -15  -9  14    8.85    5.77
  15  -9 -14    8.25    7.62
  14  -9 -14    9.49    7.07
  13  -9 -14   11.54    6.66
  12  -9 -14   -5.23    5.26
  11  -9 -14   -1.71    4.40
  10  -9 -14    3.33    5.72
   9  -9 -14   -0.89    5.59
   8  -9 -14    5.27    6.55
   7  -9 -14    3.99    8.48
   6  -9 -14    1.47    5.55
   5  -9 -14    1.71    6.08
   4  -9 -14   -0.06    4.02
   3  -9 -14    2.04    8.41
   2  -9 -14    4.92    9.47
   1  -9 -14   15.67    8.33
   0  -9 -14   -7.23    7.72
  -1  -9 -14    4.53    5.91
  -2  -9 -14   -2.33    4.76
  -3  -9 -14    7.92    5.27
  -4  -9 -14   23.80   13.08
  -5  -9 -14   18.54   10.97
  -6  -9 -14   18.66    9.95
  -7  -9 -14    8.01    5.15
  -8  -9 -14   -3.59    5.57
  -9  -9 -14   28.34   11.99
 -10  -9 -14   -5.03    6.25
 -11  -9 -14   19.22    9.81
 -12  -9 -14    8.36    9.37
 -22 -10  14  151.40   34.49
 -21 -10  14    1.61    5.92
 -20 -10  14    0.82   11.36
 -19 -10  14    8.81    9.03
 -18 -10  14  -20.10   11.76
  15 -10 -14  -12.76    7.69
  14 -10 -14   -9.11    6.59
  13 -10 -14   -3.71    5.75
  12 -10 -14    2.35    4.22
  11 -10 -14  -13.31    8.92
  10 -10 -14   -1.36    7.65
   9 -10 -14   -1.08    9.69
   8 -10 -14   -0.13    7.48
   7 -10 -14    2.14    5.66
   6 -10 -14    0.27    3.74
   5 -10 -14    2.30    4.71
   4 -10 -14    0.67    6.08
   3 -10 -14    0.78    5.39
   2 -10 -14    2.33    5.07
   1 -10 -14 2441.85   94.81
   0 -10 -14    8.74    7.38
  -1 -10 -14    2.31    5.78
  -2 -10 -14   -3.88    5.41
  -3 -10 -14    6.19    5.60
  -4 -10 -14   11.26    7.91
  -5 -10 -14    9.82   11.17
  -6 -10 -14   -0.02    6.15
  -7 -10 -14   -5.98   11.80
  -8 -10 -14  -19.90   10.24
  -9 -10 -14   14.16   10.13
  11 -11 -14    6.47    6.24
  10 -11 -14   -1.75    8.60
   9 -11 -14   -0.81    8.37
   8 -11 -14    1.40    5.19
   7 -11 -14   -0.53    5.13
   6 -11 -14    2.82    6.03
   5 -11 -14   -0.07    5.19
   4 -11 -14   -1.17    3.74
   3 -11 -14    7.52   10.76
   2 -11 -14    1.61    5.63
   1 -11 -14    2.34   10.55
   0 -11 -14    5.74    5.45
  -1 -11 -14   -1.53    4.76
  -2 -11 -14    6.67    5.89
  -3 -11 -14   -9.32    7.41
  -4 -11 -14    7.01    7.41
  -5 -11 -14   -3.84    7.02
 -26   0  15   26.31   19.26
 -25   0  15   15.21   10.07
 -24   0  15    4.54   10.19
 -23   0  15   -5.48   13.01
 -22   0  15   -6.59    5.95
 -21   0  15   -6.96    6.92
 -20   0  15  -10.81   10.44
 -19   0  15    5.63    7.14
 -18   0  15  -12.72   11.39
 -17   0  15  -12.13   10.71
 -16   0  15   -4.53    6.76
 -15   0  15   -7.83    9.19
 -14   0  15   -7.76    7.84
 -14   0  15   -1.52    4.50
 -13   0  15    4.18    5.91
 -13   0  15    9.07    8.81
  12   0 -15   -5.57    5.02
 -12   0  15    1.08    3.74
 -12   0  15   -9.35    9.06
  11   0 -15    2.11    2.55
 -11   0  15    4.59    5.66
 -11   0  15   -0.71    4.15
  10   0 -15    0.24    2.32
 -10   0  15   -2.16    2.92
 -10   0  15    0.50    5.44
   9   0 -15    0.17    3.03
  -9   0  15   -0.54    2.89
  -9   0  15   -3.86    4.59
   8   0 -15   -1.86    3.85
  -8   0  15   -0.74    4.84
  -8   0  15    1.18    5.70
  -7   0  15    6.06    4.09
  -7   0  15    1.53    4.29
  -6   0  15    0.86    3.77
   6   0 -15    2.91    2.30
  -6   0  15   -1.91    5.44
  -5   0  15    2.63    3.46
   5   0 -15    0.38    3.01
  -5   0  15   -0.24    3.71
   4   0 -15    0.40    2.76
  -4   0  15    6.79    6.83
  -4   0  15    4.96    4.59
   3   0 -15   -1.22    4.06
  -3   0  15   -2.86    2.80
  -3   0  15    1.95    3.89
  -2   0  15    7.00    5.90
   2   0 -15    0.65    2.98
  -2   0  15   -1.27    2.74
   1   0 -15   -7.39    4.23
  -1   0  15   -3.60    5.89
  -1   0  15   -0.62    2.30
   0   0  15    3.51    1.73
   0   0  15   -3.09    4.86
   0   0  15    4.47    2.33
   0   0 -15    1.87    3.53
   1   0  15   -5.34    7.27
  -1   0 -15    2.85    3.89
  -2   0 -15    3.92    4.35
  -3   0 -15    1.99    3.80
  -4   0 -15   -3.01    4.11
  -5   0 -15    3.30    4.11
  -6   0 -15    8.27    6.00
  -7   0 -15    1.54    6.02
  -8   0 -15   -0.02    3.99
  -9   0 -15    0.43    3.40
 -10   0 -15    2.89    3.67
 -11   0 -15    6.76    5.94
 -12   0 -15   -8.00    5.86
 -13   0 -15   -6.10    8.30
 -14   0 -15   22.59    9.35
 -15   0 -15    7.56    7.95
 -16   0 -15   13.45    9.58
 -17   0 -15   15.81    8.00
 -18   0 -15  -13.11   13.04
 -19   0 -15   -1.89    6.31
 -20   0 -15  -29.39   18.19
 -21   0 -15   -1.00    8.52
 -22   0 -15   13.98   10.64
 -26  -1  15   23.41   15.91
 -26   1  15   17.29   19.47
 -25  -1  15  -11.58   12.35
 -25   1  15    8.63   14.37
 -24  -1  15   -4.89    8.54
 -24   1  15   29.32   12.07
 -23  -1  15    6.91    8.27
 -23   1  15   43.11   16.86
 -22  -1  15   17.24   12.38
 -22   1  15   18.14   11.67
 -21  -1  15   18.24   11.61
 -21   1  15   12.47    6.76
 -20  -1  15   -4.49   10.03
 -20   1  15  -15.22   11.31
 -19  -1  15    9.46    6.51
 -19   1  15   15.50   10.60
 -18  -1  15   23.74   12.64
 -18   1  15    9.44   10.32
 -17  -1  15   36.13   14.81
 -17   1  15   23.29   10.84
 -16  -1  15   13.13    9.47
 -16   1  15    2.98    4.85
 -15  -1  15   39.81   14.07
 -15   1  15   42.07   15.10
 -15  -1  15   31.47    9.96
 -14  -1  15   35.43   10.29
 -14  -1  15   28.91   12.42
 -14   1  15   44.19   14.24
  14  -1 -15   44.25    9.94
  13  -1 -15   38.27    9.26
 -13  -1  15   35.34   10.47
 -13  -1  15   41.44   13.48
 -13   1  15   39.15   13.84
  12  -1 -15   13.43    6.41
 -12  -1  15   15.68    6.76
 -12   1  15    5.70    6.13
 -12  -1  15   18.09   10.55
 -12   1  15   11.71    6.79
  11  -1 -15   30.48    8.00
 -11  -1  15   39.73   10.41
 -11   1  15   31.81   11.00
 -11  -1  15   45.01   12.78
 -11   1  15   41.55   13.20
  11   1 -15   47.62    9.40
  10   1 -15   34.32    7.49
  10  -1 -15   21.12    6.74
 -10  -1  15   29.42    8.31
 -10   1  15   29.90    8.90
 -10  -1  15   20.81    8.12
 -10   1  15   22.75    8.71
   9   1 -15   23.61    6.60
   9  -1 -15   19.93    6.72
  -9  -1  15   26.46    8.76
  -9   1  15   14.92    7.59
  -9  -1  15   31.00   11.26
  -9   1  15   22.95    8.04
   8   1 -15   19.23    5.86
   8  -1 -15   13.77    5.47
  -8  -1  15    6.89    4.38
  -8   1  15    9.31    5.82
  -8  -1  15    5.79    5.33
  -8   1  15   13.79    7.31
   7   1 -15   11.01    3.60
   7  -1 -15   29.08    8.16
  -7  -1  15   23.79    9.25
  -7   1  15    8.58    3.54
  -7  -1  15   23.36    7.98
  -7   1  15   16.61    7.33
  -6   1  15   28.39    9.84
  -6  -1  15   17.98    7.32
   6   1 -15   13.68    4.31
   6  -1 -15   18.63    6.85
  -6  -1  15   26.80    7.77
  -6   1  15   27.03    8.94
  -5   1  15   14.06    6.65
   5   1 -15   26.34    6.83
   5  -1 -15   20.10    6.66
  -5  -1  15   32.41    9.03
  -5   1  15   28.28    8.82
   4   1 -15   11.62    4.88
  -4   1  15    4.80    5.65
   4  -1 -15   10.82    4.67
  -4  -1  15   14.18    6.01
   3   1 -15   12.05    5.37
  -3  -1  15   12.74    4.67
   3  -1 -15   18.49    6.85
  -3   1  15    6.41    5.23
  -2  -1  15   -1.97    1.54
   2   1 -15   -4.53    4.02
   2  -1 -15    0.34    3.37
  -2   1  15   -8.11    6.47
  -1   1  15   37.05   11.04
   1   1 -15   39.68    8.77
   1  -1 -15   42.14    9.65
   0   1  15  101.71   19.60
   0   1 -15  126.50   15.22
   0  -1 -15  109.48   15.66
   1   1  15   30.25    6.53
  -1   1 -15   43.80    8.91
  -1  -1 -15   35.99    9.72
   1   1  15   47.88   12.64
   2   1  15   23.67    5.65
  -2   1 -15   17.11    5.47
  -2  -1 -15   16.35    6.14
  -3  -1 -15   12.55    5.82
   3   1  15   14.84    4.21
  -3   1 -15   14.09    4.82
  -4   1 -15   61.54   10.99
  -4  -1 -15   64.69   12.52
   4   1  15   53.92    7.23
  -5   1 -15   40.60    9.67
  -5  -1 -15   36.22    9.93
   5   1  15   21.14    4.21
  -6   1 -15   23.21    8.08
  -6  -1 -15   26.61    9.69
   6   1  15   15.71    3.52
  -7   1 -15   18.35    6.81
  -7  -1 -15   28.31    9.81
   7   1  15   15.65    3.38
  -8   1 -15    3.58    5.16
  -8  -1 -15    6.22    5.37
  -9   1 -15   15.92    7.14
  -9  -1 -15   10.79    6.48
 -10   1 -15   11.46    7.01
 -10  -1 -15   12.37    8.91
 -11  -1 -15    2.78    4.65
 -11   1 -15   -0.29    4.06
 -12  -1 -15    6.25    3.80
 -12   1 -15   -1.82    6.64
 -13  -1 -15   18.10    9.68
 -13   1 -15   10.02    6.22
 -14  -1 -15   13.69    8.29
 -14   1 -15    7.80    6.33
 -15  -1 -15    5.14    7.14
 -15   1 -15    3.50    5.37
 -16  -1 -15   23.03   10.08
 -16   1 -15   -3.78    9.56
 -17  -1 -15   22.51   10.67
 -17   1 -15   -8.70    7.79
 -18  -1 -15   -1.62    8.44
 -18   1 -15    8.20    8.41
 -19  -1 -15   38.69   16.38
 -19   1 -15  -15.18   14.76
 -20  -1 -15   15.11   11.34
 -20   1 -15   -0.79    9.92
 -21  -1 -15    0.20   13.38
 -21   1 -15    9.05    7.45
 -22  -1 -15  -18.98   13.71
 -26  -2  15   12.74    6.83
 -25  -2  15   55.73   20.54
 -25   2  15   52.02   22.88
 -24  -2  15   37.51   16.31
 -24   2  15   36.85   18.98
 -23  -2  15   64.80   23.12
 -23   2  15   92.10   28.28
 -22  -2  15   34.88   16.43
 -22   2  15   32.66   16.59
 -21  -2  15   17.82   11.10
 -21   2  15   29.84   15.70
 -20  -2  15   36.31   15.11
 -20   2  15   36.13   16.37
 -19  -2  15   11.00   10.88
 -19   2  15   34.22   15.33
 -18  -2  15   80.04   20.98
 -18   2  15   54.54   18.32
 -17  -2  15   66.19   20.16
 -17   2  15   15.92   11.22
 -16  -2  15   80.96   20.49
 -16  -2  15   60.07   13.44
 -16   2  15   78.10   21.51
  16  -2 -15   46.99   11.39
  15  -2 -15   62.59   11.99
 -15  -2  15   74.78   19.14
 -15   2  15   62.00   17.72
 -15  -2  15   62.73   13.00
  14  -2 -15   76.45   13.62
 -14  -2  15   79.72   18.98
 -14   2  15   89.18   21.44
 -14  -2  15   78.69   14.98
 -13  -2  15   96.94   15.78
  13  -2 -15   92.36   14.64
 -13  -2  15  116.59   21.01
 -13   2  15   83.44   20.07
 -12  -2  15   80.99   14.44
  12  -2 -15   87.74   14.38
 -12  -2  15   79.13   17.26
 -12   2  15   88.41   20.13
  11  -2 -15   37.53    9.25
 -11  -2  15   42.30    9.84
 -11  -2  15   43.38   13.16
 -11   2  15   60.42   16.45
  10  -2 -15   72.50   12.40
 -10  -2  15   64.51   12.62
 -10   2  15   55.85   13.33
 -10  -2  15   74.68   16.01
 -10   2  15   71.47   16.59
   9  -2 -15   47.80   10.65
  -9  -2  15   51.12   11.02
  -9  -2  15   64.08   13.97
  -9   2  15   38.09   11.86
   8   2 -15   56.94    9.14
   8  -2 -15   55.53   11.22
  -8  -2  15   70.39   14.02
  -8   2  15   54.17   13.26
   7   2 -15   36.94    7.64
   7  -2 -15   42.73    9.88
  -7  -2  15   40.10    9.44
  -7   2  15   43.32   10.79
  -6   2  15   52.98   12.63
   6   2 -15   81.22   10.81
   6  -2 -15   68.61   12.34
  -6  -2  15   77.53   12.89
  -5   2  15   38.96   11.24
   5   2 -15   54.67    9.11
  -5  -2  15   62.33   10.08
   5  -2 -15   45.34   10.16
   4   2 -15   60.23    9.23
  -4   2  15   58.26   13.98
  -4  -2  15   60.70    8.85
   4  -2 -15   57.81   11.73
  -3  -2  15   16.94    6.48
   3   2 -15   20.01    5.84
  -3  -2  15   10.72    2.85
  -3   2  15   17.97    7.27
   3  -2 -15   16.02    7.55
  -2  -2  15   86.90   14.93
   2   2 -15   94.79   11.99
   2  -2 -15   94.07   15.20
  -2   2  15   91.01   18.42
   1   2 -15  108.84   12.92
  -1   2  15   84.49   17.31
  -1  -2  15   84.09   14.60
   1  -2 -15   82.31   14.35
   0   2 -15  121.38   13.89
   0   2  15   99.31   18.91
   0  -2 -15  111.85   16.80
   1   2  15   43.97    8.66
   1   2  15   56.10   15.04
  -1   2 -15   57.26    9.73
  -1  -2 -15   36.24   10.03
  -2  -2 -15   61.09   12.89
   2   2  15   66.59   10.77
   2   2  15   40.93   11.84
  -2   2 -15   83.51   12.12
  -3  -2 -15   32.71    9.51
   3   2  15   33.27    7.81
  -3   2 -15   34.05    8.38
  -4  -2 -15   73.75   14.32
   4   2  15   79.21   11.89
  -4   2 -15   80.85   12.51
   5   2  15  125.47   15.45
  -5  -2 -15  120.02   18.17
  -5   2 -15  139.22   16.78
  -6   2 -15   98.43   14.49
  -6  -2 -15   72.41   14.85
   6   2  15   90.03   13.09
  -7   2 -15   49.68   10.75
  -7  -2 -15   35.53    9.83
  -8   2 -15   63.67   11.91
  -8  -2 -15   69.58   14.99
  -9   2 -15   48.77   11.13
  -9  -2 -15   28.01    8.90
 -10   2 -15   42.28   10.57
 -10  -2 -15   41.79   12.05
 -11  -2 -15   21.96   10.48
 -11   2 -15   16.67    8.26
 -12  -2 -15   38.14   12.16
 -12   2 -15   30.14   10.10
 -13   2 -15   25.20   10.55
 -13  -2 -15   21.49   10.00
 -14  -2 -15   34.17   12.09
 -14   2 -15   31.31   10.74
 -15  -2 -15    6.65    5.59
 -15   2 -15   19.02   10.16
 -16  -2 -15   43.49   15.78
 -16   2 -15   43.80   14.52
 -17  -2 -15   19.40   11.83
 -17   2 -15   12.02    8.24
 -18  -2 -15   28.82   12.30
 -18   2 -15   19.73    9.92
 -19  -2 -15   30.91   15.71
 -19   2 -15   11.86    7.52
 -20  -2 -15  -31.24   15.59
 -21  -2 -15    6.48    8.68
 -26  -3  15  145.44   32.56
 -25  -3  15   60.15   22.43
 -25   3  15  123.60   36.27
 -24  -3  15   76.89   23.42
 -24   3  15   99.79   30.24
 -23  -3  15   71.82   21.00
 -23   3  15   70.68   27.58
 -22  -3  15   63.02   21.40
 -22   3  15   46.16   21.11
 -21  -3  15   72.01   21.46
 -21   3  15   67.51   22.87
 -20  -3  15   22.54   11.69
 -20   3  15   54.95   19.01
 -19  -3  15   78.29   21.06
 -19   3  15   91.26   26.47
 -18  -3  15   84.19   22.03
 -18   3  15   69.18   22.26
 -17  -3  15   94.65   22.32
 -17   3  15  105.84   25.97
  17  -3 -15   98.73   16.27
  16  -3 -15  107.52   16.75
 -16  -3  15  122.64   24.19
 -16  -3  15   94.31   16.41
 -16   3  15  125.59   27.70
  15  -3 -15   63.42   13.06
 -15  -3  15   48.66   16.43
 -15  -3  15   56.21   12.82
 -15   3  15   65.63   20.20
  14  -3 -15   89.31   15.13
 -14  -3  15   92.39   20.39
 -14  -3  15  102.51   16.66
 -14   3  15   84.65   21.87
 -13  -3  15  102.33   15.98
  13  -3 -15  107.70   16.16
 -13  -3  15   98.23   20.13
  12  -3 -15  141.70   18.70
 -12  -3  15  142.49   23.61
 -12  -3  15  135.42   18.08
  11  -3 -15   78.40   14.01
 -11  -3  15   98.25   19.00
  10  -3 -15   54.74   11.74
 -10  -3  15   38.49   11.14
   9  -3 -15   80.71   14.45
  -9  -3  15   87.41   16.03
   8  -3 -15   56.67   12.18
  -8  -3  15   88.60   15.58
  -7  -3  15  103.98   15.30
   7  -3 -15   73.38   13.76
  -7   3  15   65.51   15.81
  -7  -3  15   82.44   13.09
  -6   3  15   62.10   14.85
  -6  -3  15   51.69    9.95
  -6  -3  15   55.78   10.11
   6  -3 -15   43.55   10.10
   6   3 -15   45.39    7.46
   5   3 -15   79.42    9.60
  -5   3  15   82.88   17.33
  -5  -3  15   89.14   11.03
   5  -3 -15   74.32   13.38
  -5  -3  15   74.13   12.39
   4   3 -15   59.92    8.51
  -4  -3  15   69.97   12.47
  -4  -3  15   52.53    6.63
  -4   3  15   63.32   15.40
   4  -3 -15   66.03   12.97
   3   3 -15  107.63   10.99
  -3   3  15  118.55   21.19
   3  -3 -15   95.95   15.89
  -3  -3  15  136.11   16.65
   2   3 -15  179.52   14.17
   2  -3 -15  153.49   19.66
  -2   3  15  171.53   25.32
   1   3 -15  136.28   12.73
  -1   3  15  118.02   22.26
   1  -3 -15  116.49   17.58
   0   3 -15   47.16    7.99
   0   3  15   32.79   12.30
   0  -3 -15   43.53   11.27
   1   3  15  111.49   21.36
  -1   3 -15  113.69   12.25
  -1  -3 -15   90.01   14.88
   2   3  15  237.99   22.99
  -2   3 -15  181.41   15.85
  -2  -3 -15  218.49   24.08
   2   3  15  206.38   29.07
  -3  -3 -15   97.91   16.57
   3   3  15  107.05   15.71
  -3   3 -15   82.77   10.80
  -4  -3 -15   49.20   12.42
   4   3  15   44.63   10.34
  -4   3 -15   51.51    9.34
  -5  -3 -15   81.31   14.62
   5   3  15  105.04   16.13
  -5   3 -15  129.13   14.80
  -6   3 -15   89.49   12.91
  -6  -3 -15   75.29   15.52
   6   3  15   81.26   15.48
  -7   3 -15   88.51   12.73
  -7  -3 -15   58.66   13.53
  -8   3 -15   57.65   11.00
  -8  -3 -15   62.13   14.31
  -9   3 -15   68.37   12.86
  -9  -3 -15   68.08   15.14
 -10   3 -15   61.85   12.69
 -10  -3 -15   58.67   14.67
 -11  -3 -15   29.05   10.24
 -11   3 -15   46.02   11.66
 -12  -3 -15   45.09   14.54
 -12   3 -15   36.44   11.17
 -13   3 -15   45.14   12.95
 -13  -3 -15   60.06   16.13
 -14  -3 -15   29.90   13.42
 -14   3 -15   35.89   13.46
 -15  -3 -15   24.34   12.36
 -15   3 -15   62.54   18.54
 -16  -3 -15   30.24   11.63
 -16   3 -15   41.40   13.77
 -17  -3 -15   27.08   10.60
 -18  -3 -15   34.62   14.85
 -19  -3 -15   22.81   12.79
 -20  -3 -15   39.10   15.86
 -26  -4  15   64.23   20.92
 -25  -4  15   87.91   25.49
 -24  -4  15    1.86   10.52
 -24   4  15   50.73   23.12
 -23  -4  15   61.84   19.73
 -23   4  15   88.88   29.59
 -22  -4  15   19.39   11.15
 -22   4  15   54.50   25.53
 -21  -4  15   68.16   21.42
 -21   4  15   49.08   20.58
 -20  -4  15   67.72   19.79
 -20   4  15  139.93   35.78
 -19  -4  15   83.24   21.04
 -19   4  15  157.86   37.18
 -18  -4  15   87.81   21.94
 -18   4  15   66.99   26.16
  18  -4 -15   67.01   14.37
  17  -4 -15  108.70   17.89
 -17  -4  15   99.54   22.31
 -17   4  15  127.43   30.78
  16  -4 -15   68.32   14.72
 -16  -4  15   81.87   19.85
  15  -4 -15  115.58   18.13
 -15  -4  15  142.70   25.24
 -15  -4  15   98.03   15.73
  14  -4 -15   65.91   13.07
 -14  -4  15   57.15   16.42
 -14  -4  15   70.46   12.79
 -13  -4  15   86.76   13.75
  13  -4 -15   95.59   16.30
 -13  -4  15   85.62   18.50
  12  -4 -15   46.61   12.08
 -12  -4  15   47.87   12.76
  11  -4 -15  114.51   17.30
 -11  -4  15  132.07   21.04
  10  -4 -15   59.27   12.22
 -10  -4  15   54.42   10.51
 -10  -4  15   53.50   13.17
   9  -4 -15   35.69    9.40
  -9  -4  15   46.05   11.08
  -9  -4  15   40.81    8.71
  -8  -4  15   81.27   13.94
   8  -4 -15   72.30   14.19
  -8  -4  15   90.33   13.21
  -7  -4  15   55.25   10.25
  -7  -4  15   64.54   11.73
   7  -4 -15   43.60   10.81
  -6  -4  15   70.77   10.94
  -6  -4  15   63.56   10.17
   6  -4 -15   56.06   12.38
  -5  -4  15   53.84    9.85
   5  -4 -15   39.66   10.38
  -4  -4  15   84.18   11.89
   4  -4 -15   78.99   14.96
   3  -4 -15  150.09   19.93
   2   4 -15   79.73    7.69
   2  -4 -15   76.53   14.31
   1   4 -15   69.78    7.44
   1  -4 -15   74.72   14.86
   0   4 -15   59.67    6.95
   0  -4 -15   63.41   13.88
  -1   4 -15  194.87   13.20
  -1  -4 -15  202.68   24.43
  -2  -4 -15   80.30   15.43
  -2   4 -15   95.27    9.84
  -3   4 -15  176.18   13.90
  -3  -4 -15  164.44   22.23
  -4  -4 -15   67.40   14.52
  -4   4 -15   59.49    8.46
  -5  -4 -15   38.60   10.70
  -5   4 -15   16.25    3.95
  -6  -4 -15   51.36   12.38
  -6   4 -15   69.34   10.61
  -7   4 -15   87.92   12.22
  -7  -4 -15   64.49   14.62
  -8   4 -15   48.62    9.37
  -8  -4 -15   49.55   13.03
  -9   4 -15   36.49    8.66
  -9  -4 -15   56.40   14.42
 -10   4 -15   37.28    8.96
 -10  -4 -15   32.14   11.59
 -11   4 -15   55.26   11.20
 -11  -4 -15   44.15   14.09
 -12  -4 -15   27.96   10.26
 -12   4 -15   25.77    8.25
 -13  -4 -15   14.43    7.58
 -13   4 -15   25.93    9.80
 -14  -4 -15   38.76   12.47
 -15  -4 -15   70.95   18.69
 -16  -4 -15   20.60   10.41
 -17  -4 -15   41.14   13.94
 -18  -4 -15   43.52   17.81
 -19  -4 -15   44.38   15.87
 -25  -5  15   23.83   14.59
 -24  -5  15   53.41   19.07
 -23  -5  15   16.78    8.16
 -23   5  15   47.31   25.01
 -22  -5  15   87.21   23.75
 -22   5  15  115.17   33.98
 -21  -5  15    4.14    7.90
 -21   5  15   33.76   14.87
 -20  -5  15  102.22   24.11
 -20   5  15  162.83   41.36
 -19  -5  15   33.34   15.38
 -19   5  15   32.61   15.93
  19  -5 -15   30.90    9.87
  18  -5 -15   96.93   17.52
 -18  -5  15   68.63   18.88
  17  -5 -15   24.19    8.67
 -17  -5  15   35.89   15.47
  16  -5 -15   91.12   16.25
 -16  -5  15  127.32   24.05
  15  -5 -15   42.99   11.19
 -15  -5  15   45.62   15.62
  14  -5 -15  113.35   18.07
 -14  -5  15  126.42   22.41
  13  -5 -15   13.39    7.34
 -13  -5  15   28.32   10.61
  12  -5 -15   72.55   14.70
 -12  -5  15   67.93   15.43
  11  -5 -15   19.27    7.65
 -11  -5  15   31.69   10.66
 -10  -5  15   96.25   17.03
  10  -5 -15   77.43   14.99
 -10  -5  15   92.79   12.95
  -9  -5  15   35.30    9.58
   9  -5 -15   24.20    8.59
  -9  -5  15   35.94    8.35
  -8  -5  15   40.27   10.57
   8  -5 -15    7.27    5.50
  -8  -5  15   39.37    8.29
  -7  -5  15   41.85    9.66
  -7  -5  15   31.69    7.06
   7  -5 -15   17.46    9.51
  -6  -5  15   40.50    7.20
   6  -5 -15   24.44   11.63
   5  -5 -15   35.88   10.94
   4  -5 -15   82.19   15.57
   3  -5 -15   33.75   10.16
   2  -5 -15   55.36   13.01
   1  -5 -15   20.90    9.48
   0  -5 -15  181.11   22.77
  -1  -5 -15   27.11    9.56
  -2   5 -15   76.78    5.50
  -2  -5 -15  103.54   17.73
   2   5  15   68.39   14.24
  -3  -5 -15   20.69    8.02
   3   5  15   10.22    7.16
  -3   5 -15   22.92    3.39
  -4  -5 -15   44.13   12.00
  -4   5 -15   70.30    7.01
   4   5  15   59.79   14.10
  -5  -5 -15   13.80    8.92
   5   5  15   26.67    8.18
  -5   5 -15   17.84    3.87
  -6  -5 -15   38.98   12.77
   6   5  15   36.52   10.53
  -6   5 -15   29.64    5.81
  -7  -5 -15   10.03    7.23
  -7   5 -15   24.59    6.16
  -8   5 -15   38.02    8.15
  -8  -5 -15   22.45   11.11
  -9  -5 -15   21.57    9.43
 -10  -5 -15   38.24   11.65
 -11  -5 -15   16.49    9.18
 -12  -5 -15   27.41   10.77
 -13  -5 -15    6.60    7.74
 -14  -5 -15  216.41   30.08
 -15  -5 -15    2.02    6.68
 -16  -5 -15   38.32   14.15
 -17  -5 -15   12.96    7.91
 -25  -6  15   58.50   21.53
 -24  -6  15   -0.43    5.22
 -23  -6  15   37.48   15.91
 -22  -6  15    3.98    7.76
 -22   6  15   24.14   22.86
 -21  -6  15   72.04   20.63
 -21   6  15   94.51   32.15
 -20  -6  15    5.29    8.35
  20  -6 -15    0.09    4.29
  19  -6 -15   64.03   15.76
 -19  -6  15   66.92   19.73
  18  -6 -15    5.99    4.98
 -18  -6  15   10.17    9.21
  17  -6 -15   47.65   12.79
 -17  -6  15   43.99   14.81
  16  -6 -15    1.39    4.30
 -16  -6  15   13.69    5.64
  15  -6 -15   56.14   13.81
 -15  -6  15   61.44   16.74
  14  -6 -15    8.32    6.47
 -14  -6  15   19.27   11.18
  13  -6 -15   48.00   11.81
 -13  -6  15   64.61   16.07
  12  -6 -15   -2.18    3.93
 -12  -6  15   -1.65    7.66
 -11  -6  15   36.72   11.22
  11  -6 -15   28.11    8.43
 -10  -6  15    8.54    6.04
  10  -6 -15   11.32    5.88
  -9  -6  15   68.73   14.00
   9  -6 -15   33.47   12.31
   8  -6 -15    6.88    7.48
   7  -6 -15    7.13    6.88
   6  -6 -15    1.46    7.32
   5  -6 -15   21.26   12.31
   4  -6 -15    0.67    4.09
   3  -6 -15   18.30   12.11
   2  -6 -15    0.24    4.50
   1  -6 -15   78.79   15.18
   0  -6 -15   -8.17    8.80
  -1  -6 -15   81.11   16.16
  -2  -6 -15   12.87    7.65
   2   6  15   -1.37    4.12
  -3  -6 -15   40.86   11.69
   3   6  15   41.10   12.75
  -4  -6 -15   -7.52    6.81
   4   6  15    7.64    7.25
  -5  -6 -15   19.27    7.66
   5   6  15   43.01   12.79
  -6  -6 -15    4.65    4.09
   6   6  15   -1.53    4.69
  -7  -6 -15   15.58    9.28
  -8  -6 -15    2.95    6.09
  -9  -6 -15   31.24   11.54
 -10  -6 -15    3.01    7.54
 -11  -6 -15   16.14    7.75
 -12  -6 -15   -6.17    6.38
 -13  -6 -15   34.87   13.33
 -14  -6 -15  -20.60   10.91
 -15  -6 -15   18.80   10.97
 -16  -6 -15   -1.31    5.67
 -24  -7  15   17.93    8.57
 -23  -7  15  -25.19   13.82
 -22  -7  15   18.77   11.39
 -21  -7  15   -1.56    8.87
  20  -7 -15   24.38    8.80
 -20  -7  15   27.05   12.54
  19  -7 -15   17.37    8.37
 -19  -7  15   19.84   10.63
  18  -7 -15   14.01    6.31
 -18  -7  15    7.96    8.43
  17  -7 -15    1.16    5.00
 -17  -7  15   10.36    9.50
  16  -7 -15   11.25    6.48
 -16  -7  15    8.31    8.77
  15  -7 -15    4.41    5.27
 -15  -7  15    6.71    6.49
  14  -7 -15   20.87    8.39
 -14  -7  15   33.65   11.18
  13  -7 -15    1.19    5.75
 -13  -7  15    0.23    4.10
 -12  -7  15   43.85   13.61
  12  -7 -15   25.25    8.57
 -11  -7  15   11.44    4.37
  11  -7 -15   -3.54    4.25
  10  -7 -15    9.88    7.02
   9  -7 -15    0.98    3.56
   8  -7 -15   16.13   10.18
   7  -7 -15    5.97    7.04
   6  -7 -15    3.73    7.40
   5  -7 -15    4.89    7.14
   4  -7 -15    7.32    7.57
   3  -7 -15   -3.37    4.23
   2  -7 -15   20.66   11.03
   1  -7 -15    7.33    7.45
   0  -7 -15   14.51    7.08
  -1  -7 -15    1.74    5.01
  -2  -7 -15   54.55   13.68
   2   7  15   21.19    9.22
  -3  -7 -15    8.10    8.32
  -4  -7 -15   14.58    8.45
  -5  -7 -15   14.25    7.89
  -6  -7 -15   19.06    8.92
  -7  -7 -15   11.15    6.61
  -8  -7 -15   12.87    7.37
  -9  -7 -15    6.07    7.84
 -10  -7 -15   15.04   12.15
 -11  -7 -15   -0.42    4.59
 -12  -7 -15    2.87    4.63
 -13  -7 -15    3.13    5.87
 -14  -7 -15    5.58    7.87
 -23  -8  15   -2.32    8.24
 -22  -8  15  -23.91   12.87
 -21  -8  15  -27.78   13.72
 -20  -8  15   -1.19    5.42
 -19  -8  15  -33.01   14.19
  18  -8 -15   -1.21    4.10
 -18  -8  15   -3.63    7.02
  17  -8 -15    1.69    6.16
 -17  -8  15   -4.33    5.42
  16  -8 -15    6.74    3.53
 -16  -8  15   24.30   12.68
  15  -8 -15    1.38    4.15
 -15  -8  15   -8.78    7.99
 -14  -8  15    7.08    6.55
  14  -8 -15    3.82    4.46
 -13  -8  15   15.81    7.53
  13  -8 -15   -1.41    5.04
  12  -8 -15  -18.19    8.35
  11  -8 -15   13.58    7.69
  10  -8 -15    9.24    7.25
   9  -8 -15    1.05    5.21
   8  -8 -15   -0.20    7.15
   7  -8 -15    0.73    4.38
   6  -8 -15    4.25    9.12
   5  -8 -15    1.78    8.00
   4  -8 -15   -0.06    5.93
   3  -8 -15    1.61    4.15
   2  -8 -15    3.21    8.43
   1  -8 -15   -2.50    4.75
   0  -8 -15   10.52    7.84
  -1  -8 -15   -8.38    5.82
  -2  -8 -15   -9.07    7.59
  -3  -8 -15    7.96    6.63
  -4  -8 -15   19.90   11.28
  -5  -8 -15    6.73    8.06
  -6  -8 -15   32.23   12.22
  -7  -8 -15    2.81    4.25
  -8  -8 -15   10.73    6.98
  -9  -8 -15    5.17    4.53
 -10  -8 -15   -0.60    5.93
 -11  -8 -15   12.25   11.26
 -12  -8 -15    1.36    5.79
 -22  -9  15    0.47    5.84
 -21  -9  15    1.53    9.43
 -20  -9  15  -50.34   17.73
 -19  -9  15   -0.89   10.92
 -18  -9  15  -18.78   11.30
 -17  -9  15   10.17    5.82
 -16  -9  15   -2.71    7.52
 -15  -9  15    8.05    6.53
  15  -9 -15    1.95    5.77
  14  -9 -15    6.15    4.82
  13  -9 -15   18.45    9.17
  12  -9 -15   -7.90    6.78
  11  -9 -15   -5.05    6.82
  10  -9 -15    1.49    6.73
   9  -9 -15    2.86    7.80
   8  -9 -15   -0.46    4.06
   7  -9 -15    2.89    9.15
   6  -9 -15   -1.05    7.63
   5  -9 -15    3.38    7.57
   4  -9 -15   -1.03    7.26
   3  -9 -15    3.27    7.15
   2  -9 -15   -0.39    6.71
   1  -9 -15    1.18    5.23
   0  -9 -15   -4.30    5.56
  -1  -9 -15   -3.64    7.07
  -2  -9 -15   -2.18    8.11
  -3  -9 -15   27.91   11.14
  -4  -9 -15    8.00    9.43
  -5  -9 -15    9.29    8.34
  -6  -9 -15    4.51    5.90
  -7  -9 -15   15.97   10.24
  -8  -9 -15  -11.73    8.25
  -9  -9 -15    1.40    6.11
 -20 -10  15   11.25   11.69
 -19 -10  15   -2.20    6.27
  12 -10 -15   -0.39    5.41
  11 -10 -15   12.71    7.64
  10 -10 -15   -0.02    5.50
   9 -10 -15   -1.26    4.60
   8 -10 -15    1.71    5.55
   7 -10 -15    1.90    7.19
   6 -10 -15   -0.55    7.41
   5 -10 -15   -1.44    6.32
   4 -10 -15    2.91   10.49
   3 -10 -15   -2.63    4.81
   2 -10 -15    2.28    4.69
   1 -10 -15    3.59    6.75
   0 -10 -15    4.95    7.96
  -1 -10 -15   16.55    9.92
  -2 -10 -15    8.35    7.62
  -3 -10 -15   19.96    9.95
  -4 -10 -15   -0.45    6.53
  -5 -10 -15   -3.05    5.35
  -6 -10 -15   12.04    7.52
   6 -11 -15    5.51    5.04
   5 -11 -15   -0.81    6.96
   4 -11 -15    0.74    8.26
   3 -11 -15   11.55   11.90
   2 -11 -15    1.57    9.59
   1 -11 -15    0.25    5.03
   0 -11 -15    2.23    8.83
 -25   0  16   42.93   18.75
 -24   0  16   30.14   16.28
 -23   0  16   -8.87   11.40
 -22   0  16    2.21    8.18
 -21   0  16    7.80    8.40
 -20   0  16   -7.24   12.17
 -19   0  16   31.15   13.95
 -18   0  16    9.02    9.87
 -17   0  16   45.65   16.82
 -16   0  16   12.25   11.13
 -15   0  16   23.16   10.53
 -14   0  16   67.85   21.41
 -13   0  16   19.05    9.00
 -13   0  16   13.18    8.75
  12   0 -16    3.40    2.53
 -12   0  16    0.10    3.30
 -12   0  16    4.72    5.30
  11   0 -16    2.85    3.00
 -11   0  16    7.38    5.34
 -11   0  16    1.28    4.48
  10   0 -16    4.02    3.21
 -10   0  16   -0.46    3.88
 -10   0  16   -3.77    5.90
   9   0 -16   70.07   12.09
  -9   0  16   67.56   13.84
  -9   0  16   57.46   13.18
   8   0 -16    1.17    4.48
  -8   0  16   -2.50    4.94
  -8   0  16   -0.16    3.73
  -7   0  16   78.05   16.04
   7   0 -16   93.78   13.43
  -7   0  16  105.51   16.47
  -6   0  16   -2.08    7.64
   6   0 -16    8.71    4.44
  -6   0  16    4.38    4.06
   5   0 -16   84.20   12.95
  -5   0  16   78.49   15.58
  -5   0  16   88.99   13.58
   4   0 -16    0.84    2.92
  -4   0  16    3.68    3.91
  -4   0  16   -0.62    3.64
  -3   0  16   44.55   13.12
   3   0 -16   42.53    9.77
  -3   0  16   39.17    7.96
  -2   0  16    3.05    4.92
   2   0 -16   -2.25    3.64
  -2   0  16   -0.25    3.15
  -1   0  16   53.42   14.43
  -1   0  16   29.22    5.02
   1   0 -16   48.77   10.20
  -1   0  16   36.24    5.91
   0   0  16   -6.37    7.90
   0   0 -16    1.27    3.47
  -1   0 -16   35.94    9.38
  -2   0 -16    3.77    4.65
  -3   0 -16   12.47    4.19
  -4   0 -16    0.30    3.61
  -5   0 -16   35.26    8.69
  -6   0 -16    1.23    3.78
  -7   0 -16   50.10   11.94
  -8   0 -16   -8.27    6.97
  -9   0 -16   27.50    9.03
 -10   0 -16   -8.52    6.06
 -11   0 -16   25.20   10.37
 -12   0 -16   -1.91    5.17
 -13   0 -16   11.14    8.78
 -14   0 -16   -0.55    3.98
 -15   0 -16    5.07    4.78
 -16   0 -16    1.96    7.45
 -17   0 -16    7.05    6.91
 -18   0 -16   12.45    9.58
 -19   0 -16   21.49   14.74
 -20   0 -16   24.23   14.89
 -25  -1  16  -28.24   15.24
 -25   1  16    3.71    9.66
 -24  -1  16   24.35   14.44
 -24   1  16   33.51   17.04
 -23  -1  16   -7.08   13.47
 -23   1  16  -11.47   13.87
 -22  -1  16   23.38   12.68
 -22   1  16   30.19   15.14
 -21  -1  16   -7.42    6.21
 -21   1  16  -35.87   16.55
 -20  -1  16   43.96   16.70
 -20   1  16   11.91    9.49
 -19  -1  16    9.25    9.84
 -19   1  16   -2.94    6.73
 -18  -1  16   20.98   12.84
 -18   1  16    5.97    6.25
 -17  -1  16    5.86    9.18
 -17   1  16   -4.66    8.89
 -16  -1  16   31.23   12.50
 -16   1  16   33.30   15.43
 -15  -1  16    0.38    5.84
 -15   1  16   12.34    6.17
 -14  -1  16   18.88    8.74
 -14  -1  16   10.47    7.85
 -14   1  16   25.62   10.46
  14  -1 -16   20.26    7.46
  13  -1 -16    5.53    5.22
 -13  -1  16   -3.92    6.78
 -13  -1  16    4.90    6.57
 -13   1  16    4.96    5.12
  12  -1 -16   15.64    5.72
 -12  -1  16    3.15    2.90
 -12  -1  16   12.10    8.13
 -12   1  16    0.21    5.61
  11  -1 -16   -0.05    3.21
 -11  -1  16    1.27    3.63
 -11   1  16   -3.14    4.27
 -11  -1  16   -7.89    7.82
 -11   1  16   -2.31    4.67
  11   1 -16   -3.07    4.16
  10   1 -16   30.12    7.80
  10  -1 -16   25.80    7.78
 -10  -1  16   18.95    7.10
 -10   1  16   42.12   12.73
 -10  -1  16   39.06   13.06
 -10   1  16   25.57   10.31
   9   1 -16   -2.88    3.44
   9  -1 -16    6.03    3.87
  -9  -1  16    3.12    4.71
  -9  -1  16    3.07    4.44
  -9   1  16   -1.48    3.74
  -9   1  16   -3.02    5.12
   8   1 -16   80.90   12.23
   8  -1 -16   76.35   13.08
  -8  -1  16   79.14   15.55
  -8   1  16   68.72   14.44
  -8  -1  16   74.14   14.24
  -8   1  16   80.30   16.45
  -7   1  16   -4.89    8.51
  -7  -1  16   -0.50    3.87
   7   1 -16    3.21    3.97
   7  -1 -16    7.53    5.18
  -7  -1  16    0.49    4.65
  -7   1  16   -3.47    4.38
  -6   1  16   91.77   17.61
   6   1 -16   75.97   11.75
  -6  -1  16   99.90   17.13
   6  -1 -16   76.49   13.27
  -6  -1  16   79.04   13.14
  -6   1  16   96.87   15.84
   5   1 -16    6.37    5.16
  -5   1  16    4.72    5.43
   5  -1 -16    5.08    4.83
  -5  -1  16    5.05    4.12
  -5  -1  16    4.33    3.89
  -5   1  16   -3.64    5.58
   4   1 -16   65.31   11.12
   4  -1 -16   61.29   11.74
  -4  -1  16   69.66   10.60
  -4   1  16   57.62   15.85
  -4  -1  16   66.33   14.80
  -4   1  16   49.63   10.60
  -3  -1  16   -2.86    5.29
   3   1 -16    3.41    3.41
  -3  -1  16    1.92    1.80
   3  -1 -16   -3.71    5.08
  -3   1  16   -6.08    5.77
  -3   1  16    5.83    7.87
  -2   1  16   37.64   10.80
   2   1 -16   55.19   10.09
   2  -1 -16   44.10   10.68
  -2   1  16   36.95    8.27
  -2  -1  16   67.98   14.45
   1   1 -16    1.55    2.47
   1  -1 -16   -4.62    5.19
  -1   1  16   11.74    6.55
  -1   1  16    2.80    2.93
  -1  -1  16   -9.33    7.95
   0   1  16    1.31    2.64
   0   1  16    3.99    6.37
   0   1 -16    0.50    2.66
   0  -1 -16    4.01    5.34
   0   1  16   -0.46    2.52
   1   1  16    1.49    1.73
  -1   1 -16    6.10    4.76
  -1  -1 -16    0.10    2.88
   1   1  16    6.12    3.33
   1   1  16    5.22    6.43
   2   1  16   14.36    4.00
  -2   1 -16   10.28    4.72
   2   1  16   13.48    3.58
  -2  -1 -16   10.76    3.73
  -3  -1 -16    5.26    4.66
  -3   1 -16   -1.62    4.08
   3   1  16    0.79    0.86
  -4  -1 -16    7.26    4.73
  -4   1 -16    7.50    6.17
  -5   1 -16   12.31    6.90
  -5  -1 -16    1.21    3.27
  -6   1 -16   41.11   10.48
  -6  -1 -16   26.59    8.88
  -7   1 -16    4.06    3.74
  -7  -1 -16    2.45    3.97
  -8   1 -16   35.32    9.87
  -8  -1 -16   43.95   13.35
  -9   1 -16   -0.56    3.60
  -9  -1 -16   -5.33    7.65
 -10   1 -16   31.43    9.79
 -10  -1 -16   36.84   11.10
 -11   1 -16   -0.11    5.06
 -11  -1 -16    1.96    4.75
 -12  -1 -16    9.82    7.17
 -12   1 -16   24.73   10.04
 -13  -1 -16   14.79    8.04
 -13   1 -16    4.33    5.57
 -14  -1 -16    6.04    7.28
 -14   1 -16    5.99    5.82
 -15   1 -16   18.45   10.19
 -15  -1 -16   -2.34    4.65
 -16  -1 -16    7.24    8.34
 -16   1 -16    4.34    5.18
 -17  -1 -16    9.11    9.52
 -17   1 -16   -9.18    9.42
 -18  -1 -16    2.16    7.91
 -18   1 -16  -19.42   13.57
 -19  -1 -16  -15.88   11.58
 -20  -1 -16    8.47    9.86
 -25  -2  16   39.62   17.17
 -24  -2  16   -8.24   10.00
 -24   2  16    5.10    8.27
 -23  -2  16   -3.22    7.65
 -23   2  16   19.43   14.67
 -22  -2  16   -5.42    6.10
 -22   2  16   -3.72    9.65
 -21  -2  16   30.31   14.96
 -21   2  16   49.32   20.47
 -20  -2  16   -2.37    5.76
 -20   2  16   -5.51    7.80
 -19  -2  16   15.36    8.81
 -19   2  16   49.92   18.78
 -18  -2  16   -5.76   10.08
 -18   2  16   15.12   12.83
 -17  -2  16   13.70   10.80
 -17   2  16   19.18    9.01
 -16  -2  16   20.84   10.86
 -16   2  16   -9.50    8.77
  16  -2 -16    8.26    5.28
  15  -2 -16   44.35   10.80
 -15  -2  16   26.32   10.74
 -15   2  16   42.04   15.09
  14  -2 -16   18.72    7.14
 -14  -2  16   14.41    5.46
 -14  -2  16   13.54    8.96
 -14   2  16   -2.09    7.49
  13  -2 -16   13.30    6.30
 -13  -2  16    3.72    4.06
 -13  -2  16   -0.98    6.06
 -13   2  16   18.03   11.62
  12  -2 -16   20.64    6.72
 -12  -2  16   12.31    6.22
 -12  -2  16    1.89    6.22
 -12   2  16    9.86    6.96
  11  -2 -16   31.85    9.10
 -11  -2  16   24.83    9.16
 -11  -2  16   37.22   11.98
 -11   2  16   24.58   10.69
  10  -2 -16    2.46    2.98
 -10  -2  16    6.55    4.90
 -10  -2  16    3.62    6.29
 -10   2  16   -5.30    8.28
   9  -2 -16   11.18    5.21
  -9  -2  16    8.12    6.00
  -9  -2  16    9.04    5.46
  -9   2  16   11.59    8.69
   8  -2 -16   -2.01    5.18
  -8  -2  16    2.16    4.48
  -8  -2  16    3.29    3.61
   8   2 -16    0.88    2.28
  -7   2  16   11.76    4.39
   7   2 -16   30.13    7.20
   7  -2 -16   31.84    9.64
  -7  -2  16   41.54    9.28
   6   2 -16   -0.37    1.83
   6  -2 -16   -0.12    2.76
  -6  -2  16    0.86    2.70
   5   2 -16   57.09    9.29
  -5   2  16   54.37   13.93
  -5  -2  16   73.21   10.59
   5  -2 -16   50.40   11.41
   4   2 -16    0.20    2.12
  -4  -2  16    0.14    1.70
   4  -2 -16    3.36    4.02
   3   2 -16   63.85   10.08
   3  -2 -16   47.68   11.01
  -3   2  16   44.46   14.30
  -2   2  16   22.52    9.31
   2   2 -16    9.31    4.37
   2  -2 -16    9.22    4.19
   1   2 -16   10.68    4.89
  -1   2  16    0.13    8.12
   1  -2 -16   -0.36    4.52
   0   2  16  -12.53   10.03
   0   2 -16    5.15    5.43
   0  -2 -16    3.45    4.52
   1   2  16   20.44    6.52
  -1   2 -16   15.50    5.86
  -1  -2 -16   10.65    5.62
   1   2  16   12.50    7.15
   2   2  16   12.90    4.82
   2   2  16    9.11    4.74
  -2   2 -16   14.74    6.70
  -2  -2 -16   13.06    5.40
  -3  -2 -16    8.22    5.09
  -3   2 -16    8.62    3.33
  -4  -2 -16   -3.58    4.61
  -4   2 -16   -0.13    2.52
  -5  -2 -16    6.45    3.93
  -5   2 -16    0.97    4.15
  -6   2 -16   11.03    5.25
  -6  -2 -16    0.88    4.89
  -7   2 -16   27.66    8.62
  -7  -2 -16   11.78    8.00
  -8   2 -16   11.07    7.08
  -8  -2 -16   -1.63    4.06
  -9   2 -16   33.32    9.63
  -9  -2 -16   28.65   10.57
 -10   2 -16   10.64    5.14
 -10  -2 -16    8.51    7.18
 -11   2 -16   10.53    5.35
 -11  -2 -16   17.68    7.30
 -12   2 -16   15.46    8.40
 -12  -2 -16   -5.59    6.61
 -13  -2 -16    9.07    8.33
 -13   2 -16    9.31    6.08
 -14  -2 -16    4.98    5.04
 -14   2 -16    5.83    7.20
 -15   2 -16    0.14    5.31
 -15  -2 -16    6.97    5.52
 -16  -2 -16   12.23    9.97
 -17  -2 -16   -2.43    6.97
 -18  -2 -16   -8.11   13.10
 -19  -2 -16   16.73   14.55
 -20  -2 -16  -20.13   12.71
 -25  -3  16  -10.27   11.17
 -24  -3  16   17.62   12.48
 -24   3  16    5.84   12.36
 -23  -3  16   27.77   16.10
 -23   3  16   28.08   16.76
 -22  -3  16   -8.48   13.62
 -22   3  16    1.36   14.93
 -21  -3  16   12.93   12.78
 -21   3  16   -2.65   12.46
 -20  -3  16   37.24   15.44
 -20   3  16   15.37   12.49
 -19  -3  16   29.32   14.31
 -19   3  16   22.58   15.41
 -18  -3  16   18.05   10.92
 -18   3  16   24.19   13.42
 -17  -3  16   20.32   10.11
 -17   3  16   42.63   18.32
  17  -3 -16   16.06    7.06
  16  -3 -16    4.43    3.16
 -16  -3  16   10.59    7.85
  15  -3 -16   10.17    6.38
 -15  -3  16   11.36    8.93
 -15   3  16   20.86   12.08
  14  -3 -16   31.90    9.93
 -14  -3  16   25.85   14.90
 -14   3  16   26.29   12.58
  13  -3 -16   24.13    8.81
 -13  -3  16    3.75    5.26
 -13   3  16   38.11   15.38
  12  -3 -16   40.24   10.55
 -12  -3  16   22.25    7.63
 -12  -3  16   49.20   14.65
  11  -3 -16   14.71    7.05
 -11  -3  16   18.87    6.87
 -11  -3  16   24.17   10.99
  10  -3 -16    0.15    3.28
 -10  -3  16    2.83    3.72
   9  -3 -16    5.82    4.97
  -9  -3  16    4.89    4.25
   8  -3 -16    2.23    2.95
  -8  -3  16    1.58    3.36
  -7  -3  16   15.98    7.35
   7  -3 -16    5.20    3.15
  -6  -3  16   18.20    5.67
   6  -3 -16   19.53    7.46
  -6  -3  16   24.97    8.70
   6   3 -16   19.30    5.05
   5   3 -16   10.00    3.87
  -5  -3  16    0.28    1.78
   5  -3 -16   16.99    6.44
  -5  -3  16    1.96    5.08
   4   3 -16   44.48    7.38
  -4  -3  16   29.74    7.85
   4  -3 -16   36.42    9.82
   3   3 -16   20.17    5.13
   3  -3 -16   13.72    6.71
  -3  -3  16   42.27   10.25
   2   3 -16   13.10    4.31
   2  -3 -16    5.54    6.47
   1   3 -16   31.87    6.70
   1  -3 -16   11.89    7.00
   0   3 -16   20.12    5.60
   0  -3 -16    9.07    4.72
   1   3  16   43.56   10.54
  -1   3 -16   43.65    8.46
  -1  -3 -16   30.51    9.22
   2   3  16  109.93   15.89
  -2   3 -16  119.24   13.78
  -2  -3 -16   93.81   16.79
  -3  -3 -16   27.09    9.30
  -3   3 -16   40.54    8.38
  -4  -3 -16    8.38    6.21
  -4   3 -16   -0.75    3.65
  -5  -3 -16    3.89    4.72
  -5   3 -16    6.99    2.87
  -6  -3 -16  -11.72    6.87
  -6   3 -16    7.94    5.88
  -7   3 -16   26.41    8.01
  -7  -3 -16    9.62    4.58
  -8   3 -16    1.41    3.53
  -8  -3 -16    5.65    6.50
  -9   3 -16   10.57    4.71
  -9  -3 -16   10.41    6.83
 -10   3 -16   32.79    8.47
 -10  -3 -16   16.71    8.61
 -11   3 -16    6.47    4.87
 -11  -3 -16   12.02    7.20
 -12   3 -16    4.76    5.60
 -12  -3 -16   15.06   10.03
 -13  -3 -16   38.58   12.65
 -14  -3 -16    7.80    8.29
 -15  -3 -16   17.23    9.59
 -16  -3 -16    8.82   10.27
 -17  -3 -16   23.33   11.21
 -18  -3 -16    0.56    7.83
 -25  -4  16  -10.62   10.62
 -24  -4  16   35.55   16.08
 -23  -4  16   15.32   11.53
 -23   4  16   14.26   13.20
 -22  -4  16   16.93   13.13
 -22   4  16   40.86   22.42
 -21  -4  16    2.11    6.66
 -21   4  16   12.06    8.47
 -20  -4  16    3.42    6.71
 -20   4  16   64.34   25.41
 -19  -4  16   29.28   14.33
 -19   4  16    8.00   11.33
 -18  -4  16   46.28   16.09
 -18   4  16   40.82   17.05
  18  -4 -16   39.10   11.46
  17  -4 -16   27.71    9.25
 -17  -4  16    1.92    5.25
 -17   4  16   19.84   13.15
  16  -4 -16   38.57   11.62
 -16  -4  16   22.08    9.76
 -16   4  16   26.53   16.17
  15  -4 -16    2.02    5.14
 -15  -4  16    7.58    5.35
  14  -4 -16   37.09   10.99
 -14  -4  16   51.71   15.10
  13  -4 -16   45.75   11.78
 -13  -4  16   59.04   16.22
  12  -4 -16   28.42    9.26
 -12  -4  16   19.76    9.33
  11  -4 -16   10.16    4.70
 -11  -4  16    9.32    6.95
  10  -4 -16  132.68   17.91
 -10  -4  16   25.28    9.31
  -9  -4  16    2.43    5.75
   9  -4 -16    5.89    5.01
  -8  -4  16   16.42    6.40
   8  -4 -16   14.87    7.39
  -7  -4  16   -1.20    3.22
   7  -4 -16    2.65    5.04
  -6  -4  16   32.60    7.23
   6  -4 -16   33.40   10.32
   5  -4 -16    0.31    5.35
   4  -4 -16   26.62    8.90
   3  -4 -16    2.61    4.25
   2   4 -16   43.42    6.19
   2  -4 -16   43.00   11.61
   1   4 -16    4.98    2.18
   1  -4 -16   10.17    8.07
   0   4 -16   51.84    6.99
   0  -4 -16   44.86   12.14
  -1   4 -16   70.15    7.97
  -1  -4 -16   52.24   12.54
  -2   4 -16   45.44    7.07
  -2  -4 -16   46.19   12.36
  -3  -4 -16   13.43    7.40
  -3   4 -16   29.58    5.98
  -4  -4 -16   47.89   12.89
  -4   4 -16   33.23    6.62
  -5  -4 -16    2.04    3.94
  -5   4 -16    9.07    6.01
  -6  -4 -16    5.81    5.58
  -6   4 -16   17.01    5.31
  -7  -4 -16    0.90    5.99
  -7   4 -16    0.55    2.87
  -8  -4 -16   31.81   10.94
  -9  -4 -16   -0.15    7.14
 -10  -4 -16   25.70   10.57
 -11  -4 -16    2.52    6.10
 -12  -4 -16   35.85   12.15
 -13  -4 -16   27.03   11.88
 -14  -4 -16   -4.39    5.14
 -15  -4 -16   -4.89    8.68
 -16  -4 -16   16.55   12.07
 -17  -4 -16   13.49    6.74
 -25  -5  16  -14.41   10.14
 -24  -5  16    9.73   10.23
 -23  -5  16   25.48   18.82
 -22  -5  16   42.62   18.10
 -22   5  16   28.58   19.38
 -21  -5  16    4.92    7.75
 -21   5  16   26.67   20.72
 -20  -5  16   -8.55   10.91
 -20   5  16   -6.59   16.89
 -19  -5  16   13.19   10.79
 -19   5  16   52.65   22.70
  19  -5 -16   25.09    8.60
  18  -5 -16    3.90    5.39
 -18  -5  16   -0.64    7.04
 -18   5  16    2.13   11.01
  17  -5 -16   35.49   11.13
 -17  -5  16   23.88   10.99
  16  -5 -16   -4.40    4.55
 -16  -5  16    8.45    8.18
  15  -5 -16   36.95   11.12
 -15  -5  16   40.70   13.97
  14  -5 -16    0.45    3.53
 -14  -5  16   -8.17    8.66
  13  -5 -16   35.53   10.56
 -13  -5  16   42.20   13.61
  12  -5 -16    7.93    5.17
 -12  -5  16   -8.68    7.15
  11  -5 -16   23.96    9.50
 -11  -5  16   15.99    7.34
 -10  -5  16   13.57    7.06
  10  -5 -16    6.27    5.09
  -9  -5  16   16.25    6.91
   9  -5 -16   30.08   10.41
  -8  -5  16    2.10    3.73
   8  -5 -16    1.35    5.07
   7  -5 -16   11.69    8.43
   6  -5 -16   -0.24    3.66
   5  -5 -16   29.93    9.85
   4  -5 -16    8.41    6.84
   3  -5 -16   35.31   11.11
   2  -5 -16    3.60    4.92
   1  -5 -16   45.87   12.16
   0  -5 -16   24.04    8.96
  -1  -5 -16   35.45    9.81
  -2  -5 -16   -2.03    5.38
  -3  -5 -16   19.84    8.81
  -4  -5 -16    9.67    6.62
  -5  -5 -16    8.98    7.50
  -6  -5 -16   -1.85    5.12
  -7  -5 -16   14.24    7.49
  -8  -5 -16    0.68    4.58
  -9  -5 -16   22.14    8.77
 -10  -5 -16    5.49    5.99
 -11  -5 -16   17.87   10.01
 -12  -5 -16   -0.36    5.57
 -13  -5 -16   35.84   13.78
 -14  -5 -16   10.44   10.58
 -15  -5 -16   27.15   11.01
 -16  -5 -16  -12.05    9.56
 -24  -6  16  -26.74   14.13
 -23  -6  16   -0.09    6.66
 -22  -6  16    6.81    7.96
 -21  -6  16    3.13   12.35
 -21   6  16    8.81   10.66
 -20  -6  16  -10.07    8.60
  20  -6 -16   12.64    7.02
  19  -6 -16    6.70    6.01
 -19  -6  16   -2.81    6.25
  18  -6 -16   27.42   10.95
 -18  -6  16    6.43   10.02
  17  -6 -16   -1.20    4.92
 -17  -6  16   -8.54    8.35
  16  -6 -16    5.25    5.90
 -16  -6  16    4.85    6.03
  15  -6 -16   -3.56    6.33
 -15  -6  16   17.65   11.47
  14  -6 -16    9.61    6.29
 -14  -6  16   12.36    8.18
  13  -6 -16   13.22    6.84
 -13  -6  16    4.37    6.15
  12  -6 -16   11.19    6.98
 -12  -6  16   52.61   12.17
 -11  -6  16   -8.39    8.94
  11  -6 -16    1.15    5.44
 -10  -6  16   22.30    8.87
  10  -6 -16    5.01    4.42
   9  -6 -16    9.97    8.45
   8  -6 -16   15.45   11.41
   7  -6 -16    0.09    4.19
   6  -6 -16   17.52   11.53
   5  -6 -16    3.31    8.32
   4  -6 -16    1.59    6.32
   3  -6 -16    2.26    4.14
   2  -6 -16    4.03    6.89
   1  -6 -16    0.05    4.80
   0  -6 -16    8.94    5.60
  -1  -6 -16    2.03    4.55
  -2  -6 -16   11.51    6.88
  -3  -6 -16    7.96    7.15
  -4  -6 -16   12.60    8.98
  -5  -6 -16    4.68    6.06
  -6  -6 -16    6.74    6.91
  -7  -6 -16    0.46    4.38
  -8  -6 -16   36.76   12.89
  -9  -6 -16    0.56    7.83
 -10  -6 -16    9.10    4.60
 -11  -6 -16    5.25    5.67
 -12  -6 -16   16.98   11.29
 -13  -6 -16    0.92    4.61
 -14  -6 -16   25.17   12.58
 -23  -7  16   -0.84    7.36
 -22  -7  16    6.40   14.23
 -21  -7  16   14.11   10.43
 -20  -7  16   -8.85    8.66
 -19  -7  16    2.89    9.17
  18  -7 -16    2.54    4.47
 -18  -7  16   10.14    7.71
  17  -7 -16   -1.47    4.93
 -17  -7  16   -5.01    9.18
  16  -7 -16   -7.04    7.14
 -16  -7  16   -2.86    6.91
  15  -7 -16    6.55    6.63
 -15  -7  16   -4.36    4.81
  14  -7 -16    3.38    3.11
 -14  -7  16   14.88   10.63
 -13  -7  16   -1.83    7.06
  13  -7 -16   12.83    7.42
 -12  -7  16   -1.29    7.52
  12  -7 -16   17.25    7.44
  11  -7 -16    3.90    5.04
  10  -7 -16    4.71    5.64
   9  -7 -16   -3.37    7.79
   8  -7 -16   -0.96    4.46
   7  -7 -16    3.97    8.12
   6  -7 -16    0.34    4.94
   5  -7 -16    3.69    5.33
   4  -7 -16    6.02    7.14
   3  -7 -16   -3.89    5.44
   2  -7 -16    5.59    7.56
   1  -7 -16    1.82    5.21
   0  -7 -16    1.26    4.18
  -1  -7 -16    4.68    5.61
  -2  -7 -16   15.30    8.40
  -3  -7 -16    0.24    5.10
  -4  -7 -16    5.49    4.94
  -5  -7 -16    4.38    5.67
  -6  -7 -16    5.12    6.40
  -7  -7 -16   -4.26    5.22
  -8  -7 -16   -3.02    6.11
  -9  -7 -16   -0.25    6.30
 -10  -7 -16    1.10    4.44
 -11  -7 -16    7.67    5.57
 -12  -7 -16    2.43    6.09
 -21  -8  16    9.38    8.13
 -20  -8  16   11.80    9.74
 -19  -8  16    7.22    6.16
 -18  -8  16    9.46    5.05
 -17  -8  16   30.39   14.89
  16  -8 -16    1.24    4.64
 -16  -8  16   -7.85    9.30
  15  -8 -16   20.00    8.80
  14  -8 -16    8.56    6.74
  13  -8 -16    8.31    6.47
  12  -8 -16   -4.78    5.65
  11  -8 -16    6.90    4.30
  10  -8 -16    7.77    6.97
   9  -8 -16    1.88    6.35
   8  -8 -16   -0.31    5.14
   7  -8 -16    3.88    7.91
   6  -8 -16   -1.05    8.06
   5  -8 -16    1.93    4.08
   4  -8 -16   -0.08    5.16
   3  -8 -16    2.37    7.07
   2  -8 -16    0.25    6.80
   1  -8 -16    9.67    7.85
   0  -8 -16    2.97    6.61
  -1  -8 -16   10.23    6.62
  -2  -8 -16   -0.55    8.31
  -3  -8 -16   -7.16    7.06
  -4  -8 -16   -9.68    7.50
  -5  -8 -16   -7.94    7.19
  -6  -8 -16  -18.20    9.41
  -7  -8 -16   -1.65    5.09
  -8  -8 -16    0.99    4.28
  -9  -8 -16   -3.63    5.99
 -10  -8 -16    1.95    6.87
  13  -9 -16   11.91    7.69
  12  -9 -16    1.95    6.16
  11  -9 -16   13.82   11.36
  10  -9 -16   20.49    8.62
   9  -9 -16    8.01   10.59
   8  -9 -16    2.16    6.81
   7  -9 -16    0.29    7.08
   6  -9 -16    3.87    5.30
   5  -9 -16    4.28    7.41
   4  -9 -16   -0.71    5.41
   3  -9 -16    6.49    8.86
   2  -9 -16    1.48    7.32
   1  -9 -16    1.02    4.61
   0  -9 -16    0.82    5.14
  -1  -9 -16   11.73    7.15
  -2  -9 -16   11.88    7.47
  -3  -9 -16   20.81   10.11
  -4  -9 -16   -8.64    7.06
  -5  -9 -16   -3.56    6.81
  -6  -9 -16   26.11   11.05
   7 -10 -16   -0.26    5.75
   6 -10 -16    5.13    7.78
   5 -10 -16   -0.60    8.19
   4 -10 -16   12.28   13.80
   3 -10 -16   -0.19    4.69
   2 -10 -16    9.71   11.10
   1 -10 -16    6.38   11.74
   0 -10 -16   12.70   16.90
  -1 -10 -16   11.95    9.87
 -24   0  17  -49.61   20.23
 -23   0  17    4.91   11.16
 -22   0  17    9.92    8.95
 -21   0  17   -0.22    9.93
 -20   0  17   -2.61    5.90
 -19   0  17   -5.65    9.61
 -18   0  17   -9.93    9.61
 -17   0  17  -21.88   11.98
 -16   0  17    3.86    7.04
 -15   0  17   -6.64    5.95
 -14   0  17    2.78    5.46
 -13   0  17    4.28    6.67
  12   0 -17   -5.79    4.70
 -12   0  17    2.25    4.95
  11   0 -17    2.71    3.37
 -11   0  17    9.06    8.26
  10   0 -17    2.28    2.85
 -10   0  17    9.51    6.50
 -10   0  17   -3.37    4.79
   9   0 -17    3.79    3.75
  -9   0  17   -6.32    7.09
  -9   0  17    6.48    7.45
  -8   0  17    8.40    6.26
   8   0 -17    0.99    3.44
  -8   0  17   -4.03    6.73
  -7   0  17   -8.59    6.35
   7   0 -17    2.13    4.56
  -7   0  17   -5.39    6.07
   6   0 -17    4.30    4.07
  -6   0  17  -11.09    7.33
  -6   0  17    4.88    4.44
   5   0 -17   -2.42    2.81
  -5   0  17   -2.20    5.53
  -5   0  17    0.88    3.37
   4   0 -17   -1.26    4.36
  -4   0  17    1.64    2.61
  -4   0  17    1.59    5.08
  -3   0  17    7.59    5.64
   3   0 -17    2.98    2.69
  -3   0  17   -3.80    3.70
   2   0 -17    1.56    2.72
  -2   0  17    0.80    4.43
   1   0 -17    1.75    5.03
  -1   0  17   -3.08    5.20
   0   0 -17    1.17    4.90
  -1   0 -17   -0.39    3.38
  -2   0 -17    1.35    3.62
  -3   0 -17    3.74    3.84
  -4   0 -17    5.39    4.55
  -5   0 -17    0.05    4.93
  -6   0 -17    2.29    3.69
  -7   0 -17    2.87    4.54
  -8   0 -17   -5.91    6.99
  -9   0 -17   -6.23    6.65
 -10   0 -17    1.60    5.19
 -11   0 -17    3.18    6.19
 -12   0 -17   -2.12    6.40
 -13   0 -17   -0.12    5.17
 -14   0 -17   11.95    8.34
 -15   0 -17  -15.34    8.89
 -16   0 -17    2.48    6.43
 -17   0 -17  -23.51   11.46
 -25  -1  17   25.39   15.72
 -24  -1  17   53.21   22.96
 -24   1  17   -3.86    7.03
 -23  -1  17   26.51   15.06
 -23   1  17    3.81   10.26
 -22  -1  17   22.61   14.76
 -22   1  17  -22.07   14.19
 -21  -1  17  -12.12   10.52
 -21   1  17   -4.82    6.96
 -20  -1  17    7.32    7.98
 -20   1  17   24.25   13.19
 -19  -1  17    0.59    5.93
 -19   1  17    1.98    5.99
 -18  -1  17    1.56    6.62
 -18   1  17   -7.78    6.47
 -17  -1  17   -5.38    7.87
 -17   1  17    9.34    9.77
 -16  -1  17   28.98   13.21
 -16   1  17   19.60    9.65
 -15  -1  17   -2.55    6.26
 -15   1  17   -6.85    8.33
 -14  -1  17   26.20   10.43
 -14   1  17   16.61   10.21
  14  -1 -17   23.65    7.57
  13  -1 -17   -5.97    5.53
 -13  -1  17   -1.43    5.74
 -13   1  17   -1.77    6.30
  12  -1 -17   13.30    6.57
 -12  -1  17    8.55    7.50
 -12   1  17   11.86    9.37
  11  -1 -17   10.63    6.00
 -11  -1  17   16.03    9.95
 -11   1  17   16.93    7.73
  10   1 -17   49.38    9.80
  10  -1 -17   31.31    8.61
 -10  -1  17   50.86   12.88
 -10  -1  17   43.39   12.67
 -10   1  17   35.50   12.10
   9   1 -17    3.80    3.31
   9  -1 -17    1.96    3.46
  -9  -1  17    2.07    3.80
  -9   1  17   -1.98    6.56
  -9  -1  17    0.35    6.72
  -8   1  17    3.30    4.37
  -8  -1  17    2.31    4.11
   8   1 -17    5.87    2.48
   8  -1 -17   -1.86    5.14
  -8  -1  17    5.91    3.80
  -8   1  17    1.03    3.69
   7   1 -17    3.79    2.78
  -7   1  17   -7.76    5.39
  -7  -1  17  -13.72    7.58
   7  -1 -17    6.67    3.41
  -7  -1  17    0.30    4.03
  -7   1  17   11.10    7.02
   6   1 -17   12.95    6.00
   6  -1 -17   10.64    5.42
  -6   1  17   -1.71    4.23
  -6  -1  17    9.86    6.97
  -6  -1  17   14.86    6.61
  -6   1  17    4.63    3.72
   5   1 -17    1.38    2.31
   5  -1 -17   -0.88    2.81
  -5  -1  17   -1.86    4.66
  -5   1  17   -7.22    8.10
  -5  -1  17   -8.02    6.20
  -5   1  17   -6.92    5.34
  -4  -1  17    5.99    4.28
   4   1 -17    5.78    2.98
   4  -1 -17   -3.93    3.66
  -4  -1  17    4.53    3.12
  -4   1  17    3.47    3.14
  -4   1  17    4.81    4.14
  -3   1  17   15.87    7.62
   3   1 -17   10.21    6.11
   3  -1 -17    3.37    4.64
  -3  -1  17    2.06    4.84
  -3   1  17   -0.27    3.23
   2   1 -17   30.43    8.57
  -2  -1  17   12.75    6.29
   2  -1 -17   41.38   11.39
  -2   1  17   34.44   11.14
  -2   1  17   18.37    6.06
  -1   1  17    7.71    6.69
   1  -1 -17    4.68    3.56
  -1   1  17   14.36    5.58
   0   1  17   43.54   15.04
   0   1 -17   49.01   10.26
   0  -1 -17   52.09   12.13
  -1   1 -17   11.29    4.65
  -1  -1 -17    7.26    5.06
  -2   1 -17   15.21    6.90
  -2  -1 -17    1.52    4.87
  -3   1 -17    8.60    6.63
  -3  -1 -17   -8.70    5.12
  -4  -1 -17   37.41   10.75
  -4   1 -17   27.83    8.08
  -5  -1 -17    6.60    6.51
  -5   1 -17    8.69    5.23
  -6   1 -17   12.19    7.04
  -6  -1 -17    5.54    3.89
  -7   1 -17   -0.57    5.48
  -7  -1 -17   -2.75    3.15
  -8   1 -17   -0.12    3.32
  -8  -1 -17    8.74    6.73
  -9   1 -17    0.22    3.26
  -9  -1 -17    2.82    4.96
 -10   1 -17   16.80    9.26
 -10  -1 -17   -5.01    6.67
 -11   1 -17   -3.68    3.41
 -11  -1 -17   11.54    6.59
 -12   1 -17   -7.67    8.78
 -12  -1 -17   19.19   10.64
 -13   1 -17    0.91    3.69
 -13  -1 -17   12.58    9.56
 -14   1 -17   -5.38    4.97
 -14  -1 -17    3.28    7.77
 -15  -1 -17   12.55    5.33
 -16  -1 -17    7.08    7.41
 -17  -1 -17    2.52    5.84
 -18  -1 -17   -9.20    9.06
 -25  -2  17   52.63   21.37
 -24  -2  17  -12.80   12.40
 -24   2  17   -2.84   10.69
 -23  -2  17   14.00   11.17
 -23   2  17    6.47    8.23
 -22  -2  17   25.66   15.13
 -22   2  17    7.24   12.31
 -21  -2  17   33.12   14.39
 -21   2  17   33.88   17.33
 -20  -2  17    4.27    6.33
 -20   2  17   13.15   11.20
 -19  -2  17   16.55   12.38
 -19   2  17    2.93    8.16
 -18  -2  17    1.12    6.28
 -18   2  17  -18.90   12.23
 -17  -2  17   10.16    6.50
 -17   2  17   31.36   16.36
 -16  -2  17    6.28    7.52
 -16   2  17   20.83   12.43
  16  -2 -17   10.73    6.08
  15  -2 -17   45.48   11.18
 -15  -2  17   68.47   18.33
 -15   2  17   53.04   17.39
  14  -2 -17    2.29    3.85
 -14  -2  17    5.52    8.01
 -14   2  17    7.07    9.00
  13  -2 -17   50.10   11.67
 -13  -2  17   33.92   12.19
 -13   2  17   53.10   16.74
  12  -2 -17    5.32    4.91
 -12  -2  17    2.56    5.83
 -12   2  17    4.49    5.09
  11  -2 -17   62.40   13.81
 -11  -2  17   73.62   16.78
 -11   2  17   58.89   16.93
  10  -2 -17   13.78    7.59
 -10  -2  17    1.39    5.08
 -10   2  17    8.08    5.31
   9  -2 -17   36.63   10.43
  -9  -2  17   61.01   14.02
  -9   2  17   44.34   13.21
   8  -2 -17   -0.89    3.37
  -8  -2  17   16.51    8.80
  -8   2  17   13.48    8.28
   8   2 -17    1.46    2.63
   7   2 -17   18.98    5.74
   7  -2 -17   21.64    8.05
  -7  -2  17   20.92    7.86
  -7   2  17   20.45    9.27
   6   2 -17   -0.24    2.10
   6  -2 -17    3.16    3.51
  -6  -2  17   -4.91    2.92
  -6   2  17   -0.76    4.37
   5   2 -17    5.62    3.91
   5  -2 -17    1.43    3.52
   4   2 -17   -1.42    2.72
   4  -2 -17   -6.43    6.21
   3   2 -17   34.28    8.24
   3  -2 -17   41.37   10.86
   2   2 -17   14.86    5.85
   2  -2 -17   12.54    5.96
   1   2 -17  100.41   13.68
   1  -2 -17   86.35   14.92
   0   2 -17    3.23    2.93
   0  -2 -17    4.93    4.05
  -1   2 -17   76.23   12.25
  -1  -2 -17   52.65   12.60
  -2   2 -17   12.00    5.13
  -2  -2 -17    7.90    7.87
  -3   2 -17   45.91    9.67
  -3  -2 -17   54.71   13.85
  -4  -2 -17    6.80    7.94
  -4   2 -17   20.17    6.78
  -5  -2 -17   64.77   14.48
  -5   2 -17   48.09   10.79
  -6  -2 -17   12.00    8.30
  -6   2 -17    7.01    6.25
  -7   2 -17   19.49    7.17
  -7  -2 -17   24.23    9.71
  -8   2 -17    7.75    6.08
  -8  -2 -17    2.62    4.26
  -9   2 -17   30.63   10.54
  -9  -2 -17   20.96    7.55
 -10   2 -17   -0.42    3.72
 -10  -2 -17    5.42    5.14
 -11  -2 -17   15.00    9.50
 -12  -2 -17    4.43    5.71
 -13  -2 -17   31.04   12.16
 -14  -2 -17   -4.96    7.43
 -15  -2 -17   24.16   10.36
 -16  -2 -17    5.59    8.50
 -17  -2 -17    4.66    6.01
 -18  -2 -17  -21.85   12.23
 -25  -3  17   25.57   15.80
 -24  -3  17   14.45   12.72
 -23  -3  17    2.78    7.08
 -23   3  17  -15.26   15.43
 -22  -3  17   29.61   13.42
 -22   3  17   -6.82   13.07
 -21  -3  17  -13.40   10.50
 -21   3  17   -0.34   13.13
 -20  -3  17   10.26    8.76
 -20   3  17   13.84   12.75
 -19  -3  17    5.16    7.09
 -19   3  17   -2.06   11.83
 -18  -3  17   15.66    8.91
 -18   3  17   49.12   19.77
 -17  -3  17    5.68    9.09
  17  -3 -17   -0.58    4.98
  16  -3 -17   40.37   10.81
 -16  -3  17   41.93   14.12
 -16   3  17   65.04   22.64
  15  -3 -17    3.30    4.48
 -15  -3  17   -1.53    7.80
 -15   3  17   -2.05   10.75
  14  -3 -17   74.95   14.71
 -14  -3  17   76.34   18.38
 -14   3  17   47.83   18.13
  13  -3 -17    6.27    6.07
 -13  -3  17    1.03    5.25
 -13   3  17    5.77    5.76
  12  -3 -17   86.48   15.97
 -12  -3  17   98.99   20.00
 -12   3  17   94.14   22.57
  11  -3 -17    3.90    5.38
 -11  -3  17    8.16    8.02
 -11   3  17   10.45   12.18
  10  -3 -17   48.24   11.51
 -10  -3  17   40.74   11.71
   9  -3 -17    4.99    3.01
  -9  -3  17   -0.70    3.91
   8  -3 -17   47.95   11.42
  -8  -3  17   48.98   10.30
   7  -3 -17   -4.88    7.18
   6  -3 -17   22.05    8.49
   5   3 -17    2.63    2.60
   5  -3 -17   -3.49    5.14
   4   3 -17   31.42    6.17
   4  -3 -17   54.70   13.19
   3   3 -17   -0.57    2.81
   3  -3 -17   -6.60    6.36
   2   3 -17   90.55   10.86
   2  -3 -17   65.96   13.19
   1   3 -17    3.61    3.06
   1  -3 -17    4.43    3.09
   0   3 -17   80.29   10.62
   0  -3 -17   69.08   14.00
  -1   3 -17    2.24    3.13
  -1  -3 -17   12.27    7.34
  -2   3 -17   80.28   11.39
  -2  -3 -17   72.06   15.44
  -3   3 -17   13.83    5.56
  -3  -3 -17   15.12    6.42
  -4  -3 -17   56.65   12.85
  -4   3 -17   77.76   12.65
  -5  -3 -17    3.02    6.28
  -5   3 -17    5.79    5.33
  -6  -3 -17   33.95   11.02
  -7  -3 -17    4.77    4.83
  -8  -3 -17   31.92   11.59
  -9  -3 -17    7.10    4.71
 -10  -3 -17   45.89   12.48
 -11  -3 -17   -8.51    7.89
 -12  -3 -17   24.03   11.69
 -13  -3 -17    5.39    8.66
 -14  -3 -17   48.26   15.97
 -15  -3 -17   -2.47    7.12
 -16  -3 -17   58.05   17.50
 -17  -3 -17   -9.73    8.50
 -24  -4  17  -17.44   12.11
 -23  -4  17   -3.19   13.46
 -22  -4  17  -28.91   14.36
 -22   4  17   -4.34   19.03
 -21  -4  17   14.42   10.53
 -21   4  17   28.88   17.89
 -20  -4  17   19.44   13.54
 -20   4  17    2.83    8.06
 -19  -4  17   48.56   16.62
 -19   4  17   48.80   22.11
 -18  -4  17   -8.69   10.17
 -18   4  17    9.46   10.79
  18  -4 -17   -0.07    3.60
  17  -4 -17   39.58   11.27
 -17  -4  17   25.43   11.01
 -17   4  17   56.52   23.98
  16  -4 -17   -0.24    3.26
 -16  -4  17    4.55    5.69
 -16   4  17   -4.66    9.44
  15  -4 -17   36.51   10.66
 -15  -4  17   50.35   15.41
 -15   4  17   65.35   24.08
  14  -4 -17    5.64    6.58
 -14  -4  17   -0.31    6.03
  13  -4 -17   48.18   11.80
 -13  -4  17   52.66   14.37
  12  -4 -17    2.95    3.33
 -12  -4  17    6.40    7.88
  11  -4 -17   44.43   11.54
 -11  -4  17   44.70   12.20
  10  -4 -17    8.39    6.36
 -10  -4  17    7.93    6.65
   9  -4 -17   22.35    8.63
   8  -4 -17    5.49    5.51
   7  -4 -17   42.03   11.18
   6  -4 -17    4.31    6.82
   5  -4 -17   34.61   10.70
   4  -4 -17   -2.79    3.79
   3  -4 -17   56.02   13.69
   2  -4 -17   13.83    8.45
   1  -4 -17   38.76   12.05
   0  -4 -17   -1.20    3.84
  -1  -4 -17   55.19   13.48
  -2  -4 -17    0.09    3.55
  -3  -4 -17   44.29   13.43
  -4  -4 -17    5.28    5.84
  -5  -4 -17   31.52   11.45
  -6  -4 -17    3.06    6.00
  -7  -4 -17   45.86   12.13
  -8  -4 -17    0.56    4.87
  -9  -4 -17   36.69   11.79
 -10  -4 -17   -6.89    6.99
 -11  -4 -17   57.86   15.75
 -12  -4 -17   11.23    9.68
 -13  -4 -17   55.87   17.50
 -14  -4 -17    9.77    9.45
 -15  -4 -17    0.49    4.98
 -16  -4 -17   -3.46    8.27
 -23  -5  17   -5.67    7.99
 -22  -5  17   29.34   14.28
 -21  -5  17   10.33   10.84
 -21   5  17   40.22   22.39
 -20  -5  17    0.88    8.73
 -20   5  17   15.87   18.10
 -19  -5  17    9.82    8.74
  19  -5 -17    9.32    6.85
  18  -5 -17   29.74   11.07
 -18  -5  17   24.72   10.99
 -18   5  17   11.48   11.24
  17  -5 -17    0.76    6.87
 -17  -5  17    7.13    6.86
 -17   5  17   -4.04   11.46
  16  -5 -17    5.95    4.79
 -16  -5  17   23.15   10.31
  15  -5 -17    6.53    6.08
 -15  -5  17   27.80   12.76
  14  -5 -17   39.13   10.87
 -14  -5  17   14.31    4.51
  13  -5 -17   24.24    9.06
 -13  -5  17  -14.23    9.43
  12  -5 -17   14.02    7.08
  11  -5 -17   10.17    4.54
  10  -5 -17   10.50    4.98
   9  -5 -17   12.52    7.54
   8  -5 -17   14.08   10.28
   7  -5 -17    1.58    5.87
   6  -5 -17   25.19   12.66
   5  -5 -17    4.25    9.03
   4  -5 -17   48.51   14.79
   3  -5 -17   -1.02    4.87
   2  -5 -17   21.76    8.76
   1  -5 -17   -3.47    6.63
   0  -5 -17   15.47    6.94
  -1  -5 -17   -1.56    5.42
  -2  -5 -17   19.81    9.25
  -3  -5 -17   -1.60    3.86
  -4  -5 -17   -5.56    8.83
  -5  -5 -17    1.99    5.15
  -6  -5 -17    1.68    5.41
  -7  -5 -17   -2.16    6.09
  -8  -5 -17   19.09    9.54
  -9  -5 -17    0.30    5.92
 -10  -5 -17   39.81   14.54
 -11  -5 -17   15.14    9.06
 -12  -5 -17   38.06   15.06
 -13  -5 -17    0.76    6.06
 -14  -5 -17    6.25    9.04
 -22  -6  17   30.60   14.86
 -21  -6  17   12.42   10.11
 -20  -6  17   20.02   10.99
 -20   6  17   46.20   32.84
 -19  -6  17    3.46    5.49
 -19   6  17   35.98   21.88
  18  -6 -17   19.14    8.96
 -18  -6  17    2.37    8.54
  17  -6 -17    4.28    5.69
  16  -6 -17    8.97    6.84
  15  -6 -17   11.02    8.06
  14  -6 -17   18.80    9.85
  13  -6 -17   17.71    8.91
  12  -6 -17   20.47    9.23
  11  -6 -17    3.19    4.37
  10  -6 -17   10.92    5.81
   9  -6 -17   -2.10    5.01
   8  -6 -17   13.13    6.20
   7  -6 -17    1.94    6.40
   6  -6 -17    4.90    5.56
   5  -6 -17    8.11   11.14
   4  -6 -17    3.63    8.43
   3  -6 -17   11.34    7.95
   2  -6 -17    2.81    6.31
   1  -6 -17    2.70    7.21
   0  -6 -17   10.76   10.06
  -1  -6 -17   21.06    9.02
  -2  -6 -17    8.16    6.92
  -3  -6 -17   12.18    7.81
  -4  -6 -17    9.15    6.39
  -5  -6 -17    6.43    6.80
  -6  -6 -17   14.15    6.11
  -7  -6 -17   10.23    5.74
  -8  -6 -17    8.15    6.98
  -9  -6 -17   11.73    8.22
 -10  -6 -17    3.67    6.05
 -11  -6 -17    8.21    5.02
 -12  -6 -17   -3.13    5.79
  16  -7 -17   22.44   10.39
  15  -7 -17   22.16    9.12
  14  -7 -17    7.99    4.04
  13  -7 -17   33.00   10.72
  12  -7 -17   -6.73    4.92
  11  -7 -17   37.46   12.36
  10  -7 -17   14.00    8.82
   9  -7 -17    9.32   11.92
   8  -7 -17   -0.63    6.33
   7  -7 -17   15.44   12.70
   6  -7 -17    3.25    5.46
   5  -7 -17   27.50   12.24
   4  -7 -17    3.35    7.64
   3  -7 -17   17.90   10.89
   2  -7 -17    2.74    6.78
   1  -7 -17   20.94   12.17
   0  -7 -17   -0.41    4.74
  -1  -7 -17   28.14   11.48
  -2  -7 -17    0.47    5.52
  -3  -7 -17   22.11   10.41
  -4  -7 -17   -2.17    5.76
  -5  -7 -17   18.06    9.49
  -6  -7 -17    3.35    4.87
  -7  -7 -17    2.90    4.69
  -8  -7 -17   -3.25    5.71
  -9  -7 -17   17.15    9.90
 -10  -7 -17   10.09    7.75
  13  -8 -17   -3.54    8.63
  12  -8 -17   33.76   10.22
  11  -8 -17    0.41    4.78
  10  -8 -17   46.01   14.34
   9  -8 -17    0.46    6.35
   8  -8 -17   14.63   13.66
   7  -8 -17   -0.14    6.14
   6  -8 -17    6.94    8.49
   5  -8 -17    1.16    6.45
   4  -8 -17    6.95   10.76
   3  -8 -17   -0.95    4.34
   2  -8 -17   15.15   13.74
   1  -8 -17   -0.27    5.08
   0  -8 -17   16.56   14.59
  -1  -8 -17   -6.79    6.41
  -2  -8 -17   21.61   11.37
  -3  -8 -17   11.18    9.90
  -4  -8 -17   25.58   10.10
  -5  -8 -17    8.90    7.63
  -6  -8 -17   21.19   11.01
  -7  -8 -17    4.65    5.22
   9  -9 -17   16.76   11.66
   8  -9 -17    1.99    6.61
   7  -9 -17    5.81    6.40
   6  -9 -17    3.47    8.24
   5  -9 -17   11.51   11.18
   4  -9 -17   -0.55    8.22
   3  -9 -17   10.41   10.24
   2  -9 -17   -0.30    4.89
   1  -9 -17   15.49   14.02
   0  -9 -17    1.09    5.47
  -1  -9 -17   -0.50    7.77
  -2  -9 -17    8.51    5.64
 -24   0  18   17.76   14.01
 -23   0  18   85.61   26.05
 -22   0  18   39.03   20.06
 -21   0  18   94.85   27.29
 -20   0  18   43.05   19.54
 -19   0  18   89.25   24.89
 -18   0  18   33.44   15.66
 -17   0  18   77.92   20.04
 -16   0  18   49.89   16.08
 -15   0  18   77.09   20.15
 -14   0  18   15.91    9.89
 -13   0  18  158.68   26.75
 -12   0  18   65.17   17.03
  12   0 -18   67.36   13.44
  11   0 -18  134.63   17.44
 -11   0  18  145.48   23.97
  10   0 -18   38.88    8.64
 -10   0  18   76.94   15.07
   9   0 -18  216.96   22.56
  -9   0  18  187.30   24.76
   8   0 -18   97.00   15.15
  -8   0  18   88.24   16.42
   7   0 -18  195.48   21.20
   6   0 -18   73.92   13.48
   5   0 -18  171.70   20.48
   4   0 -18   82.08   14.37
   3   0 -18  190.65   21.48
   2   0 -18   82.89   14.89
   1   0 -18  103.93   15.87
   0   0 -18   32.46    9.72
  -1   0 -18  141.76   19.79
  -2   0 -18  124.72   18.58
  -3   0 -18   80.99   14.63
  -4   0 -18    1.69    6.13
  -5   0 -18  104.58   17.37
  -6   0 -18   58.88   12.35
  -7   0 -18   94.24   16.50
  -8   0 -18   35.98   10.53
  -9   0 -18   72.47   15.53
 -10   0 -18   51.33   14.34
 -11   0 -18   62.88   15.19
 -12   0 -18   37.23   11.59
 -24  -1  18   91.04   26.53
 -23  -1  18   24.33   14.91
 -23   1  18   31.84   17.45
 -22  -1  18   54.52   19.86
 -22   1  18   74.17   26.11
 -21  -1  18   22.39    9.20
 -21   1  18   42.82   20.50
 -20  -1  18   64.41   20.41
 -20   1  18   57.46   21.79
 -19  -1  18   28.74   12.07
 -19   1  18   22.03   12.78
 -18  -1  18   67.57   21.26
 -18   1  18   80.27   23.06
 -17  -1  18   72.79   20.89
 -17   1  18   23.49   11.66
 -16  -1  18   27.93   12.47
 -16   1  18   74.47   21.77
 -15  -1  18   29.97   12.41
 -15   1  18   31.59   14.14
 -14  -1  18   90.89   20.20
 -14   1  18   70.22   19.26
  14  -1 -18  110.59   17.14
  13  -1 -18   56.32   12.61
 -13  -1  18   33.49   12.74
 -13   1  18   24.40    8.85
  12  -1 -18   98.32   16.31
 -12  -1  18  115.16   21.67
  11  -1 -18   59.24   11.84
 -11  -1  18   58.33   14.75
 -11   1  18   57.28   15.11
  10  -1 -18  111.32   17.00
 -10  -1  18  131.85   21.25
 -10   1  18  107.63   20.58
  10   1 -18  120.23   15.80
   9   1 -18   53.95   10.67
   9  -1 -18   67.30   13.12
   8   1 -18  155.99   17.52
   8  -1 -18  148.60   19.64
  -8   1  18  109.54   18.68
   7   1 -18   67.28   11.71
   7  -1 -18   63.67   13.54
  -7   1  18   67.94   14.60
   6   1 -18  157.67   18.68
   6  -1 -18  115.80   17.37
   5   1 -18   77.72   13.14
   5  -1 -18   58.12   12.58
   4   1 -18  147.12   17.85
   4  -1 -18  131.74   18.79
   3   1 -18   54.17   11.16
   3  -1 -18   51.80   11.33
   2   1 -18   88.47   14.47
   2  -1 -18  102.96   16.92
   1   1 -18   34.02    8.93
   1  -1 -18   32.38   10.48
   0   1 -18  101.83   15.49
   0  -1 -18   84.73   15.55
  -1   1 -18   50.88   11.01
  -1  -1 -18   44.79   11.56
  -2   1 -18   84.32   14.82
  -2  -1 -18   78.75   15.79
  -3   1 -18   24.76    9.00
  -3  -1 -18   42.28   11.45
  -4   1 -18   85.98   14.86
  -4  -1 -18   55.71   13.26
  -5   1 -18   25.33    8.01
  -5  -1 -18   19.57    9.18
  -6  -1 -18   87.01   16.88
  -6   1 -18   78.37   15.23
  -7   1 -18   38.13   10.62
  -7  -1 -18  157.74   25.34
  -8   1 -18   65.46   13.32
  -8  -1 -18   46.86   12.54
  -9   1 -18   25.46    9.86
  -9  -1 -18   29.42    9.94
 -10  -1 -18   78.53   17.28
 -11  -1 -18   37.20   12.72
 -12  -1 -18   66.19   17.63
 -13  -1 -18   22.69   11.88
 -14  -1 -18   44.83   13.12
 -15  -1 -18   29.88   13.72
 -23  -2  18   25.98   15.44
 -23   2  18   77.95   27.75
 -22  -2  18   48.97   17.82
 -22   2  18   22.48   14.37
 -21  -2  18   43.38   19.79
 -21   2  18   21.50   14.54
 -20  -2  18   12.85   11.40
 -20   2  18   -8.11    9.61
 -19  -2  18   54.00   19.00
 -19   2  18   24.76   13.39
 -18  -2  18    7.05    9.11
 -18   2  18   22.76   16.59
 -17  -2  18   43.27   17.69
 -17   2  18   57.07   20.45
 -16  -2  18   62.38   18.67
 -16   2  18   35.26   16.27
  15  -2 -18   30.34    9.20
 -15  -2  18   39.71   14.54
 -15   2  18   31.64   14.25
  14  -2 -18   24.59    9.07
 -14  -2  18   28.10   11.11
 -14   2  18   27.53   12.96
  13  -2 -18   29.56    9.43
 -13  -2  18   33.88   11.72
 -13   2  18   14.90    6.24
  12  -2 -18   10.74    6.68
 -12   2  18  -10.45   10.13
  11  -2 -18   41.99   11.44
 -11   2  18   85.12   20.36
  10  -2 -18   30.29    8.81
 -10   2  18   51.77   16.15
   9  -2 -18   51.70   12.07
  -9   2  18   30.98    9.27
   8  -2 -18   27.51    9.03
  -8   2  18   18.56    7.99
   8   2 -18   35.44    8.26
   7   2 -18   78.72   12.04
   7  -2 -18   76.53   14.82
  -7   2  18   62.97   14.25
   6   2 -18   42.86    8.52
   6  -2 -18   30.55   10.22
  -6   2  18   32.87   11.00
   5   2 -18   91.59   13.14
   5  -2 -18   65.09   13.84
  -5   2  18   77.14   14.52
   4   2 -18   41.74    8.68
   4  -2 -18   29.41    7.94
   3   2 -18   42.20    8.98
   3  -2 -18   47.01   11.35
   2   2 -18    5.95    2.60
   2  -2 -18   23.09    9.32
   1   2 -18   54.63   10.78
   1  -2 -18   38.22   10.83
   0   2 -18   32.48    8.78
   0  -2 -18   32.90   10.27
  -1   2 -18   26.99    8.17
  -1  -2 -18   35.68   10.91
  -2   2 -18   -7.42    6.14
  -2  -2 -18   -1.43    5.17
  -3   2 -18   29.32    8.02
  -3  -2 -18   42.53   10.79
  -4  -2 -18   38.46   10.51
  -5  -2 -18   33.86   11.66
  -6  -2 -18    7.60    8.16
  -7  -2 -18   15.57   10.52
  -8  -2 -18   18.34   10.89
  -9  -2 -18   48.44   14.30
 -10  -2 -18   13.20    7.25
 -11  -2 -18   27.49   11.10
 -12  -2 -18   11.08    4.87
 -13  -2 -18   53.31   14.65
 -14  -2 -18    1.46    4.74
 -15  -2 -18    8.43    6.16
 -22  -3  18   18.66    9.61
 -22   3  18   32.71   19.13
 -21  -3  18   -4.73   11.94
 -21   3  18  -53.01   21.86
 -20  -3  18  102.28   23.38
 -20   3  18    3.88    7.39
 -19  -3  18  -25.53   12.89
 -19   3  18  -28.78   15.92
 -18  -3  18    3.71    9.45
 -18   3  18   -2.16    8.10
 -17  -3  18    9.04   10.58
 -17   3  18   23.44   13.39
  17  -3 -18    2.59    4.10
  16  -3 -18   14.81    6.93
 -16  -3  18    4.19    6.63
 -16   3  18   -5.93   14.47
  15  -3 -18    7.04    4.79
 -15   3  18    3.67    8.48
  14  -3 -18   18.09    8.46
 -14   3  18   18.89   13.60
  13  -3 -18    3.52    5.16
 -13   3  18   14.81   11.89
  12  -3 -18   11.16    6.41
 -12   3  18   27.15   13.67
  11  -3 -18    1.26    3.31
 -11   3  18    6.03    8.48
  10  -3 -18    0.82    3.97
 -10   3  18    9.58    7.31
   9  -3 -18   14.34    6.73
  -9   3  18    7.47    8.47
   8  -3 -18   11.20    4.37
   7  -3 -18    2.05    4.90
   6  -3 -18   17.76    8.54
   5  -3 -18   11.37    7.93
   4  -3 -18    7.31    6.96
   3  -3 -18    8.49    6.16
   2  -3 -18   18.04    8.88
   1  -3 -18   11.64    7.58
   0  -3 -18    1.24    4.19
  -1  -3 -18   -3.14    4.50
  -2  -3 -18    6.21    4.87
  -3  -3 -18  -11.35    6.90
  -4  -3 -18   11.61    8.19
  -5  -3 -18   25.59   11.15
  -6  -3 -18  -16.51    8.23
  -7  -3 -18   -0.25    3.85
  -8  -3 -18    9.89    7.04
  -9  -3 -18   -6.25    7.21
 -10  -3 -18   -3.78    4.45
 -11  -3 -18   -7.04    7.04
 -12  -3 -18   -5.76    9.38
 -13  -3 -18   28.84   11.88
 -14  -3 -18  -30.97   12.65
 -15  -3 -18   16.94   11.00
 -21   4  18   22.95   13.27
 -20   4  18  -42.44   21.03
 -19   4  18  -10.05   14.27
 -18   4  18   -4.86    9.35
  18  -4 -18   -3.98    5.51
  17  -4 -18    2.69    5.60
 -17   4  18   -2.11   10.25
  16  -4 -18   13.68    8.14
 -16   4  18   11.47    9.39
  15  -4 -18    1.73    3.63
 -15   4  18   -0.16    7.42
  14  -4 -18   -8.27    7.88
 -14   4  18   -0.18    6.50
  13  -4 -18    1.22    2.84
 -13   4  18   15.47   12.41
  12  -4 -18    3.22    4.46
  11  -4 -18    1.75    4.08
  10  -4 -18    8.78    5.34
   9  -4 -18   -4.18    6.06
   8  -4 -18   -0.36    5.17
   7  -4 -18    5.01    4.31
   6  -4 -18   -1.92    3.21
   5  -4 -18   -1.44    4.29
   4  -4 -18   -4.15    5.47
   3  -4 -18    9.02    7.81
   2  -4 -18    3.43    5.34
   1  -4 -18   -3.43    6.20
   0  -4 -18   13.02    6.46
  -1  -4 -18    2.62    6.00
  -2  -4 -18   -1.70    6.96
  -3  -4 -18   -0.85    4.96
  -4  -4 -18   -2.27    7.96
  -5  -4 -18    1.46    4.69
  -6  -4 -18   -8.95    6.87
  -7  -4 -18   -1.89    6.22
  -8  -4 -18    0.75    5.97
  -9  -4 -18   -0.92    6.12
 -10  -4 -18    7.02    6.37
 -11  -4 -18   10.00    6.61
 -12  -4 -18  -30.51   12.30
 -13  -4 -18   -1.44    4.85
 -14  -4 -18    5.62    5.07
 -20   5  18   -4.79   14.56
 -19   5  18   25.13   19.54
  18  -5 -18    0.24    3.75
 -18   5  18    6.58   12.40
  17  -5 -18   20.80    7.69
 -17   5  18    0.71   12.01
  16  -5 -18    4.38    3.78
 -16   5  18  385.19   64.36
  15  -5 -18    4.32    3.77
  14  -5 -18   -4.92    6.87
  13  -5 -18   31.47   10.98
  12  -5 -18   12.00    5.58
  11  -5 -18   12.32    7.11
  10  -5 -18   34.96   11.33
   9  -5 -18    9.68    5.30
   8  -5 -18    2.63    3.83
   7  -5 -18   -2.25    6.29
   6  -5 -18    4.03    4.69
   5  -5 -18   17.68    8.29
   4  -5 -18   22.19    8.63
   3  -5 -18   11.04    7.25
   2  -5 -18   17.82    9.53
   1  -5 -18   10.80    8.37
   0  -5 -18   27.41   10.24
  -1  -5 -18    0.83    5.57
  -2  -5 -18    8.12    7.14
  -3  -5 -18    5.12    5.29
  -4  -5 -18    1.31    4.97
  -5  -5 -18   10.49    7.60
  -6  -5 -18    2.04    5.99
  -7  -5 -18   13.85    9.03
  -8  -5 -18    8.17    7.27
  -9  -5 -18    2.90    6.70
 -10  -5 -18   17.92    8.01
 -11  -5 -18    2.61    5.14
 -12  -5 -18   23.21   11.63
 -19   6  18   12.23   14.25
 -18   6  18   76.74   32.64
  16  -6 -18    3.74    5.25
  15  -6 -18    9.63    6.03
  14  -6 -18   28.21   10.76
  13  -6 -18   37.40   11.98
  12  -6 -18   31.73   10.33
  11  -6 -18    6.72    3.87
  10  -6 -18   21.52    8.17
   9  -6 -18    8.66    6.62
   8  -6 -18   11.42    7.52
   7  -6 -18   36.04   13.92
   6  -6 -18   22.03   12.61
   5  -6 -18   15.30    9.18
   4  -6 -18   85.55   22.86
   3  -6 -18    6.86   13.35
   2  -6 -18    2.34    8.38
   1  -6 -18    3.31    6.10
   0  -6 -18   12.22    8.82
  -1  -6 -18    4.13    8.76
  -2  -6 -18   11.88    7.72
  -3  -6 -18    3.64    5.53
  -4  -6 -18   10.37    8.51
  -5  -6 -18   15.39    9.27
  -6  -6 -18   -0.06    4.41
  -7  -6 -18   19.95    8.55
  -8  -6 -18   -1.48    6.01
  -9  -6 -18    4.58    5.18
 -10  -6 -18   28.46   12.59
  13  -7 -18   20.71    9.85
  12  -7 -18    3.24    4.77
  11  -7 -18   18.75    7.33
  10  -7 -18    6.54    7.87
   9  -7 -18   33.00   11.47
   8  -7 -18    7.93   12.23
   7  -7 -18    5.00    7.25
   6  -7 -18    7.91   11.14
   5  -7 -18   10.10   10.48
   4  -7 -18    8.20   13.12
   3  -7 -18    4.03    8.73
   2  -7 -18    9.45    9.99
   1  -7 -18    7.93    8.84
   0  -7 -18    3.92    9.42
  -1  -7 -18    0.56    6.71
  -2  -7 -18    5.65    7.39
  -3  -7 -18    0.75    4.30
  -4  -7 -18   -2.20    5.00
  -5  -7 -18    5.21    7.83
  -6  -7 -18   29.46   11.83
  -7  -7 -18   17.68   12.57
   9  -8 -18   18.45    7.77
   8  -8 -18    8.29    6.42
   7  -8 -18    1.34    5.90
   6  -8 -18    2.86    7.75
   5  -8 -18    4.64   10.30
   4  -8 -18    0.07    5.44
   3  -8 -18    5.91   10.76
   2  -8 -18    7.68    9.96
   1  -8 -18    3.12    6.51
   0  -8 -18   11.62   14.32
  -1  -8 -18    2.09   11.01
  -2  -8 -18   12.19    9.19
 -21   0  19   15.43   11.49
 -20   0  19   -1.62    7.12
 -19   0  19  -27.15   13.82
  12   0 -19   -0.27    3.49
  11   0 -19   -3.11    3.42
  10   0 -19   -0.44    4.49
   9   0 -19    5.56    4.34
   8   0 -19   -9.11    7.24
   7   0 -19   -2.91    6.49
   6   0 -19   -0.40    3.08
   5   0 -19   -2.93    5.06
   4   0 -19    1.46    3.24
   3   0 -19    0.43    3.21
   2   0 -19   -5.29    6.20
   1   0 -19    4.63    5.43
   0   0 -19   -3.24    3.29
  -1   0 -19    7.97    6.08
  -2   0 -19    5.52    4.75
  -3   0 -19    0.99    3.71
  -4   0 -19  -10.26    7.39
  -5   0 -19   -0.03    4.61
  -6   0 -19    2.63    4.30
 -21   1  19    4.81   10.57
 -20   1  19  182.07   33.51
 -19   1  19   -5.55   11.39
 -18   1  19    8.17    8.89
 -17   1  19   23.45   13.39
 -16   1  19    4.41    8.45
 -15   1  19  -20.76   11.45
  14  -1 -19    7.38    5.74
  13  -1 -19   15.29    6.28
  12  -1 -19   -1.10    3.17
  11  -1 -19   14.70    7.05
  10  -1 -19    0.33    3.07
  10   1 -19    5.26    4.83
   9   1 -19    4.88    4.46
   9  -1 -19   -5.68    4.30
   8   1 -19    5.88    4.02
   8  -1 -19    1.93    3.87
   7   1 -19    9.57    4.67
   7  -1 -19    3.59    4.62
   6   1 -19    6.93    3.65
   6  -1 -19    9.55    6.51
   5   1 -19   18.63    7.18
   5  -1 -19   14.24    6.74
   4   1 -19   12.29    6.59
   4  -1 -19    5.61    3.43
   3   1 -19    9.10    5.71
   3  -1 -19    4.18    3.30
   2   1 -19    4.99    5.25
   2  -1 -19   -1.15    5.19
   1   1 -19    0.08    2.70
   1  -1 -19   -1.00    6.02
   0   1 -19    6.41    4.99
   0  -1 -19    0.42    4.23
  -1   1 -19   15.25    5.67
  -1  -1 -19   14.76    7.81
  -2  -1 -19    3.97    6.06
  -3  -1 -19   22.20    8.33
  -4  -1 -19    9.29    6.62
  -5  -1 -19   -1.06    5.91
  -6  -1 -19    7.40    6.29
  -7  -1 -19    8.80    6.88
  -8  -1 -19  -11.17    7.23
  -9  -1 -19   18.48    8.33
 -10  -1 -19    3.79    4.33
 -21   2  19  -22.49   14.67
 -20   2  19  -23.30   14.68
 -19   2  19   45.54   19.74
 -18   2  19   10.10   10.56
 -17   2  19  -33.10   15.14
 -16   2  19   25.75   12.93
 -15   2  19    2.67    6.33
  15  -2 -19   12.12    6.46
  14  -2 -19   35.88   11.25
 -14   2  19    9.82    8.14
  13  -2 -19   13.24    7.23
 -13   2  19   -4.30    6.18
  12  -2 -19   44.83   11.90
  11  -2 -19    6.02    4.70
  10  -2 -19   25.15    9.76
   9  -2 -19    8.02    5.14
   8  -2 -19   15.89    6.03
   7  -2 -19    7.87    5.52
   6  -2 -19   21.67    8.04
   5  -2 -19   10.74    6.94
   4  -2 -19   14.99    5.62
   3  -2 -19   10.40    5.09
   2  -2 -19   14.52    7.01
   1  -2 -19  146.36   21.33
   0  -2 -19   53.81   13.59
  -1  -2 -19   15.33    7.89
  -2  -2 -19   35.08   11.56
  -3  -2 -19   13.57    7.21
  -4  -2 -19  117.54   19.93
  -5  -2 -19  -16.97    8.44
  -6  -2 -19   -3.49    6.52
  -7  -2 -19    8.06    6.89
  -8  -2 -19   18.02    9.64
  -9  -2 -19    4.14    7.84
 -10  -2 -19   51.85   14.21
 -11  -2 -19  -19.42    9.78
 -12  -2 -19   12.01    8.13
 -13  -2 -19   32.45   13.73
 -21   3  19    6.11   11.47
 -20   3  19   -8.97   12.17
 -19   3  19   69.04   26.35
 -18   3  19   10.04    7.84
 -17   3  19   12.39    9.80
  17  -3 -19   23.04    8.83
  16  -3 -19   14.07    7.04
 -16   3  19   30.23   15.83
  15  -3 -19   49.91   12.78
 -15   3  19   36.67   14.84
  14  -3 -19    6.45    6.11
 -14   3  19    8.47    9.13
  13  -3 -19   54.00   13.50
 -13   3  19   75.05   21.11
  12  -3 -19   23.27    9.77
 -12   3  19   17.95   11.67
  11  -3 -19   62.77   14.35
 -11   3  19   42.69   15.03
  10  -3 -19    9.01    5.51
   9  -3 -19   38.34   11.48
   8  -3 -19   16.45    8.22
   7  -3 -19   16.56    6.46
   6  -3 -19   14.85    7.64
   5  -3 -19   33.00   10.76
   4  -3 -19   13.87    5.26
   3  -3 -19   27.61    9.27
   2  -3 -19   18.65    8.98
   1  -3 -19   55.66   14.33
   0  -3 -19   14.21    7.61
  -1  -3 -19   46.48   13.63
  -2  -3 -19   12.22    9.72
  -3  -3 -19   37.60   13.00
  -4  -3 -19    0.34    4.88
  -5  -3 -19   25.20    8.38
  -6  -3 -19   12.66   10.41
  -7  -3 -19    8.26    5.92
  -8  -3 -19    0.59    4.24
  -9  -3 -19    7.02    6.70
 -10  -3 -19    2.99    6.80
 -11  -3 -19   18.52    9.48
 -12  -3 -19   30.62   13.54
 -20   4  19   49.40   20.84
 -19   4  19  -22.04   15.49
 -18   4  19   13.91   10.28
  18  -4 -19   50.18   14.11
  17  -4 -19    3.70    5.01
 -17   4  19   -3.44   21.30
  16  -4 -19   36.92   12.40
 -16   4  19  127.37   33.21
  15  -4 -19    4.60    4.43
 -15   4  19   -0.42    8.52
  14  -4 -19   55.29   13.33
 -14   4  19   98.12   26.64
  13  -4 -19   10.22    7.59
 -13   4  19   13.23   12.86
  12  -4 -19   66.20   15.27
 -12   4  19   54.18   18.87
  11  -4 -19   -9.47   11.16
 -11   4  19    5.51    6.22
  10  -4 -19   48.17   12.69
   9  -4 -19    2.78    4.41
   8  -4 -19   62.88   14.95
   7  -4 -19   29.25   11.08
   6  -4 -19   22.62    9.41
   5  -4 -19   -2.19    4.49
   4  -4 -19   38.57   11.04
   3  -4 -19    0.32    6.34
   2  -4 -19   35.31   12.38
   1  -4 -19   -1.41    4.08
   0  -4 -19   45.62   12.64
  -1  -4 -19   -1.21    4.70
  -2  -4 -19   36.91   12.58
  -3  -4 -19    3.74    4.60
  -4  -4 -19   18.96    8.15
  -5  -4 -19    5.45    7.57
  -6  -4 -19   35.40   12.43
  -7  -4 -19    3.93    6.17
  -8  -4 -19   25.47    9.93
  -9  -4 -19  -22.32   10.47
 -10  -4 -19   54.55   15.97
 -11  -4 -19   15.74   10.01
 -12  -4 -19   44.68   14.70
 -19   5  19   62.24   26.88
 -18   5  19   -3.57    9.74
 -17   5  19   78.72   29.74
  16  -5 -19    1.73    4.02
 -16   5  19    0.32   11.73
  15  -5 -19   39.25   11.74
 -15   5  19   28.60   14.79
  14  -5 -19    2.23    5.33
 -14   5  19   11.97    6.62
  13  -5 -19   51.68   13.76
  12  -5 -19   -1.25    4.99
  11  -5 -19   44.65   13.53
  10  -5 -19   -3.34    5.24
   9  -5 -19   55.92   13.69
   8  -5 -19    2.53    4.30
   7  -5 -19   29.22   10.87
   6  -5 -19    4.11    7.46
   5  -5 -19   31.89   10.97
   4  -5 -19  -11.94    9.02
   3  -5 -19   38.81   11.71
   2  -5 -19    3.25    4.59
   1  -5 -19   37.79   13.01
   0  -5 -19    1.58    4.99
  -1  -5 -19   43.36   13.82
  -2  -5 -19    0.54    6.78
  -3  -5 -19   13.60    9.09
  -4  -5 -19   -7.12    6.48
  -5  -5 -19   23.15    9.58
  -6  -5 -19    5.12    6.71
  -7  -5 -19   33.07   12.15
  -8  -5 -19   -6.97    6.06
  -9  -5 -19   -5.55    7.47
 -18   6  19   -2.27   13.72
 -17   6  19   10.84   13.92
  13  -6 -19    6.80    4.88
  12  -6 -19   30.19   11.01
  11  -6 -19   12.38    9.79
  10  -6 -19   57.72   14.69
   9  -6 -19    0.07    6.21
   8  -6 -19   31.01   10.88
   7  -6 -19    2.76    8.32
   6  -6 -19   20.63   12.28
   5  -6 -19    8.42    7.20
   4  -6 -19   10.36    9.88
   3  -6 -19    1.92    7.75
   2  -6 -19    5.96    6.62
   1  -6 -19    0.86    5.49
   0  -6 -19    1.40    5.54
  -1  -6 -19    1.25    3.72
  -2  -6 -19   13.48   11.07
  -3  -6 -19    9.34    9.36
  -4  -6 -19    8.75    7.72
  -5  -6 -19    6.71    7.34
  -6  -6 -19   14.75    6.12
  -7  -6 -19  -12.38    8.48
   9  -7 -19   31.65   11.96
   8  -7 -19    4.47    6.86
   7  -7 -19    9.94    8.98
   6  -7 -19    0.61    5.72
   5  -7 -19    2.59    7.08
   4  -7 -19  -10.73    7.49
   3  -7 -19   -1.10    5.39
   2  -7 -19    3.21    7.93
   1  -7 -19    2.83    6.66
   0  -7 -19    7.69    8.67
  -1  -7 -19  150.07   25.46
  -2  -7 -19    4.16    5.81
  12   0 -20    9.33    6.81
  11   0 -20   12.95    7.90
  10   0 -20   -2.23    4.22
   9   0 -20    8.31    5.34
   8   0 -20   16.08    6.56
   7   0 -20    0.47    4.75
   6   0 -20   15.34    5.72
   5   0 -20   -3.33    7.41
   4   0 -20   -7.06    6.41
  13  -1 -20    5.55    6.22
  12  -1 -20    4.62    3.97
  11  -1 -20    4.89    6.13
  10  -1 -20   20.13    9.96
   9  -1 -20   -5.67    6.71
   8  -1 -20   -3.00    4.90
   7  -1 -20    4.13    3.18
   6  -1 -20   -3.94    4.54
   5  -1 -20    3.65    4.72
   4  -1 -20    8.96    6.29
   3  -1 -20   12.24    7.34
   2  -1 -20   19.34    8.40
   1  -1 -20    6.63    4.96
   0  -1 -20   16.34    7.65
  -1  -1 -20    8.32    8.26
  -2  -1 -20   -4.29    3.37
  -3  -1 -20   -7.94    6.30
  15  -2 -20   -6.40    7.25
  14  -2 -20   19.30    8.53
  13  -2 -20   -5.83    6.31
  12  -2 -20    2.36    4.06
  11  -2 -20    2.52    3.03
  10  -2 -20    1.28    5.75
   9  -2 -20    8.86    6.29
   8  -2 -20   11.29    7.88
   7  -2 -20   -1.22    4.45
   6  -2 -20   11.23    7.07
   5  -2 -20   -0.66    6.23
   4  -2 -20   26.63    7.80
   3  -2 -20    9.26    6.40
   2  -2 -20  -11.96    7.26
   1  -2 -20    5.30    5.81
   0  -2 -20   -1.16    4.44
  -1  -2 -20    4.23    4.35
  -2  -2 -20    4.36    4.09
  -3  -2 -20    0.93    7.22
  -4  -2 -20  -19.90    9.12
  -5  -2 -20   -8.78   10.04
  -6  -2 -20   -9.54    7.14
  -7  -2 -20   11.46    6.23
  16  -3 -20    9.93    7.76
  15  -3 -20   -9.79    6.57
  14  -3 -20   20.37    9.31
  13  -3 -20  -10.92    6.89
  12  -3 -20    2.32    5.50
  11  -3 -20  -18.24    8.47
  10  -3 -20   17.64    7.94
   9  -3 -20  -13.88    8.04
   8  -3 -20   16.53    7.47
   7  -3 -20    9.44    6.48
   6  -3 -20    1.61    7.19
   5  -3 -20  -11.20    8.53
   4  -3 -20    7.20    5.99
   3  -3 -20  -14.72    7.72
   2  -3 -20    6.91    7.59
   1  -3 -20    6.34    7.72
   0  -3 -20   13.16    7.31
  -1  -3 -20   -8.81    6.66
  -2  -3 -20   -1.20    6.50
  -3  -3 -20    2.68    4.77
  -4  -3 -20   12.18   10.00
  -5  -3 -20  -10.74    7.21
  -6  -3 -20    8.87    5.92
  -7  -3 -20    5.19    6.28
  -8  -3 -20   12.97    8.89
  -9  -3 -20   20.34   11.09
  16  -4 -20  -15.43   10.57
  15  -4 -20   -3.37    4.93
  14  -4 -20  -10.34    6.88
  13  -4 -20    3.12    3.84
  12  -4 -20   -0.12    5.91
  11  -4 -20   15.19    7.73
  10  -4 -20   -5.50    5.60
   9  -4 -20   17.12    7.42
   8  -4 -20    1.42    4.64
   7  -4 -20    2.98    4.98
   6  -4 -20    4.63    6.48
   5  -4 -20   15.66    8.94
   4  -4 -20   12.17    7.92
   3  -4 -20   19.68    9.19
   2  -4 -20    4.90    4.55
   1  -4 -20    5.29    6.83
   0  -4 -20   -0.96    3.66
  -1  -4 -20   -3.44    7.18
  -2  -4 -20    8.26    8.06
  -3  -4 -20    5.17    3.72
  -4  -4 -20    4.93    4.07
  -5  -4 -20    0.46    5.66
  -6  -4 -20    7.34    6.67
  -7  -4 -20   17.58    8.91
  -8  -4 -20   -8.89    7.55
  13  -5 -20   -0.78    3.94
  12  -5 -20    0.33    4.84
  11  -5 -20    0.02    4.47
  10  -5 -20    4.58    5.34
   9  -5 -20    2.15    4.74
   8  -5 -20    1.92    5.14
   7  -5 -20    0.36    3.62
   6  -5 -20    8.92    7.17
   5  -5 -20  -20.91    9.42
   4  -5 -20   13.65    7.03
   3  -5 -20   -2.25    3.30
   2  -5 -20   19.27    9.86
   1  -5 -20  130.48   21.05
   0  -5 -20    6.48    5.17
  -1  -5 -20    7.33    4.43
  -2  -5 -20   12.98    8.32
  -3  -5 -20    0.13    4.73
  -4  -5 -20    4.65    5.65
  -5  -5 -20  -32.41   12.20
  -6  -5 -20   13.03    5.17
   9  -6 -20   16.35    9.92
   8  -6 -20  -18.70    9.08
   7  -6 -20   -1.64    9.89
   6  -6 -20    1.45    5.61
   5  -6 -20    2.64    6.26
   4  -6 -20  -10.73    7.35
   3  -6 -20    4.46    5.38
   2  -6 -20    5.63    9.38
   1  -6 -20    3.74    8.45
   0  -6 -20   -3.84    5.30
  -1  -6 -20    1.78    6.32
  -2  -6 -20    3.02    8.43
  14  -2 -21   27.58   10.31
  13  -2 -21    5.14    3.72
  12  -2 -21   32.02   10.82
  11  -2 -21   10.24    8.04
  10  -2 -21   54.46   13.43
   9  -2 -21    4.58    4.51
   8  -2 -21   32.40   11.30
   7  -2 -21   10.52    5.30
   6  -2 -21    6.05    4.71
   5  -2 -21  -21.88    9.29
   4  -2 -21    5.54    5.98
   3  -2 -21   22.25    8.63
   2  -2 -21   32.37   11.62
  14  -3 -21   12.40    8.50
  13  -3 -21   34.24   11.16
  12  -3 -21   19.33    8.39
  11  -3 -21   37.17   12.32
  10  -3 -21   -0.02    4.28
   9  -3 -21   28.07   10.19
   8  -3 -21    0.46    6.54
   7  -3 -21   45.91   13.75
   6  -3 -21    1.56    6.81
   5  -3 -21    9.12    4.44
   4  -3 -21    0.07    4.53
   3  -3 -21   28.72    9.13
   2  -3 -21    5.00    6.73
   1  -3 -21   34.03   11.77
   0  -3 -21   22.43   10.74
  -1  -3 -21   38.73   13.31
  -2  -3 -21    4.04    5.83
  -3  -3 -21   36.07   12.31
  13  -4 -21    8.40    4.50
  12  -4 -21   50.16   14.27
  11  -4 -21    4.76    6.13
  10  -4 -21   11.67    6.17
   9  -4 -21  -12.34    7.87
   8  -4 -21    6.61    5.41
   7  -4 -21    4.59    5.48
   6  -4 -21   24.16   10.34
   5  -4 -21   20.62    9.51
   4  -4 -21    3.38    8.65
   3  -4 -21    0.59    5.14
   2  -4 -21    6.18    6.68
   1  -4 -21   16.08    9.52
   0  -4 -21   40.93   15.90
  -1  -4 -21   -1.03    5.09
  -2  -4 -21   41.03   12.84
  -3  -4 -21  -20.90    9.96
   9  -5 -21   12.81    6.77
   8  -5 -21    7.82    5.83
   7  -5 -21   34.17   18.13
   6  -5 -21   11.37   12.19
   5  -5 -21   17.67    9.62
   4  -5 -21   -3.87    5.55
   3  -5 -21   19.91   13.45
   2  -5 -21   16.88   10.87
   1  -5 -21   24.47   11.03
   0  -5 -21   13.80    8.65
  -1  -5 -21   19.50    9.68
  -2  -5 -21   -4.60    6.97
   0   0   0    0.00    0.00
;
_shelx_hkl_checksum              92730
_shelx_shelxl_version_number     2014/7
_olex2_submission_special_instructions 'No special instructions were received'
loop_
_space_group_symop_operation_xyz
'x, y, z'
'-x, y+1/2, -z+1/2'
'-x, -y, -z'
'x, -y-1/2, z-1/2'
loop_
_atom_site_label
_atom_site_type_symbol
_atom_site_fract_x
_atom_site_fract_y
_atom_site_fract_z
_atom_site_U_iso_or_equiv
_atom_site_adp_type
_atom_site_occupancy
_atom_site_site_symmetry_order
_atom_site_calc_flag
_atom_site_refinement_flags_posn
_atom_site_refinement_flags_adp
_atom_site_refinement_flags_occupancy
_atom_site_disorder_assembly
_atom_site_disorder_group
C1 C 0.3389(6) 0.3839(11) 0.1924(8) 0.042(3) Uani 1 1 d . . . . .
C2 C 0.3932(6) 0.4131(13) 0.1814(8) 0.054(4) Uani 1 1 d . . . . .
C3B C 0.4131(13) 0.381(4) 0.118(2) 0.046(11) Uiso 0.59(11) 1 d . . P A 2
C4 C 0.4892(6) 0.4734(14) 0.1656(8) 0.060(5) Uani 1 1 d . . . . .
C5B C 0.4785(13) 0.459(3) 0.2338(15) 0.030(11) Uiso 0.46(6) 1 d . . P A 2
C6B C 0.4325(18) 0.428(4) 0.241(2) 0.053(16) Uiso 0.42(8) 1 d . . P A 2
C7 C 0.4603(6) 0.0169(15) 0.3431(9) 0.065(5) Uani 1 1 d . . . . .
C8B C 0.4344(10) -0.030(3) 0.3959(17) 0.014(11) Uiso 0.45(9) 1 d . . P B 2
C9 C 0.3932(6) 0.0291(15) 0.4155(10) 0.072(6) Uani 1 1 d . . . . .
C10 C 0.3695(6) 0.0980(13) 0.3667(7) 0.053(4) Uani 1 1 d . . . . .
C11 C 0.3939(7) 0.1274(17) 0.3035(9) 0.081(7) Uani 1 1 d . . . . .
C12 C 0.3211(6) 0.1473(11) 0.3846(8) 0.048(4) Uani 1 1 d . . . . .
C13 C 0.1709(6) 0.1865(10) 0.3421(8) 0.041(4) Uani 1 1 d . . . . .
C14 C 0.1239(6) 0.1299(13) 0.3401(8) 0.056(4) Uani 1 1 d . . . . .
C15 C 0.1145(6) 0.0789(13) 0.4082(8) 0.057(4) Uani 1 1 d . . . . .
C16 C 0.0347(6) 0.0285(15) 0.3362(8) 0.068(5) Uani 1 1 d . . . . .
C17B C 0.0522(12) 0.045(3) 0.2664(14) 0.026(11) Uiso 0.46(7) 1 d . . P C 2
C18B C 0.0932(13) 0.103(3) 0.2696(16) 0.052(11) Uiso 0.60(9) 1 d . . P C 2
C19 C 0.0152(6) 0.0176(14) 0.6627(8) 0.065(5) Uani 1 1 d . . . . .
C20 C 0.0699(6) 0.1133(13) 0.5974(9) 0.057(4) Uani 1 1 d . . . . .
C21 C 0.1100(6) 0.0956(11) 0.6555(8) 0.048(4) Uani 1 1 d . . . . .
C22B C 0.1055(17) 0.016(4) 0.716(2) 0.051(14) Uiso 0.48(10) 1 d . . P D 2
C23B C 0.0573(12) -0.020(3) 0.7166(16) 0.019(12) Uiso 0.41(7) 1 d . . P D 2
C24 C 0.1639(5) 0.1254(11) 0.6481(7) 0.042(3) Uani 1 1 d . . . . .
C25 C 0.1742(6) 0.3876(11) 0.4578(9) 0.045(4) Uani 1 1 d . . . . .
C26 C 0.1231(6) 0.4220(12) 0.4742(8) 0.050(4) Uani 1 1 d . . . . .
C27 C 0.0999(6) 0.3855(13) 0.5363(9) 0.055(4) Uani 1 1 d . . . . .
C28 C 0.0262(6) 0.4824(12) 0.4964(8) 0.053(4) Uani 1 1 d . . . . .
C29 C 0.0491(6) 0.5210(12) 0.4363(8) 0.052(4) Uani 1 1 d . . . . .
C30 C 0.0961(7) 0.4888(13) 0.4267(9) 0.069(5) Uani 1 1 d . . . . .
C31 C 0.3317(6) 0.3415(14) 0.5025(9) 0.061(5) Uani 1 1 d . . . . .
C32B C 0.3854(9) 0.375(3) 0.5069(12) 0.042(8) Uiso 0.69(8) 1 d . . P E 2
C33B C 0.4010(15) 0.416(4) 0.4358(17) 0.045(13) Uiso 0.52(9) 1 d . . P E 2
C34B C 0.4780(11) 0.462(3) 0.5032(14) 0.046(10) Uiso 0.62(8) 1 d . . P E 2
C35B C 0.4687(10) 0.418(2) 0.5701(12) 0.028(9) Uiso 0.56(7) 1 d . . P E 2
C36B C 0.4202(10) 0.378(3) 0.5760(13) 0.052(9) Uiso 0.75(9) 1 d . . P E 2
O1 O 0.3070(4) 0.1211(10) 0.6309(6) 0.067(3) Uani 1 1 d . . . . .
O2 O 0.3274(4) 0.3753(9) 0.2604(5) 0.064(3) Uani 1 1 d . . . . .
O3 O 0.2489(4) 0.2822(9) 0.6725(5) 0.061(3) Uani 1 1 d . . . . .
O4 O 0.2964(4) 0.1939(8) 0.3284(6) 0.052(3) Uani 1 1 d . . . . .
O5 O 0.3008(4) 0.3428(8) 0.4407(6) 0.056(3) Uani 1 1 d . . . . .
O6 O 0.1788(3) 0.2278(7) 0.2788(5) 0.040(2) Uani 1 1 d . . . . .
O7 O 0.1865(4) 0.4003(7) 0.3892(5) 0.046(2) Uani 1 1 d . . . . .
O8 O 0.1988(3) 0.3984(6) 0.2025(5) 0.038(2) Uani 1 1 d . . . . .
O9 O 0.2635(5) 0.5049(9) 0.3271(7) 0.085(4) Uani 1 1 d . . . . .
O10B O 0.3086(7) 0.122(3) 0.4518(10) 0.020(9) Uiso 0.49(10) 1 d . . P F 2
O11 O 0.2289(5) 0.0347(9) 0.5230(6) 0.071(3) Uani 1 1 d . . . . .
O12 O 0.1691(4) 0.1736(7) 0.5873(5) 0.046(2) Uani 1 1 d . . . . .
O0AA O 0.2021(4) 0.3461(7) 0.5162(5) 0.044(2) Uani 1 1 d . . . . .
O14 O 0.2015(3) 0.1981(7) 0.4068(5) 0.045(2) Uani 1 1 d . . . . .
O10 O 0.2949(13) 0.458(2) 0.6805(17) 0.054(13) Uiso 0.34(3) 1 d . . P G 2
O16B O 0.342(2) 0.627(4) 0.282(3) 0.20(3) Uiso 0.56(5) 1 d . . P H 2
O17 O 0.3226(4) 0.3015(10) 0.5655(6) 0.069(4) Uani 1 1 d . . . . .
N1B N 0.4636(15) 0.407(5) 0.110(2) 0.055(15) Uiso 0.46(12) 1 d . . P A 2
N2B N 0.4341(18) 0.055(5) 0.286(2) 0.069(17) Uiso 0.44(11) 1 d . . P B 2
N3 N 0.0697(6) 0.0278(13) 0.4052(8) 0.080(5) Uani 1 1 d . . . . .
N4 N 0.0219(5) 0.0742(11) 0.6005(8) 0.066(4) Uani 1 1 d . . . . .
N5 N 0.0513(6) 0.4158(13) 0.5494(8) 0.081(5) Uani 1 1 d . . . . .
N6B N 0.4471(14) 0.440(3) 0.4329(18) 0.030(15) Uiso 0.32(6) 1 d . . P E 2
Eu1 Eu 0.25030(3) 0.33684(6) 0.31352(4) 0.0447(3) Uani 1 1 d . . . . .
Eu2 Eu 0.24931(3) 0.20146(6) 0.53679(4) 0.0455(3) Uani 1 1 d . . . . .
C5A C 0.4665(9) 0.508(2) 0.2322(11) 0.021(9) Uiso 0.54(6) 1 d . . P A 1
C6A C 0.4198(12) 0.477(3) 0.2393(14) 0.041(11) Uiso 0.58(8) 1 d . . P A 1
C17A C 0.0400(10) 0.090(2) 0.2728(13) 0.027(9) Uiso 0.54(7) 1 d . . P C 1
C18A C 0.0836(15) 0.148(4) 0.2739(19) 0.033(15) Uiso 0.40(9) 1 d . . P C 1
C22A C 0.0958(13) 0.058(4) 0.7254(17) 0.039(13) Uiso 0.52(10) 1 d . . P D 1
C23A C 0.0471(11) 0.024(3) 0.7288(15) 0.042(10) Uiso 0.59(7) 1 d . . P D 1
C34A C 0.4665(16) 0.509(4) 0.5038(19) 0.030(16) Uiso 0.38(8) 1 d . . P E 1
C35A C 0.4573(16) 0.471(4) 0.573(2) 0.052(14) Uiso 0.44(7) 1 d . . P E 1
C36A C 0.412(2) 0.425(6) 0.570(3) 0.03(2) Uiso 0.25(9) 1 d . . P E 1
N1A N 0.4577(13) 0.448(4) 0.096(2) 0.061(13) Uiso 0.54(12) 1 d . . P A 1
N2A N 0.4423(12) 0.101(4) 0.2933(15) 0.057(13) Uiso 0.56(11) 1 d . . P B 1
N6A N 0.4356(9) 0.493(2) 0.4368(11) 0.054(8) Uiso 0.68(6) 1 d . . P E 1
C33A C 0.3880(14) 0.458(3) 0.4393(16) 0.035(13) Uiso 0.48(9) 1 d . . P E 1
C8A C 0.4407(11) 0.007(4) 0.4123(19) 0.034(10) Uiso 0.55(9) 1 d . . P B 1
C3A C 0.4058(15) 0.418(4) 0.100(2) 0.029(15) Uiso 0.41(11) 1 d . . P A 1
O10A O 0.3117(9) 0.158(4) 0.4562(12) 0.039(8) Uiso 0.51(10) 1 d . . P F 1
C32A C 0.3779(15) 0.421(4) 0.503(2) 0.018(16) Uiso 0.31(8) 1 d . . P E 1
O13 O 0.330(3) 0.563(5) 0.645(4) 0.36(4) Uiso 0.66(3) 1 d . . P G 1
O16A O 0.397(3) 0.714(5) 0.305(4) 0.25(4) Uiso 0.44(5) 1 d . . P H 1
loop_
_atom_site_aniso_label
_atom_site_aniso_U_11
_atom_site_aniso_U_22
_atom_site_aniso_U_33
_atom_site_aniso_U_23
_atom_site_aniso_U_13
_atom_site_aniso_U_12
C1 0.034(9) 0.057(9) 0.034(7) -0.008(7) 0.008(6) -0.002(7)
C2 0.025(8) 0.103(13) 0.037(7) 0.005(8) 0.008(6) -0.017(8)
C4 0.033(9) 0.113(14) 0.036(7) -0.010(8) 0.012(7) -0.021(9)
C7 0.028(9) 0.125(16) 0.043(8) 0.011(9) 0.010(7) 0.018(10)
C9 0.030(10) 0.116(15) 0.077(11) 0.039(11) 0.029(8) 0.037(10)
C10 0.024(8) 0.108(14) 0.027(7) 0.004(8) 0.005(6) 0.008(8)
C11 0.038(11) 0.16(2) 0.049(9) 0.028(11) 0.020(8) 0.050(12)
C12 0.027(8) 0.071(11) 0.044(8) 0.002(8) 0.005(7) 0.000(8)
C13 0.033(9) 0.054(9) 0.040(8) -0.006(7) 0.018(7) -0.016(7)
C14 0.028(9) 0.094(13) 0.048(8) -0.017(8) 0.009(7) -0.031(9)
C15 0.029(9) 0.100(13) 0.046(8) 0.005(8) 0.015(7) -0.024(9)
C16 0.040(10) 0.139(16) 0.023(7) 0.000(9) 0.003(6) -0.038(10)
C19 0.036(9) 0.130(16) 0.031(7) 0.006(9) 0.009(6) -0.041(10)
C20 0.032(9) 0.087(12) 0.056(9) -0.003(9) 0.016(7) -0.020(9)
C21 0.024(8) 0.072(11) 0.051(8) -0.014(8) 0.013(7) -0.013(7)
C24 0.027(8) 0.073(10) 0.028(7) -0.006(7) 0.012(6) -0.005(7)
C25 0.032(9) 0.059(10) 0.048(9) -0.006(8) 0.020(7) -0.012(7)
C26 0.041(10) 0.073(11) 0.036(7) 0.000(7) 0.012(7) 0.011(8)
C27 0.025(9) 0.086(12) 0.056(9) 0.008(9) 0.010(7) 0.005(8)
C28 0.035(9) 0.083(12) 0.040(8) 0.003(8) 0.007(7) 0.013(8)
C29 0.038(9) 0.086(12) 0.036(7) 0.008(8) 0.017(6) 0.021(8)
C30 0.069(13) 0.094(14) 0.050(9) 0.016(9) 0.032(9) 0.035(11)
C31 0.032(9) 0.111(14) 0.041(9) -0.006(9) 0.011(7) -0.035(9)
O1 0.018(6) 0.137(11) 0.046(6) 0.011(6) 0.012(5) 0.007(6)
O2 0.038(7) 0.118(10) 0.035(5) 0.013(6) 0.006(5) -0.033(6)
O3 0.032(6) 0.113(9) 0.039(5) -0.009(5) 0.009(4) -0.009(6)
O4 0.025(6) 0.092(8) 0.041(5) -0.002(5) 0.011(4) 0.014(5)
O5 0.024(6) 0.097(8) 0.045(6) -0.016(5) 0.001(5) -0.022(6)
O6 0.012(5) 0.065(6) 0.043(5) -0.005(5) 0.007(4) -0.010(4)
O7 0.040(6) 0.051(6) 0.047(5) 0.002(5) 0.009(5) -0.011(5)
O8 0.026(5) 0.049(6) 0.041(5) 0.005(4) 0.011(4) 0.007(4)
O9 0.080(10) 0.081(9) 0.092(9) 0.000(7) 0.004(7) -0.030(8)
O11 0.052(8) 0.102(9) 0.060(6) 0.007(6) 0.011(5) -0.008(7)
O12 0.026(6) 0.075(7) 0.039(5) -0.001(5) 0.009(4) -0.009(5)
O0AA 0.032(6) 0.066(7) 0.037(5) -0.010(5) 0.008(4) -0.001(5)
O14 0.016(5) 0.084(7) 0.033(5) -0.004(5) -0.001(4) -0.005(5)
O17 0.024(6) 0.139(11) 0.043(6) -0.007(6) 0.005(5) -0.027(6)
N3 0.036(9) 0.135(14) 0.069(9) 0.012(9) 0.009(7) -0.019(9)
N4 0.031(8) 0.111(12) 0.056(8) 0.004(8) 0.009(6) -0.022(8)
N5 0.058(11) 0.121(14) 0.065(9) 0.022(9) 0.013(8) 0.022(10)
Eu1 0.0175(4) 0.0773(6) 0.0392(4) 0.0092(4) 0.0040(3) -0.0112(4)
Eu2 0.0145(4) 0.0920(7) 0.0312(4) 0.0056(4) 0.0067(3) -0.0018(4)
loop_
_atom_type_symbol
_atom_type_description
_atom_type_scat_dispersion_real
_atom_type_scat_dispersion_imag
_atom_type_scat_source
C C 0.0033 0.0016 'International Tables Vol C Tables 4.2.6.8 and 6.1.1.4'
Eu Eu -0.1578 3.6682 'International Tables Vol C Tables 4.2.6.8 and 6.1.1.4'
N N 0.0061 0.0033 'International Tables Vol C Tables 4.2.6.8 and 6.1.1.4'
O O 0.0106 0.0060 'International Tables Vol C Tables 4.2.6.8 and 6.1.1.4'
loop_
_geom_angle_atom_site_label_1
_geom_angle_atom_site_label_2
_geom_angle_atom_site_label_3
_geom_angle
_geom_angle_site_symmetry_1
_geom_angle_site_symmetry_3
O1 C1 C2 116.7(12) 4_565 .
O2 C1 C2 119.8(12) . .
O2 C1 O1 123.2(14) . 4_565
C3B C2 C1 119.0(17) . .
C3B C2 C6B 108(3) . .
C6B C2 C1 125(2) . .
C6A C2 C1 117.5(16) . .
C6A C2 C3A 117(2) . .
C3A C2 C1 117.9(17) . .
C2 C3B N1B 118(3) . .
C5B C4 C7 118.8(18) . 2_655
C5B C4 N1B 111(3) . .
N1B C4 C7 123.5(18) . 2_655
C5A C4 C7 114.4(15) . 2_655
N1A C4 C7 117.2(19) . 2_655
N1A C4 C5A 119(2) . .
C4 C5B C6B 119(3) . .
C5B C6B C2 126(3) . .
C4 C7 N2A 119.5(16) 2_645 .
C8B C7 C4 113.0(18) . 2_645
N2B C7 C4 121(2) . 2_645
N2B C7 C8B 117(3) . .
C8A C7 C4 119.6(17) . 2_645
C8A C7 N2A 116(2) . .
C7 C8B C9 108(3) . .
C10 C9 C8B 124.8(15) . .
C8A C9 C10 120.6(18) . .
C9 C10 C11 117.3(14) . .
C9 C10 C12 122.1(12) . .
C11 C10 C12 120.3(14) . .
C10 C11 N2B 111(2) . .
N2A C11 C10 123.7(19) . .
O4 C12 C10 116.8(12) . .
O4 C12 O10B 130.5(16) . .
O4 C12 O10A 120(2) . .
O10B C12 C10 111.8(17) . .
O10A C12 C10 121.4(17) . .
C14 C13 Eu1 164.5(11) . .
O6 C13 C14 118.1(13) . .
O6 C13 O14 120.5(12) . .
O6 C13 Eu1 49.3(6) . .
O14 C13 C14 121.2(12) . .
O14 C13 Eu1 71.6(7) . .
C15 C14 C13 120.3(13) . .
C15 C14 C18A 121.8(18) . .
C18B C14 C13 123.8(16) . .
C18B C14 C15 113.9(18) . .
C18A C14 C13 116(2) . .
N3 C15 C14 119.2(14) . .
C17B C16 C19 120.2(16) . 3_556
C17B C16 N3 118.1(18) . .
N3 C16 C19 118.6(13) . 3_556
N3 C16 C17A 121.4(16) . .
C17A C16 C19 118.2(16) . 3_556
C16 C17B C18B 116(2) . .
C17B C18B C14 124(2) . .
C23B C19 C16 115.8(18) . 3_556
N4 C19 C16 119.2(14) . 3_556
N4 C19 C23B 122.8(16) . .
C23A C19 C16 119.4(16) . 3_556
C23A C19 N4 119.0(18) . .
C21 C20 N4 121.1(14) . .
C20 C21 C22B 119.5(18) . .
C20 C21 C24 122.3(14) . .
C20 C21 C22A 114.2(18) . .
C24 C21 C22B 115(2) . .
C22A C21 C24 123.1(17) . .
C23B C22B C21 116(3) . .
C22B C23B C19 119(3) . .
O8 C24 C21 117.9(12) 4_566 .
O8 C24 O12 126.4(13) 4_566 .
O12 C24 C21 115.7(13) . .
O7 C25 C26 118.5(14) . .
O7 C25 O0AA 125.4(14) . .
O0AA C25 C26 116.1(12) . .
C27 C26 C25 121.4(14) . .
C30 C26 C25 121.5(13) . .
C30 C26 C27 117.1(15) . .
C26 C27 N5 120.9(15) . .
C29 C28 C28 115.7(17) . 3_566
C29 C28 N5 122.0(14) . .
N5 C28 C28 122.3(17) . 3_566
C30 C29 C28 117.3(14) . .
C29 C30 C26 124.8(14) . .
C32B C31 Eu2 153.4(18) . .
O5 C31 C32B 123.3(15) . .
O5 C31 O17 123.0(14) . .
O5 C31 Eu2 76.7(9) . .
O5 C31 C32A 113.0(19) . .
O17 C31 C32B 113.2(16) . .
O17 C31 Eu2 47.4(7) . .
O17 C31 C32A 121.8(17) . .
C32A C31 Eu2 168.8(14) . .
C33B C32B C31 118(2) . .
C36B C32B C31 125(2) . .
C36B C32B C33B 117(2) . .
N6B C33B C32B 122(3) . .
C35B C34B C34B 126(3) . 3_666
C35B C34B N6B 118(3) . .
N6B C34B C34B 116(3) . 3_666
C34B C35B C36B 121(2) . .
C32B C36B C35B 117(2) . .
C1 O1 Eu2 153.5(12) 4_566 .
C1 O2 Eu1 134.6(9) . .
Eu2 O3 Eu1 118.0(5) . 4_566
C12 O4 Eu1 137.3(9) . .
C31 O5 Eu1 172.3(11) . .
C31 O5 Eu2 80.0(9) . .
Eu1 O5 Eu2 103.2(3) . .
C13 O6 Eu1 107.7(8) . .
C25 O7 Eu1 136.0(10) . .
C24 O8 Eu1 140.8(9) 4_565 .
C12 O10B Eu2 129(2) . .
C24 O12 Eu2 125.3(9) . .
C25 O0AA Eu2 137.0(9) . .
C13 O14 Eu1 84.1(7) . .
C13 O14 Eu2 170.3(9) . .
Eu2 O14 Eu1 105.6(3) . .
C31 O17 Eu2 109.8(9) . .
C3B N1B C4 119(3) . .
C7 N2B C11 118(3) . .
C15 N3 C16 119.6(14) . .
C19 N4 C20 119.0(14) . .
C27 N5 C28 117.8(14) . .
C33B N6B C34B 119(3) . .
C13 Eu1 Eu2 57.0(3) . .
O2 Eu1 C13 148.0(4) . .
O2 Eu1 O3 75.0(3) . 4_565
O2 Eu1 O6 136.0(3) . .
O2 Eu1 O7 143.0(4) . .
O2 Eu1 O9 72.1(5) . .
O2 Eu1 O14 144.4(4) . .
O2 Eu1 Eu2 123.2(2) . .
O3 Eu1 C13 78.1(3) 4_565 .
O3 Eu1 O14 95.3(3) 4_565 .
O3 Eu1 Eu2 117.6(2) 4_565 .
O4 Eu1 C13 74.6(4) . .
O4 Eu1 O2 77.7(4) . .
O4 Eu1 O3 62.3(3) . 4_565
O4 Eu1 O5 73.7(4) . .
O4 Eu1 O6 81.1(3) . .
O4 Eu1 O7 130.4(3) . .
O4 Eu1 O9 140.8(4) . .
O4 Eu1 O14 67.7(3) . .
O4 Eu1 Eu2 65.2(2) . .
O5 Eu1 C13 100.9(4) . .
O5 Eu1 O2 86.3(3) . .
O5 Eu1 O3 134.8(3) . 4_565
O5 Eu1 O6 123.8(3) . .
O5 Eu1 O7 81.3(3) . .
O5 Eu1 O9 79.8(4) . .
O5 Eu1 O14 76.6(3) . .
O5 Eu1 Eu2 43.9(2) . .
O6 Eu1 C13 23.1(3) . .
O6 Eu1 O3 61.0(3) . 4_565
O6 Eu1 O14 47.3(3) . .
O6 Eu1 Eu2 79.9(2) . .
O7 Eu1 C13 68.9(3) . .
O7 Eu1 O3 135.8(3) . 4_565
O7 Eu1 O6 78.3(3) . .
O7 Eu1 O9 71.5(4) . .
O7 Eu1 O14 65.1(3) . .
O7 Eu1 Eu2 66.9(2) . .
O8 Eu1 C13 93.3(4) . .
O8 Eu1 O2 92.3(3) . .
O8 Eu1 O3 67.7(3) . 4_565
O8 Eu1 O4 130.0(3) . .
O8 Eu1 O5 155.4(4) . .
O8 Eu1 O6 72.8(3) . .
O8 Eu1 O7 85.3(3) . .
O8 Eu1 O9 76.4(4) . .
O8 Eu1 O14 116.0(3) . .
O8 Eu1 Eu2 144.4(2) . .
O9 Eu1 C13 139.7(4) . .
O9 Eu1 O3 129.4(4) . 4_565
O9 Eu1 O6 138.1(4) . .
O9 Eu1 O14 132.9(4) . .
O9 Eu1 Eu2 112.5(3) . .
O14 Eu1 C13 24.3(3) . .
O14 Eu1 Eu2 32.65(16) . .
C31 Eu2 Eu1 56.2(3) . .
O1 Eu2 C31 92.2(4) . .
O1 Eu2 O3 72.1(4) . .
O1 Eu2 O5 113.2(3) . .
O1 Eu2 O10B 77.0(5) . .
O1 Eu2 O11 72.7(4) . .
O1 Eu2 O12 101.2(3) . .
O1 Eu2 O0AA 142.2(4) . .
O1 Eu2 O14 146.1(4) . .
O1 Eu2 O17 74.0(4) . .
O1 Eu2 Eu1 138.1(2) . .
O1 Eu2 O10A 80.0(6) . .
O3 Eu2 C31 88.2(4) . .
O3 Eu2 O5 103.9(3) . .
O3 Eu2 Eu1 126.4(3) . .
O5 Eu2 C31 23.4(3) . .
O5 Eu2 Eu1 32.91(17) . .
O10B Eu2 C31 71.0(10) . .
O10B Eu2 O3 141.9(5) . .
O10B Eu2 O5 68.6(9) . .
O10B Eu2 Eu1 67.5(6) . .
O11 Eu2 C31 140.2(4) . .
O11 Eu2 O3 119.5(4) . .
O11 Eu2 O5 134.9(3) . .
O11 Eu2 O10B 69.8(10) . .
O11 Eu2 Eu1 112.7(2) . .
O12 Eu2 C31 148.3(4) . .
O12 Eu2 O3 69.2(3) . .
O12 Eu2 O5 141.1(3) . .
O12 Eu2 O10B 139.8(9) . .
O12 Eu2 O11 71.5(4) . .
O12 Eu2 Eu1 120.2(2) . .
O0AA Eu2 C31 77.3(4) . .
O0AA Eu2 O3 71.4(3) . .
O0AA Eu2 O5 67.3(3) . .
O0AA Eu2 O10B 130.4(7) . .
O0AA Eu2 O11 135.8(4) . .
O0AA Eu2 O12 74.5(3) . .
O0AA Eu2 Eu1 63.2(2) . .
O14 Eu2 C31 97.8(4) . .
O14 Eu2 O3 140.2(3) . .
O14 Eu2 O5 74.7(3) . .
O14 Eu2 O10B 75.8(5) . .
O14 Eu2 O11 79.1(4) . .
O14 Eu2 O12 87.0(3) . .
O14 Eu2 O0AA 71.7(3) . .
O14 Eu2 O17 120.5(3) . .
O14 Eu2 Eu1 41.8(2) . .
O17 Eu2 C31 22.8(4) . .
O17 Eu2 O3 69.9(3) . .
O17 Eu2 O5 45.9(3) . .
O17 Eu2 O10B 80.7(9) . .
O17 Eu2 O11 139.4(4) . .
O17 Eu2 O12 138.2(3) . .
O17 Eu2 O0AA 84.6(4) . .
O17 Eu2 Eu1 78.8(3) . .
O10A Eu2 C31 59.5(14) . .
O10A Eu2 O3 136.4(9) . .
O10A Eu2 O5 57.6(13) . .
O10A Eu2 O11 81.4(14) . .
O10A Eu2 O12 150.9(13) . .
O10A Eu2 O0AA 121.9(11) . .
O10A Eu2 O14 77.4(6) . .
O10A Eu2 O17 70.5(12) . .
O10A Eu2 Eu1 60.9(8) . .
C6A C5A C4 117(2) . .
C5A C6A C2 121(2) . .
C16 C17A C18A 122(2) . .
C17A C18A C14 114(3) . .
C23A C22A C21 122(2) . .
C19 C23A C22A 119(2) . .
C35A C34A C34A 108(4) . 3_666
N6A C34A C34A 114(4) . 3_666
N6A C34A C35A 121(3) . .
C34A C35A C36A 115(4) . .
C32A C36A C35A 123(5) . .
C4 N1A C3A 120(3) . .
C11 N2A C7 112(3) . .
C34A N6A C33A 120(2) . .
C32A C33A N6A 119(3) . .
C9 C8A C7 120(2) . .
N1A C3A C2 114(3) . .
C12 O10A Eu2 145.1(16) . .
C36A C32A C31 116(4) . .
C33A C32A C31 121(3) . .
C33A C32A C36A 120(4) . .
loop_
_geom_bond_atom_site_label_1
_geom_bond_atom_site_label_2
_geom_bond_distance
_geom_bond_site_symmetry_2
C1 C2 1.52(2) .
C1 O1 1.240(16) 4_565
C1 O2 1.231(15) .
C2 C3B 1.33(3) .
C2 C6B 1.36(4) .
C2 C6A 1.44(3) .
C2 C3A 1.46(4) .
C3B N1B 1.40(4) .
C4 C5B 1.24(3) .
C4 C7 1.49(2) 2_655
C4 N1B 1.43(4) .
C4 C5A 1.43(3) .
C4 N1A 1.38(3) .
C5B C6B 1.31(5) .
C7 C4 1.49(2) 2_645
C7 C8B 1.37(3) .
C7 N2B 1.23(4) .
C7 N2A 1.49(4) .
C7 C8A 1.35(3) .
C8B C9 1.45(4) .
C9 C10 1.37(2) .
C9 C8A 1.30(3) .
C10 C11 1.38(2) .
C10 C12 1.52(2) .
C11 N2B 1.53(5) .
C11 N2A 1.36(3) .
C12 O4 1.258(17) .
C12 O10B 1.28(2) .
C12 O10A 1.27(3) .
C13 C14 1.467(19) .
C13 O6 1.260(15) .
C13 O14 1.271(16) .
C13 Eu1 3.066(13) .
C14 C15 1.41(2) .
C14 C18B 1.39(3) .
C14 C18A 1.45(4) .
C15 N3 1.37(2) .
C16 C17B 1.34(3) .
C16 C19 1.47(2) 3_556
C16 N3 1.38(2) .
C16 C17A 1.40(3) .
C17B C18B 1.35(4) .
C19 C16 1.47(2) 3_556
C19 C23B 1.43(4) .
C19 N4 1.35(2) .
C19 C23A 1.30(3) .
C20 C21 1.36(2) .
C20 N4 1.384(19) .
C21 C22B 1.54(4) .
C21 C24 1.497(19) .
C21 C22A 1.39(3) .
C22B C23B 1.37(4) .
C24 O8 1.250(16) 4_566
C24 O12 1.255(16) .
C25 C26 1.49(2) .
C25 O7 1.256(15) .
C25 O0AA 1.284(17) .
C26 C27 1.38(2) .
C26 C30 1.37(2) .
C27 N5 1.39(2) .
C28 C28 1.49(3) 3_566
C28 C29 1.36(2) .
C28 N5 1.40(2) .
C29 C30 1.35(2) .
C31 C32B 1.48(3) .
C31 O5 1.228(18) .
C31 O17 1.255(18) .
C31 Eu2 3.049(15) .
C31 C32A 1.66(5) .
C32B C33B 1.44(4) .
C32B C36B 1.38(3) .
C33B N6B 1.27(5) .
C34B C34B 1.60(6) 3_666
C34B C35B 1.34(3) .
C34B N6B 1.37(4) .
C35B C36B 1.41(3) .
O1 C1 1.240(16) 4_566
O1 Eu2 2.333(11) .
O2 Eu1 2.387(10) .
O3 Eu1 2.912(11) 4_566
O3 Eu2 2.559(10) .
O4 Eu1 2.356(11) .
O5 Eu1 2.360(9) .
O5 Eu2 3.013(10) .
O6 Eu1 2.439(9) .
O7 Eu1 2.416(10) .
O8 C24 1.250(16) 4_565
O8 Eu1 2.321(9) .
O9 Eu1 2.415(13) .
O10B Eu2 2.52(2) .
O11 Eu2 2.430(13) .
O12 Eu2 2.410(9) .
O0AA Eu2 2.397(10) .
O14 Eu1 2.924(10) .
O14 Eu2 2.369(8) .
O17 Eu2 2.386(11) .
Eu1 O3 2.912(11) 4_565
Eu1 Eu2 4.2292(10) .
Eu2 O10A 2.35(2) .
C5A C6A 1.32(3) .
C17A C18A 1.41(4) .
C22A C23A 1.37(4) .
C34A C34A 1.80(9) 3_666
C34A C35A 1.34(5) .
C34A N6A 1.32(4) .
C35A C36A 1.35(6) .
C36A C32A 1.34(6) .
N1A C3A 1.44(4) .
N6A C33A 1.35(3) .
C33A C32A 1.26(5) .
loop_
_geom_torsion_atom_site_label_1
_geom_torsion_atom_site_label_2
_geom_torsion_atom_site_label_3
_geom_torsion_atom_site_label_4
_geom_torsion
_geom_torsion_site_symmetry_1
_geom_torsion_site_symmetry_2
_geom_torsion_site_symmetry_3
_geom_torsion_site_symmetry_4
C1 C2 C3B N1B -179(5) . . . .
C1 C2 C6B C5B -175(5) . . . .
C1 C2 C6A C5A -178(3) . . . .
C1 C2 C3A N1A 179(4) . . . .
C2 C1 O2 Eu1 178.0(11) . . . .
C2 C3B N1B C4 -5(9) . . . .
C3B C2 C6B C5B 36(8) . . . .
C4 C5B C6B C2 -4(9) . . . .
C4 C7 C8B C9 166(2) 2_645 . . .
C4 C7 N2B C11 -158(3) 2_645 . . .
C4 C7 N2A C11 175(2) 2_645 . . .
C4 C7 C8A C9 -167(3) 2_645 . . .
C4 C5A C6A C2 -1(5) . . . .
C4 N1A C3A C2 -3(8) . . . .
C5B C4 N1B C3B 38(7) . . . .
C6B C2 C3B N1B -28(7) . . . .
C7 C4 C5B C6B 175(4) 2_655 . . .
C7 C4 N1B C3B -171(5) 2_655 . . .
C7 C4 C5A C6A 175(3) 2_655 . . .
C7 C4 N1A C3A -171(5) 2_655 . . .
C7 C8B C9 C10 27(4) . . . .
C8B C7 N2B C11 57(7) . . . .
C8B C9 C10 C11 -16(4) . . . .
C8B C9 C10 C12 170(3) . . . .
C9 C10 C11 N2B 18(4) . . . .
C9 C10 C11 N2A -9(4) . . . .
C9 C10 C12 O4 -165.1(17) . . . .
C9 C10 C12 O10B 5(3) . . . .
C9 C10 C12 O10A 29(4) . . . .
C10 C9 C8A C7 -29(6) . . . .
C10 C11 N2B C7 -40(7) . . . .
C10 C11 N2A C7 16(5) . . . .
C10 C12 O4 Eu1 -141.9(12) . . . .
C10 C12 O10B Eu2 162.0(17) . . . .
C10 C12 O10A Eu2 -169(5) . . . .
C11 C10 C12 O4 21(2) . . . .
C11 C10 C12 O10B -169(2) . . . .
C11 C10 C12 O10A -145(3) . . . .
C12 C10 C11 N2B -168(3) . . . .
C12 C10 C11 N2A 166(3) . . . .
C13 C14 C15 N3 178.9(16) . . . .
C13 C14 C18B C17B 175(4) . . . .
C13 C14 C18A C17A 178(3) . . . .
C14 C13 O6 Eu1 169.1(11) . . . .
C14 C13 O14 Eu1 -170.3(14) . . . .
C14 C15 N3 C16 -1(3) . . . .
C15 C14 C18B C17B 10(6) . . . .
C15 C14 C18A C17A -17(5) . . . .
C16 C17B C18B C14 14(7) . . . .
C16 C19 C23B C22B 177(4) 3_556 . . .
C16 C19 N4 C20 -176.4(17) 3_556 . . .
C16 C19 C23A C22A 173(4) 3_556 . . .
C16 C17A C18A C14 7(6) . . . .
C17B C16 N3 C15 27(3) . . . .
C18B C14 C15 N3 -16(3) . . . .
C19 C16 C17B C18B 168(3) 3_556 . . .
C19 C16 N3 C15 -173.2(18) 3_556 . . .
C19 C16 C17A C18A 170(4) 3_556 . . .
C20 C21 C22B C23B -12(6) . . . .
C20 C21 C24 O8 -176.1(15) . . . 4_566
C20 C21 C24 O12 5(2) . . . .
C20 C21 C22A C23A 13(6) . . . .
C21 C20 N4 C19 0(3) . . . .
C21 C22B C23B C19 0(7) . . . .
C21 C24 O12 Eu2 -163.8(9) . . . .
C21 C22A C23A C19 7(7) . . . .
C22B C21 C24 O8 -17(3) . . . 4_566
C22B C21 C24 O12 164(3) . . . .
C23B C19 N4 C20 -14(3) . . . .
C24 C21 C22B C23B -172(4) . . . .
C24 C21 C22A C23A -174(4) . . . .
C25 C26 C27 N5 -177.7(16) . . . .
C25 C26 C30 C29 177.8(17) . . . .
C26 C25 O7 Eu1 -163.3(10) . . . .
C26 C25 O0AA Eu2 129.9(12) . . . .
C26 C27 N5 C28 2(3) . . . .
C27 C26 C30 C29 0(3) . . . .
C28 C28 C29 C30 -178.2(19) 3_566 . . .
C28 C28 N5 C27 178(2) 3_566 . . .
C28 C29 C30 C26 -2(3) . . . .
C29 C28 N5 C27 -4(3) . . . .
C30 C26 C27 N5 0(3) . . . .
C31 C32B C33B N6B -175(4) . . . .
C31 C32B C36B C35B -176(3) . . . .
C32B C31 O5 Eu2 161(2) . . . .
C32B C31 O17 Eu2 -158.2(18) . . . .
C32B C33B N6B C34B -24(8) . . . .
C33B C32B C36B C35B -2(6) . . . .
C34B C34B C35B C36B 158(5) 3_666 . . .
C34B C34B N6B C33B -150(5) 3_666 . . .
C34B C35B C36B C32B 9(6) . . . .
C35B C34B N6B C33B 30(7) . . . .
C36B C32B C33B N6B 11(7) . . . .
O1 C1 C2 C3B -38(4) 4_565 . . .
O1 C1 C2 C6B 176(4) 4_565 . . .
O1 C1 C2 C6A 139(2) 4_565 . . .
O1 C1 C2 C3A -9(4) 4_565 . . .
O1 C1 O2 Eu1 5(3) 4_565 . . .
O2 C1 C2 C3B 148(3) . . . .
O2 C1 C2 C6B 3(4) . . . .
O2 C1 C2 C6A -34(3) . . . .
O2 C1 C2 C3A 177(3) . . . .
O4 C12 O10B Eu2 -30(4) . . . .
O4 C12 O10A Eu2 26(8) . . . .
O5 C31 C32B C33B 4(5) . . . .
O5 C31 C32B C36B 177(3) . . . .
O5 C31 O17 Eu2 14(2) . . . .
O5 C31 C32A C36A 178(5) . . . .
O5 C31 C32A C33A -19(6) . . . .
O6 C13 C14 C15 177.1(15) . . . .
O6 C13 C14 C18B 14(3) . . . .
O6 C13 C14 C18A -18(3) . . . .
O6 C13 O14 Eu1 5.6(13) . . . .
O7 C25 C26 C27 158.7(15) . . . .
O7 C25 C26 C30 -19(2) . . . .
O7 C25 O0AA Eu2 -49(2) . . . .
O8 C24 O12 Eu2 17(2) 4_566 . . .
O10B C12 O4 Eu1 50(3) . . . .
O0AA C25 C26 C27 -21(2) . . . .
O0AA C25 C26 C30 161.6(15) . . . .
O0AA C25 O7 Eu1 16(2) . . . .
O14 C13 C14 C15 -7(2) . . . .
O14 C13 C14 C18B -170(3) . . . .
O14 C13 C14 C18A 158(3) . . . .
O14 C13 O6 Eu1 -7.0(16) . . . .
O17 C31 C32B C33B 176(3) . . . .
O17 C31 C32B C36B -11(5) . . . .
O17 C31 O5 Eu2 -10.5(18) . . . .
O17 C31 C32A C36A 15(6) . . . .
O17 C31 C32A C33A 177(4) . . . .
N1B C4 C5B C6B -33(6) . . . .
N2B C7 C8B C9 -47(5) . . . .
N3 C16 C17B C18B -32(5) . . . .
N3 C16 C17A C18A 6(5) . . . .
N4 C19 C23B C22B 14(5) . . . .
N4 C19 C23A C22A -25(5) . . . .
N4 C20 C21 C22B 13(4) . . . .
N4 C20 C21 C24 171.1(15) . . . .
N4 C20 C21 C22A -16(3) . . . .
N5 C28 C29 C30 4(3) . . . .
N6B C34B C35B C36B -22(6) . . . .
Eu1 C13 C14 C15 -150(3) . . . .
Eu1 C13 C14 C18B 47(5) . . . .
Eu1 C13 C14 C18A 15(5) . . . .
Eu2 C31 C32B C33B 138(3) . . . .
Eu2 C31 C32B C36B -49(6) . . . .
Eu2 C31 C32A C36A 30(15) . . . .
Eu2 C31 C32A C33A -167(8) . . . .
C5A C4 N1A C3A -27(7) . . . .
C6A C2 C3A N1A 30(6) . . . .
C17A C16 N3 C15 -9(3) . . . .
C18A C14 C15 N3 15(4) . . . .
C22A C21 C24 O8 12(3) . . . 4_566
C22A C21 C24 O12 -167(3) . . . .
C23A C19 N4 C20 21(3) . . . .
C34A C34A C35A C36A -140(6) 3_666 . . .
C34A C34A N6A C33A 147(4) 3_666 . . .
C34A C35A C36A C32A -3(11) . . . .
C34A N6A C33A C32A -16(8) . . . .
C35A C34A N6A C33A 16(8) . . . .
C35A C36A C32A C31 166(6) . . . .
C35A C36A C32A C33A 3(12) . . . .
N1A C4 C5A C6A 29(5) . . . .
N2A C7 C8A C9 37(6) . . . .
N6A C34A C35A C36A -6(9) . . . .
N6A C33A C32A C31 -155(4) . . . .
N6A C33A C32A C36A 7(9) . . . .
C8A C7 N2A C11 -29(5) . . . .
C8A C9 C10 C11 13(4) . . . .
C8A C9 C10 C12 -161(3) . . . .
C3A C2 C6A C5A -29(5) . . . .
O10A C12 O4 Eu1 24(3) . . . .
C32A C31 O5 Eu2 -174(2) . . . .
C32A C31 O17 Eu2 176(3) . . . .
