#------------------------------------------------------------------------------
#$Date: 2017-02-04 15:25:49 +0200 (Sat, 04 Feb 2017) $
#$Revision: 191487 $
#$URL: file:///home/coder/svn-repositories/cod/cif/7/11/92/7119275.cif $
#------------------------------------------------------------------------------
#
# This file is available in the Crystallography Open Database (COD),
# http://www.crystallography.net/
#
# All data on this site have been placed in the public domain by the
# contributors.
#
data_7119275
loop_
_publ_author_name
'Song, Bai-Qiao'
'Chen, Da-Qin'
'Ji, Zhenguo'
'Tang, Junhong'
'Wang, Xin-Long'
'Zang, Hong-Ying'
'Su, Zhong-Min'
_publ_section_title
;
 Control of bulk homochirality and proton conductivity in isostructural
 chiral metal-organic frameworks.
;
_journal_issue                   11
_journal_name_full
'Chemical communications (Cambridge, England)'
_journal_page_first              1892
_journal_page_last               1895
_journal_paper_doi               10.1039/c6cc07729c
_journal_volume                  53
_journal_year                    2017
_chemical_formula_sum            'C24 H48 Cu4 N10 O6'
_chemical_formula_weight         826.88
_space_group_crystal_system      hexagonal
_space_group_IT_number           182
_space_group_name_Hall           'P 6c 2c'
_space_group_name_H-M_alt        'P 63 2 2'
_symmetry_space_group_name_Hall  'P 6c 2c'
_symmetry_space_group_name_H-M   'P 63 2 2'
_atom_sites_solution_hydrogens   geom
_atom_sites_solution_primary     direct
_atom_sites_solution_secondary   difmap
_audit_creation_method           SHELXL-2016/6
_audit_update_record
;
2016-12-22 deposited with the CCDC.
2017-01-03 downloaded from the CCDC.
;
_cell_angle_alpha                90
_cell_angle_beta                 90
_cell_angle_gamma                120
_cell_formula_units_Z            4
_cell_length_a                   19.603(5)
_cell_length_b                   19.603(5)
_cell_length_c                   13.939(5)
_cell_measurement_reflns_used    3637
_cell_measurement_temperature    100(2)
_cell_measurement_theta_max      36.988
_cell_measurement_theta_min      4.797
_cell_volume                     4639(2)
_computing_cell_refinement       SMART
_computing_data_collection       'SMART (Bruker, 1997)'
_computing_data_reduction        'SAINT (Bruker, 1999)'
_computing_molecular_graphics    'Diamond (Brandenburg and Putz, 2008)'
_computing_publication_material  'SHELXL-2016/6 (Sheldrick, 2016)'
_computing_structure_refinement  'SHELXL-2016/6 (Sheldrick, 2016)'
_computing_structure_solution    'SHELXS-2016/6 (Sheldrick, 2016)'
_diffrn_ambient_temperature      100(2)
_diffrn_measured_fraction_theta_full 0.998
_diffrn_measured_fraction_theta_max 0.998
_diffrn_measurement_device_type  'Bruker APEX CCD area-detector'
_diffrn_measurement_method       '\w scans'
_diffrn_radiation_type           MoK\a
_diffrn_radiation_wavelength     0.71069
_diffrn_reflns_av_R_equivalents  0.0701
_diffrn_reflns_av_unetI/netI     0.0373
_diffrn_reflns_Laue_measured_fraction_full 0.998
_diffrn_reflns_Laue_measured_fraction_max 0.998
_diffrn_reflns_limit_h_max       22
_diffrn_reflns_limit_h_min       -23
_diffrn_reflns_limit_k_max       23
_diffrn_reflns_limit_k_min       -23
_diffrn_reflns_limit_l_max       16
_diffrn_reflns_limit_l_min       -16
_diffrn_reflns_number            26376
_diffrn_reflns_point_group_measured_fraction_full 0.998
_diffrn_reflns_point_group_measured_fraction_max 0.998
_diffrn_reflns_theta_full        24.764
_diffrn_reflns_theta_max         24.764
_diffrn_reflns_theta_min         1.890
_diffrn_source                   'fine-focus sealed tube'
_exptl_absorpt_coefficient_mu    1.847
_exptl_absorpt_correction_T_max  0.7325
_exptl_absorpt_correction_T_min  0.6659
_exptl_absorpt_correction_type   multi-scan
_exptl_crystal_colour            colorless
_exptl_crystal_density_diffrn    1.184
_exptl_crystal_description       block
_exptl_crystal_F_000             1704
_exptl_crystal_size_max          0.240
_exptl_crystal_size_mid          0.180
_exptl_crystal_size_min          0.180
_refine_diff_density_max         0.460
_refine_diff_density_min         -0.418
_refine_diff_density_rms         0.066
_refine_ls_abs_structure_details
;
 Flack x determined using 626 quotients [(I+)-(I-)]/[(I+)+(I-)]
 (Parsons, Flack and Wagner, Acta Cryst. B69 (2013) 249-259).
;
_refine_ls_abs_structure_Flack   0.034(17)
_refine_ls_extinction_method     none
_refine_ls_goodness_of_fit_ref   1.028
_refine_ls_hydrogen_treatment    constr
_refine_ls_matrix_type           full
_refine_ls_number_parameters     113
_refine_ls_number_reflns         2670
_refine_ls_number_restraints     48
_refine_ls_restrained_S_all      1.049
_refine_ls_R_factor_all          0.0709
_refine_ls_R_factor_gt           0.0475
_refine_ls_shift/su_max          0.000
_refine_ls_shift/su_mean         0.000
_refine_ls_structure_factor_coef Fsqd
_refine_ls_weighting_details
'w=1/[\s^2^(Fo^2^)+(0.0819P)^2^] where P=(Fo^2^+2Fc^2^)/3'
_refine_ls_weighting_scheme      calc
_refine_ls_wR_factor_gt          0.1204
_refine_ls_wR_factor_ref         0.1332
_reflns_Friedel_coverage         0.673
_reflns_Friedel_fraction_full    0.997
_reflns_Friedel_fraction_max     0.997
_reflns_number_gt                1914
_reflns_number_total             2670
_reflns_threshold_expression     'I > 2\s(I)'
_cod_data_source_file            c6cc07729c2.cif
_cod_data_source_block           1P
_cod_depositor_comments
'Adding full bibliography for 7119274--7119277.cif.'
_cod_original_cell_volume        4639(3)
_cod_database_code               7119275
_shelx_shelxl_version_number     2016/6
_shelx_space_group_comment
;
The symmetry employed for this shelxl refinement is uniquely defined
by the following loop, which should always be used as a source of
symmetry information in preference to the above space-group names.
They are only intended as comments.
;
_shelx_estimated_absorpt_t_min   0.666
_shelx_estimated_absorpt_t_max   0.732
_shelx_res_file
;
TITL OO in P6(3)22
    OO.res
    created by SHELXL-2016/6 at 12:52:21 on 22-Dec-2016
CELL  0.71069  19.6030  19.6030  13.9390   90.000   90.000  120.000
ZERR    4.00   0.0050   0.0050   0.0050    0.000    0.000    0.000
LATT  -1
SYMM  - X, - Y, 1/2 + Z
SYMM  - Y,   X - Y,   Z
SYMM  - X + Y, - X,   Z
SYMM    X - Y,   X, 1/2 + Z
SYMM    Y, - X + Y, 1/2 + Z
SYMM    X - Y, - Y, - Z
SYMM  - X, - X + Y, - Z
SYMM    Y,   X, - Z
SYMM  - Y, - X, 1/2 - Z
SYMM    X,   X - Y, 1/2 - Z
SYMM  - X + Y,   Y, 1/2 - Z
SFAC  C    N    CU   H   O
UNIT  96   40   16  192  24
MERG   2
SIMU 0.01 0.03 3.8 C3 C7 C8
DELU 0.01 0.03  C3 C7 C8
SIMU 0.01 0.03 3.8 C4 C6 C5
DELU 0.01 0.03  C4 C6 C5
DFIX 1.52 0.001 C4 C6 C4 C5 C3 C7 C3 C8
DFIX 2.38 0.001 C7 C8 C5 C6
FMAP   2
PLAN   25
SIZE 0.18 0.18 0.24
OMIT 0 1 0
OMIT -1 7 2
ABIN
L.S. 60 0   80
ACTA
BOND $H
CONF
WGHT    0.081900
FVAR       0.12659
CU1   3    0.666667    0.333333    0.601384    10.33333    0.06562    0.06562 =
         0.04853    0.00000    0.00000    0.03281
CU2   3    0.738337    0.261663    0.750000    10.50000    0.06637    0.06637 =
         0.05433    0.01467    0.01467    0.03286
CU3   3    1.000000    0.459579    0.500000    10.50000    0.06859    0.12017 =
         0.07478    0.01609    0.03219    0.03430
N2    2    0.807530    0.332824    0.661133    11.00000    0.05668    0.06921 =
         0.05591    0.00673    0.01003    0.02750
N1    2    0.779645    0.370263    0.601047    11.00000    0.06209    0.07097 =
         0.05355    0.02003    0.00715    0.02712
N3    2    0.903251    0.408992    0.564104    11.00000    0.06716    0.10025 =
         0.06523    0.01928    0.01856    0.04005
C1    1    0.837716    0.415743    0.544315    11.00000    0.07335    0.09251 =
         0.05887    0.01044    0.02106    0.03140
C2    1    0.881573    0.356688    0.636592    11.00000    0.06052    0.09105 =
         0.06002   -0.00185    0.00419    0.03215
C3    1    0.929507    0.333908    0.688465    11.00000    0.08985    0.15893 =
         0.15189   -0.00938   -0.01991    0.09027
AFIX  13
H3    4    0.894626    0.295523    0.736116    11.00000   -1.20000
AFIX   0
C4    1    0.823164    0.464897    0.473012    11.00000    0.19517    0.16877 =
         0.06688    0.07379    0.02562    0.08527
AFIX  13
H4    4    0.769656    0.455807    0.481890    11.00000   -1.20000
AFIX   0
C5    1    0.831789    0.442802    0.371143    11.00000    0.26493    0.21824 =
         0.08827    0.00414   -0.00536    0.15513
AFIX  33
H5A   4    0.796883    0.387416    0.361658    11.00000   -1.50000
H5B   4    0.818795    0.471969    0.326677    11.00000   -1.50000
H5C   4    0.885142    0.455053    0.360690    11.00000   -1.50000
AFIX   0
C8    1    1.001602    0.393441    0.743960    11.00000    0.23697    0.19648 =
         0.19646   -0.04094   -0.09753    0.10077
AFIX  33
H8A   4    1.026150    0.367130    0.774042    11.00000   -1.50000
H8B   4    1.038232    0.432919    0.700750    11.00000   -1.50000
H8C   4    0.985979    0.417890    0.792155    11.00000   -1.50000
AFIX   0
C6    1    0.881182    0.552838    0.476789    11.00000    0.25196    0.15383 =
         0.13591    0.01871   -0.00128    0.11785
AFIX  33
H6A   4    0.879984    0.572558    0.539436    11.00000   -1.50000
H6B   4    0.933287    0.562308    0.463666    11.00000   -1.50000
H6C   4    0.866940    0.579224    0.429652    11.00000   -1.50000
AFIX   0
C7    1    0.960861    0.290945    0.628343    11.00000    0.19530    0.26037 =
         0.24284   -0.06675   -0.02816    0.15364
AFIX  33
H7A   4    0.992518    0.277449    0.667790    11.00000   -1.50000
H7B   4    0.917534    0.243800    0.602372    11.00000   -1.50000
H7C   4    0.992350    0.324433    0.576866    11.00000   -1.50000
AFIX   0
HKLF    4




REM  OO in P6(3)22
REM R1 =  0.0475 for    1914 Fo > 4sig(Fo)  and  0.0709 for all    2670 data
REM    113 parameters refined using     48 restraints

END

WGHT      0.0890      0.0000

REM Highest difference peak  0.460,  deepest hole -0.418,  1-sigma level  0.066
Q1    1   0.8924  0.2551  0.7413  11.00000  0.05    0.46
Q2    1   0.7700  0.2300  0.7500  10.50000  0.05    0.37
Q3    1   0.9478  0.3382  0.7914  11.00000  0.05    0.27
Q4    1   0.7696  0.3703  0.3932  11.00000  0.05    0.26
Q5    1   0.8438  0.3736  0.4495  11.00000  0.05    0.24
Q6    1   0.7654  0.4172  0.4019  11.00000  0.05    0.23
Q7    1   0.6167  0.3127  0.5962  11.00000  0.05    0.23
Q8    1   0.8171  0.2806  0.6998  11.00000  0.05    0.22
Q9    1   0.9483  0.4732  0.5031  11.00000  0.05    0.20
Q10   1   0.7338  0.3668  0.6004  11.00000  0.05    0.20
Q11   1   0.9090  0.5270  0.3399  11.00000  0.05    0.20
Q12   1   0.8390  0.3602  0.5412  11.00000  0.05    0.20
Q13   1   0.8105  0.5302  0.5011  11.00000  0.05    0.19
Q14   1   0.7749  0.2987  0.6590  11.00000  0.05    0.19
Q15   1   1.0000  0.5194  0.5000  10.50000  0.05    0.18
Q16   1   1.0000  0.5676  0.5000  10.50000  0.05    0.18
Q17   1   0.7630  0.2404  0.8198  11.00000  0.05    0.17
Q18   1   0.8396  0.4745  0.5391  11.00000  0.05    0.17
Q19   1   0.9279  0.3862  0.5505  11.00000  0.05    0.17
Q20   1   1.0000  0.2724  0.5000  10.50000  0.05    0.17
Q21   1   1.0818  0.4625  0.7613  11.00000  0.05    0.16
Q22   1   0.8713  0.4101  0.6861  11.00000  0.05    0.16
Q23   1   0.9945  0.5995  0.4242  11.00000  0.05    0.16
Q24   1   0.8353  0.3715  0.3812  11.00000  0.05    0.16
Q25   1   0.8076  0.6152  0.2500  10.50000  0.05    0.16
;
_shelx_res_checksum              71676
_shelx_hkl_file
;
   0   0  -1    0.03    0.03
   0   0  -3    0.26    0.32
   0   0  -4  217.68    6.73
   0   0  -5   -0.19    0.62
   0   0  -6   38.29    1.86
   0   0  -7   -0.49    0.83
   0   0  -8  632.28   19.08
   0   0  -9   -1.68    0.75
   0   0 -10   -0.93    0.90
   0   0 -11    0.75    1.14
   0   0 -12   81.33    3.97
   0   0 -13    1.54    1.44
   0   0 -14   18.61    2.30
   0   0  15    0.50    1.95
   0   0  15    1.94    1.50
   0   0  16    5.52    2.38
   1  -1  16    4.69    2.01
   1  -1  15    5.60    2.04
  -1   1 -14    6.67    1.69
   1  -1  14    3.34    1.83
  -1   1 -13   32.87    2.84
  -1   1 -12   13.37    2.01
  -1   1 -11   21.15    2.09
  -1   1 -10   -0.56    1.22
  -1   1  -9    2.13    1.05
  -1   1  -8   76.00    3.21
  -1   1  -7  264.49    8.48
  -1   1  -6   27.51    1.56
  -1   1  -5   87.08    3.16
  -1   1  -4    9.97    1.00
  -1   1  -3    8.86    0.77
  -1   1  -2   56.66    1.93
  -1   1  -1  940.57   27.16
  -1   1  -1  908.85   27.97
  -1   1   0   -0.24    0.02
   1  -1   0   -0.20    0.02
  -1   1   1  914.07   26.81
   1  -1  -1  886.72   26.20
  -1   1   2   56.08    1.97
   1  -1  -2   57.33    1.82
   1  -1  -3    8.63    0.67
   1  -1  -4    9.41    0.80
   1  -1  -5   84.29    2.96
   1  -1  -6   23.84    1.34
   1  -1  -7  173.05    5.72
   1  -1  -9    2.01    0.83
   1  -1 -10   -0.37    0.65
   1  -1 -11   11.42    1.53
   1  -1 -12    8.21    1.54
  -1   1  13   38.59    3.36
   1  -1 -13   33.36    2.74
  -1   1  14    4.50    2.04
   1  -1 -14    6.86    1.70
  -1   1  15    5.18    1.98
   1  -1 -15    6.00    1.80
  -1   1  16   -1.09    2.03
   2  -2  16    5.73    2.16
   2  -2  15    0.21    1.80
  -2   2 -14   25.76    2.65
   2  -2  14   25.98    2.73
  -2   2 -13   19.62    2.38
  -2   2 -12    0.49    1.25
  -2   2 -11    4.40    1.58
  -2   2 -10   17.03    2.01
  -2   2  -9    5.84    1.27
  -2   2  -8    2.35    0.98
  -2   2  -7  109.12    4.10
  -2   2  -6  337.76   10.52
  -2   2  -5   31.12    1.64
  -2   2  -4  354.99   10.78
  -2   2  -3  107.36    3.59
  -2   2  -2  657.39   19.18
  -2   2  -2  654.94   19.73
  -2   2  -1  269.52    8.44
  -2   2  -1  284.23    8.20
  -2   2   0  141.63    4.42
  -2   2   1  281.53    8.56
   2  -2  -1  281.70    8.21
  -2   2   2  651.40   19.55
   2  -2  -2  653.24   18.86
  -2   2   3  107.90    3.66
   2  -2  -3  108.13    3.36
  -2   2   4  358.34   11.27
   2  -2  -4  368.33   10.77
  -2   2   5   32.46    1.79
   2  -2  -5   33.90    1.48
  -2   2   6  348.56   11.20
   2  -2  -6  354.33   10.66
  -2   2   7  111.41    4.23
   2  -2  -7  106.99    3.83
  -2   2   8    2.54    1.11
   2  -2  -8    3.35    0.90
  -2   2   9    3.67    1.53
   2  -2  -9    4.01    1.04
  -2   2  10   15.03    2.16
   2  -2 -10   15.32    1.63
  -2   2  11   -0.72    1.66
   2  -2 -11    1.04    1.15
  -2   2  12    0.83    1.77
   2  -2 -12    1.47    1.22
  -2   2  13   17.79    2.70
   2  -2 -13   17.70    2.06
  -2   2  14   23.69    3.01
   2  -2 -14   26.97    2.49
  -2   2  15   -1.67    1.92
  -2   2  16    3.91    2.24
   3  -3  16    3.98    1.87
   3  -3  15    0.37    1.84
   3  -3  14    7.89    2.01
  -3   3 -13    6.60    1.95
   3  -3  13   12.32    2.07
  -3   3 -12   -1.70    1.43
  -3   3 -11    3.89    1.68
  -3   3 -10   64.10    3.34
  -3   3  -9   42.16    2.71
  -3   3  -8   -0.14    1.11
  -3   3  -7   45.98    2.37
  -3   3  -6   73.17    3.02
  -3   3  -5    6.12    0.95
  -3   3  -4  224.29    7.11
  -3   3  -3  237.15    7.38
  -3   3  -3  237.21    7.65
  -3   3  -2   47.23    1.97
  -3   3  -2   47.13    1.85
  -3   3  -1   32.04    1.25
  -3   3  -1   32.73    1.44
   3  -3   1   33.57    1.35
  -3   3   0   -0.14    0.16
  -3   3   0    0.42    0.38
   3  -3   0   -0.17    0.08
  -3   3   1   34.83    1.47
  -3   3   1   34.59    1.39
   3  -3  -1   32.89    1.23
  -3   3   2   49.20    2.00
   3  -3  -2   47.70    1.69
  -3   3   3  242.08    7.62
   3  -3  -3  240.06    7.15
  -3   3   4  227.06    7.34
   3  -3  -4  228.60    6.84
  -3   3   5    6.53    1.05
   3  -3  -5    6.00    0.68
  -3   3   6   70.95    3.01
   3  -3  -6   73.93    2.64
  -3   3   7   50.01    2.49
   3  -3  -7   50.35    2.10
  -3   3   8    2.68    1.30
   3  -3  -8    0.65    0.73
  -3   3   9   42.44    2.76
   3  -3  -9   39.28    2.08
  -3   3  10   65.23    3.60
   3  -3 -10   64.88    3.00
  -3   3  11    1.11    1.69
   3  -3 -11    2.78    1.27
  -3   3  12    2.31    1.82
   3  -3 -12   -0.12    1.10
  -3   3  13   10.95    2.32
   3  -3 -13   13.17    1.84
  -3   3  14    3.25    2.08
  -3   3  15   -0.62    2.00
  -3   3  16    2.04    2.23
   4  -4  16   12.19    2.73
   4  -4  15   -0.82    1.86
   4  -4  14    0.66    1.67
   4  -4  13    5.39    1.80
  -4   4 -12   60.78    3.54
   4  -4  12   60.02    3.67
  -4   4 -11    7.47    1.72
  -4   4 -10   23.60    2.31
  -4   4  -9    5.36    1.42
  -4   4  -8  188.61    6.69
  -4   4  -7   55.63    2.72
  -4   4  -6    0.69    0.86
  -4   4  -5   41.48    2.07
  -4   4  -4  831.65   25.32
  -4   4  -4  833.37   24.59
  -4   4  -3    9.06    1.12
  -4   4  -3   10.47    1.07
  -4   4  -2   40.47    1.96
   4  -4   2   40.40    1.80
  -4   4  -1  335.53   10.20
  -4   4  -1  336.70   10.51
   4  -4   1  338.08   10.10
  -4   4   0    7.35    1.08
  -4   4   0    3.31    0.66
  -4   4   1  334.18   10.46
  -4   4   1  343.82   10.27
   4  -4  -1  332.47    9.96
  -4   4   2   42.73    1.95
  -4   4   2   40.51    1.84
   4  -4  -2   41.04    1.63
  -4   4   3    9.86    1.17
   4  -4  -3   10.31    0.74
  -4   4   4  853.87   25.79
   4  -4  -4  854.82   24.75
  -4   4   5   41.72    2.15
   4  -4  -5   41.62    1.61
  -4   4   6   -0.47    0.96
   4  -4  -6    0.29    0.56
  -4   4   7   54.70    2.76
   4  -4  -7   54.19    2.19
  -4   4   8  193.28    6.86
   4  -4  -8  189.20    6.19
  -4   4   9    4.38    1.58
   4  -4  -9    6.35    1.11
  -4   4  10   19.81    2.17
   4  -4 -10   22.73    1.74
  -4   4  11    7.27    2.01
   4  -4 -11    8.28    1.42
  -4   4  12   58.42    3.77
   4  -4 -12   62.78    3.08
  -4   4  13    1.94    1.66
  -4   4  14   -0.54    1.94
  -4   4  15   -0.97    2.00
   5  -5  15    8.09    2.28
   5  -5  14    3.56    2.13
   5  -5  13    1.36    1.99
   5  -5  12    6.18    1.90
  -5   5 -11   53.01    3.34
   5  -5  11   55.97    3.51
  -5   5 -10    6.47    1.62
  -5   5  -9   61.39    3.27
  -5   5  -8   13.91    1.72
  -5   5  -7    8.31    1.37
  -5   5  -6   34.78    2.08
  -5   5  -5  237.91    8.20
  -5   5  -5  247.74    7.94
  -5   5  -4   -0.02    0.71
  -5   5  -4   -0.07    0.78
  -5   5  -3  410.71   12.97
   5  -5   3  413.78   12.56
  -5   5  -2   42.59    2.05
  -5   5  -2   40.76    1.71
   5  -5   2   38.69    1.87
  -5   5  -1  136.09    4.42
  -5   5  -1  133.74    4.70
   5  -5   1  135.72    4.45
  -5   5   0    0.29    0.56
  -5   5   0    0.76    0.77
   5  -5   0   -0.22    0.17
  -5   5   1  130.93    4.35
  -5   5   1  128.67    4.53
   5  -5  -1  130.95    4.15
  -5   5   2   39.29    2.09
  -5   5   2   38.96    1.83
   5  -5  -2   41.19    1.65
  -5   5   3  414.46   13.06
   5  -5  -3  424.77   12.41
  -5   5   4    1.32    0.95
   5  -5  -4    0.70    0.46
  -5   5   5  243.35    8.01
   5  -5  -5  239.64    7.27
  -5   5   6   35.00    2.18
   5  -5  -6   34.74    1.50
  -5   5   7    7.53    1.30
   5  -5  -7    6.83    0.82
  -5   5   8   11.71    1.59
   5  -5  -8   13.14    1.14
  -5   5   9   60.78    3.39
   5  -5  -9   61.47    2.59
  -5   5  10    6.45    1.85
   5  -5 -10    6.68    1.16
  -5   5  11   59.51    3.42
   5  -5 -11   53.17    2.76
  -5   5  12   10.62    2.18
  -5   5  13    1.53    1.61
  -5   5  14    1.86    1.74
  -5   5  15    6.12    2.33
   6  -6  15   -1.67    2.09
   6  -6  14   -1.60    1.64
   6  -6  13    1.54    1.77
   6  -6  12    0.10    1.59
   6  -6  11   13.43    2.26
  -6   6 -10   55.70    3.37
   6  -6  10   58.80    3.55
  -6   6  -9   27.63    2.47
   6  -6   9   28.39    2.59
  -6   6  -8    8.40    1.59
   6  -6   8    9.87    1.79
  -6   6  -7    4.45    1.26
   6  -6   7    3.96    1.32
  -6   6  -6   72.83    3.45
  -6   6  -6   75.46    3.33
   6  -6   6   76.68    3.42
  -6   6  -5   75.20    3.39
  -6   6  -5   72.15    3.13
   6  -6   5   71.46    3.18
  -6   6  -4   75.82    3.33
   6  -6   4   78.79    3.23
  -6   6  -3  120.89    4.53
   6  -6   3  120.79    4.33
  -6   6  -2  165.56    5.34
  -6   6  -2  165.62    5.75
   6  -6   2  163.09    5.46
  -6   6  -1   50.51    2.35
  -6   6  -1   47.96    2.04
   6  -6   1   49.32    2.17
  -6   6   0  127.74    4.48
  -6   6   0  120.21    4.17
  -6   6   1   46.95    2.07
  -6   6   1   48.45    2.25
   6  -6  -1   45.70    1.89
  -6   6   2  173.74    5.74
  -6   6   2  167.25    5.84
   6  -6  -2  172.57    5.41
  -6   6   3  120.64    4.37
  -6   6   3  125.42    4.47
   6  -6  -3  119.44    3.98
  -6   6   4   84.33    3.33
  -6   6   4   73.18    3.22
   6  -6  -4   79.67    2.73
  -6   6   5   73.90    3.19
   6  -6  -5   76.18    2.59
  -6   6   6   70.11    3.23
   6  -6  -6   70.54    2.48
  -6   6   7    5.01    1.45
   6  -6  -7    5.74    0.78
  -6   6   8    9.75    1.78
   6  -6  -8   12.35    1.08
  -6   6   9   28.48    2.56
   6  -6  -9   25.76    1.60
  -6   6  10   56.90    3.51
   6  -6 -10   55.71    2.53
  -6   6  11   12.18    2.24
  -6   6  12    0.24    1.75
  -6   6  13    2.67    1.70
  -6   6  14   -1.77    1.91
  -6   6  15    4.16    1.95
   7  -7  15    1.52    1.95
   7  -7  14    3.59    2.07
   7  -7  13    0.78    1.82
   7  -7  12    1.45    1.71
   7  -7  11    3.76    1.83
   7  -7  10    1.52    1.72
   7  -7   9   22.90    2.53
   7  -7   8   12.07    1.95
   7  -7   7    1.63    1.29
  -7   7  -6   12.80    1.75
   7  -7   6   13.90    1.75
  -7   7  -5   70.58    3.42
   7  -7   5   73.79    3.31
  -7   7  -4  262.04    8.88
   7  -7   4  260.50    8.56
  -7   7  -3   24.35    1.98
   7  -7   3   27.80    1.76
  -7   7  -2   40.79    2.26
  -7   7  -2   39.42    1.92
   7  -7   2   43.06    2.14
  -7   7  -1    0.66    0.78
  -7   7  -1    0.18    0.82
   7  -7   1    1.47    0.82
  -7   7   0    1.51    0.74
  -7   7   0    1.66    0.89
   7  -7   0   -0.20    0.26
  -7   7   1    1.12    0.87
  -7   7   1    0.64    0.74
   7  -7  -1    1.42    0.75
  -7   7   2   42.61    2.25
  -7   7   2   43.53    2.10
   7  -7  -2   43.71    1.90
  -7   7   3   27.04    1.89
  -7   7   3   24.73    1.68
   7  -7  -3   27.10    1.50
  -7   7   4  276.87    9.07
  -7   7   4  280.01    9.00
   7  -7  -4  261.72    8.31
  -7   7   5   73.14    3.29
  -7   7   5   71.16    3.20
   7  -7  -5   70.89    2.52
  -7   7   6    9.85    1.48
   7  -7  -6   14.33    0.92
  -7   7   7    2.91    1.43
   7  -7  -7    0.28    0.55
  -7   7   8   11.18    1.90
   7  -7  -8   11.49    1.02
  -7   7   9   31.70    2.75
   7  -7  -9   23.89    1.51
  -7   7  10   -0.09    1.75
  -7   7  11    4.38    1.89
  -7   7  12    1.84    1.88
  -7   7  13    3.23    2.04
  -7   7  13   -1.44    1.59
  -7   7  14   -2.48    1.86
  -7   7  14    1.94    1.83
  -7   7  15    0.68    1.81
   8  -8  15   -0.61    1.94
   8  -8  14   -0.80    1.84
   8  -8  13    5.88    2.20
   8  -8  12    7.19    2.15
   8  -8  11    1.52    1.73
   8  -8  10   24.14    2.72
   8  -8   9    4.30    2.06
   8  -8   8   38.49    3.05
  -8   8  -7   10.83    1.83
   8  -8   7    9.38    1.77
  -8   8  -6   33.98    2.54
   8  -8   6   34.01    2.50
  -8   8  -5   23.99    2.09
   8  -8   5   21.92    2.01
  -8   8  -4  105.30    4.42
   8  -8   4  105.44    4.19
  -8   8  -3   38.93    2.37
   8  -8   3   38.34    2.19
  -8   8  -2   72.04    3.26
  -8   8  -2   66.21    2.84
   8  -8   2   70.92    3.06
  -8   8  -1   72.36    2.93
  -8   8  -1   72.96    3.26
   8  -8   1   70.36    2.92
  -8   8   0   45.93    2.16
  -8   8   0   44.90    2.44
  -8   8   1   67.76    3.19
  -8   8   1   62.97    2.79
   8  -8  -1   73.18    2.77
  -8   8   2   72.91    2.97
  -8   8   2   69.56    3.15
   8  -8  -2   65.76    2.71
  -8   8   3   34.62    2.08
  -8   8   3   35.33    2.23
   8  -8  -3   39.13    1.84
  -8   8   4  103.77    4.22
  -8   8   4  102.43    4.13
   8  -8  -4  102.48    3.63
  -8   8   5   26.48    2.24
  -8   8   5   24.09    2.04
   8  -8  -5   21.62    1.29
  -8   8   6   34.15    2.52
  -8   8   6   35.60    2.46
   8  -8  -6   33.87    1.52
  -8   8   7    7.93    1.78
  -8   8   7    7.15    1.62
   8  -8  -7    7.82    0.81
  -8   8   8   34.38    2.54
  -8   8   8   33.32    2.82
   8  -8  -8   34.94    1.68
  -8   8   9    6.43    1.91
  -8   8   9    5.99    1.82
  -8   8  10   22.87    2.58
  -8   8  10   23.79    2.61
  -8   8  11    2.95    1.91
  -8   8  11    4.79    1.77
  -8   8  12    2.64    1.81
  -8   8  12    3.86    1.99
  -8   8  13    6.28    2.26
  -8   8  13    4.98    1.98
  -8   8  14   -1.76    1.57
  -8   8  15    3.55    1.98
   9  -9  14    5.36    2.26
   9  -9  13    2.30    2.33
   9  -9  12    3.81    1.97
   9  -9  11   11.23    2.32
   9  -9  10   72.65    4.26
   9  -9   9   16.71    2.42
   9  -9   8   11.48    2.10
  -9   9  -7   61.38    3.60
   9  -9   7   61.41    3.50
  -9   9  -6   31.54    2.78
   9  -9   6   31.27    2.61
  -9   9  -5   18.94    2.15
   9  -9   5   25.68    2.33
  -9   9  -4   29.70    2.44
   9  -9   4   28.08    2.12
  -9   9  -3  153.47    5.86
   9  -9   3  152.67    5.57
  -9   9  -2  208.23    7.14
  -9   9  -2  222.76    7.74
   9  -9   2  215.86    7.23
  -9   9  -1   65.43    2.82
  -9   9  -1   63.89    3.13
   9  -9   1   60.42    2.76
  -9   9   0   99.35    4.17
  -9   9   0   99.54    3.85
  -9   9   1   66.21    3.13
   9  -9  -1   61.83    2.67
  -9   9   2  220.32    7.57
  -9   9   2  220.34    7.33
   9  -9  -2  206.98    6.96
  -9   9   3  160.00    5.86
  -9   9   3  153.78    5.73
   9  -9  -3  155.81    5.28
  -9   9   4   27.44    2.28
  -9   9   4   28.05    2.08
   9  -9  -4   29.93    1.76
  -9   9   5   25.46    2.18
  -9   9   5   20.85    2.25
   9  -9  -5   23.77    1.50
  -9   9   6   31.84    2.42
  -9   9   6   29.90    2.59
   9  -9  -6   30.76    1.49
  -9   9   7   61.31    3.54
  -9   9   7   68.93    3.55
   9  -9  -7   61.44    2.38
  -9   9   8   10.02    1.99
  -9   9   8   14.10    2.19
  -9   9   9   20.37    2.52
  -9   9   9   17.08    2.38
  -9   9  10   73.17    4.06
  -9   9  10   71.85    4.12
  -9   9  11   15.85    2.41
  -9   9  11   13.24    2.23
  -9   9  12    1.80    1.71
  -9   9  12    0.29    1.81
  -9   9  13    7.06    2.09
  -9   9  13    2.81    2.05
  -9   9  14    2.71    1.97
  10 -10  14    3.05    2.22
  10 -10  13    3.28    2.18
  10 -10  12    3.66    2.06
  10 -10  11   10.48    2.38
  10 -10  10    1.07    1.76
  10 -10   9   27.83    2.88
  10 -10   8   16.01    2.38
 -10  10  -7    3.16    1.66
  10 -10   7    0.48    1.52
 -10  10  -6    8.52    1.91
  10 -10   6   10.65    1.91
 -10  10  -5   35.72    2.75
  10 -10   5   35.94    2.61
 -10  10  -4    4.49    1.50
  10 -10   4    5.22    1.66
 -10  10  -3  172.20    5.97
 -10  10  -3  175.71    6.63
  10 -10   3  175.37    6.30
 -10  10  -2    3.95    1.22
 -10  10  -2    4.68    1.42
  10 -10   2    6.21    1.30
 -10  10  -1   14.13    1.58
 -10  10  -1   13.11    1.76
  10 -10   1   14.77    1.66
 -10  10   0   30.87    2.05
 -10  10   0   30.11    2.49
 -10  10   1   14.79    1.80
  10 -10  -1   13.56    1.47
 -10  10   2    4.58    1.62
 -10  10   2    6.52    1.25
  10 -10  -2    7.24    1.27
 -10  10   3  185.73    6.71
 -10  10   3  167.49    6.35
  10 -10  -3  178.65    5.97
 -10  10   4    6.70    1.50
 -10  10   4    3.83    1.35
  10 -10  -4    7.00    1.21
 -10  10   5   40.38    2.65
 -10  10   5   37.64    2.89
  10 -10  -5   34.57    1.96
 -10  10   6   12.09    2.17
 -10  10   6    9.51    1.78
  10 -10  -6   10.74    1.05
 -10  10   7    1.24    1.51
 -10  10   7   -1.20    1.64
 -10  10   8   14.43    2.36
 -10  10   8   18.95    2.39
 -10  10   9   30.43    2.92
 -10  10   9   24.01    2.65
 -10  10  10   -1.68    1.39
 -10  10  10    1.28    1.81
 -10  10  11   11.78    2.25
 -10  10  11   15.00    2.50
 -10  10  12    0.63    1.84
 -10  10  12   -0.56    1.64
 -10  10  13    3.20    1.94
 -10  10  14    2.07    1.97
  11 -11  13   -0.22    1.91
  11 -11  12    5.48    2.28
  11 -11  11    1.10    1.91
  11 -11  10    0.54    1.77
  11 -11   9   -0.99    1.58
 -11  11  -8   29.85    3.23
  11 -11   8   33.81    3.15
 -11  11  -7    6.69    1.97
  11 -11   7    4.08    1.80
 -11  11  -6   13.13    2.18
  11 -11   6   13.82    2.12
 -11  11  -5    3.22    1.61
  11 -11   5    2.60    1.55
 -11  11  -4  133.14    5.63
  11 -11   4  130.22    5.33
 -11  11  -3    9.00    1.73
 -11  11  -3    9.26    1.42
  11 -11   3    6.93    1.55
 -11  11  -2    0.58    1.10
 -11  11  -2    0.50    1.34
  11 -11   2    0.47    1.12
 -11  11  -1   17.07    2.08
 -11  11  -1   17.44    1.82
  11 -11   1   18.25    1.92
 -11  11   0   44.90    2.42
 -11  11   0   35.69    2.54
  11 -11   0   25.34    2.11
 -11  11   1   13.55    1.88
  11 -11  -1   14.66    1.71
 -11  11   2   -1.42    1.00
 -11  11   2   -0.61    1.50
  11 -11  -2    2.40    1.16
 -11  11   3    5.97    1.83
 -11  11   3    7.49    1.51
  11 -11  -3   10.31    1.46
 -11  11   4  130.64    5.38
 -11  11   4  128.43    5.47
  11 -11  -4  140.48    4.87
 -11  11   5    3.16    1.78
 -11  11   5    2.82    1.74
  11 -11  -5    3.15    1.13
 -11  11   6   12.46    2.06
 -11  11   6   17.77    2.43
 -11  11   7    3.15    1.69
 -11  11   7    5.03    1.82
 -11  11   8   30.60    2.92
 -11  11   8   31.30    3.00
 -11  11   9    0.70    1.58
 -11  11   9    0.64    1.79
 -11  11  10    1.25    1.83
 -11  11  10    1.60    1.64
 -11  11  11    4.54    2.07
 -11  11  11    0.98    1.66
 -11  11  12    7.84    2.21
 -11  11  12    6.80    2.35
 -11  11  13    4.85    2.04
  12 -12  13   -4.81    2.24
  12 -12  12    0.54    1.99
  12 -12  11    1.62    1.96
  12 -12  10   -2.03    1.65
  12 -12   9    1.81    1.73
 -12  12  -8   -1.13    1.54
  12 -12   8   -0.79    1.61
 -12  12  -7    1.96    1.75
  12 -12   7    2.55    1.77
 -12  12  -6   29.57    3.00
  12 -12   6   28.54    2.81
 -12  12  -5   -0.99    1.43
  12 -12   5    1.45    1.50
 -12  12  -4    0.39    1.50
  12 -12   4   -1.74    1.57
 -12  12  -3    5.41    1.48
 -12  12  -3    0.80    1.47
  12 -12   3    6.17    1.57
 -12  12  -2    1.16    1.48
 -12  12  -2    0.80    1.39
  12 -12   2    1.28    1.55
 -12  12  -1    2.44    1.57
 -12  12  -1    1.64    1.37
  12 -12   1    3.80    1.54
 -12  12   0   90.46    3.80
 -12  12   0   89.08    4.19
  12 -12   0   73.34    3.68
 -12  12   1    5.52    1.89
 -12  12   1   -0.61    0.77
  12 -12  -1    3.61    1.43
 -12  12   2   -1.86    1.36
 -12  12   2    0.92    1.24
  12 -12  -2   -0.93    1.28
 -12  12   3    3.25    1.62
 -12  12   3    2.24    1.50
  12 -12  -3    4.30    1.40
 -12  12   4    1.85    1.79
 -12  12   4   -0.75    1.26
  12 -12  -4    0.94    1.16
 -12  12   5   -0.05    1.68
 -12  12   5    1.52    1.84
 -12  12   6   33.26    2.94
 -12  12   6   30.77    2.80
 -12  12   7    2.63    1.73
 -12  12   7    4.28    1.99
 -12  12   8    0.21    1.57
 -12  12   8   -0.05    1.88
 -12  12   9   -0.68    1.58
 -12  12   9   -0.13    1.54
 -12  12  10    2.60    2.01
 -12  12  10    0.77    1.77
 -12  12  11    4.43    2.02
 -12  12  11    0.63    1.95
 -12  12  12    3.46    2.00
 -12  12  13    0.19    2.32
  13 -13  12    0.24    1.98
  13 -13  11    4.86    2.21
  13 -13  10    3.12    2.02
  13 -13   9    0.51    1.76
 -13  13  -8    1.32    1.65
  13 -13   8   -0.13    1.71
 -13  13  -7   17.47    2.63
  13 -13   7   22.13    2.68
 -13  13  -6   35.26    3.31
  13 -13   6   35.96    3.18
 -13  13  -5   20.39    2.60
  13 -13   5   19.17    2.43
 -13  13  -4   13.32    2.22
  13 -13   4   12.49    2.05
 -13  13  -3   -1.17    1.49
 -13  13  -3   -0.08    1.28
  13 -13   3   -1.86    1.59
 -13  13  -2   35.93    2.79
 -13  13  -2   36.36    3.15
  13 -13   2   35.31    2.80
 -13  13  -1   41.67    3.12
 -13  13  -1   44.84    2.90
  13 -13   1   40.99    2.99
 -13  13   0   -0.54    1.77
 -13  13   0    4.20    1.58
  13 -13   0    2.67    1.52
 -13  13   1   39.64    2.94
 -13  13   1   30.21    2.32
  13 -13  -1   37.95    2.69
 -13  13   2   34.40    2.77
 -13  13   2   34.25    3.14
  13 -13  -2   35.57    2.54
 -13  13   3   -0.03    1.59
 -13  13   3   -1.34    1.45
  13 -13  -3   -1.09    1.34
 -13  13   4   11.11    1.97
 -13  13   4   14.10    2.23
 -13  13   5   17.53    2.54
 -13  13   5   21.14    2.49
 -13  13   6   34.85    3.06
 -13  13   6   33.59    3.08
 -13  13   7   14.65    2.22
 -13  13   7   14.61    2.45
 -13  13   8    1.12    1.70
 -13  13   8   -1.76    1.45
 -13  13   9    0.08    1.67
 -13  13   9    2.01    1.95
 -13  13  10    2.17    2.03
 -13  13  10    4.50    1.96
 -13  13  11    1.60    1.94
 -13  13  12   -0.70    1.91
  14 -14  11    2.80    2.40
  14 -14  10    0.36    2.30
  14 -14   9    4.74    2.18
 -14  14  -8    1.25    1.79
  14 -14   8    2.50    1.88
 -14  14  -7   11.55    2.35
  14 -14   7    9.63    2.22
 -14  14  -6    4.90    1.92
  14 -14   6    4.13    1.86
 -14  14  -5   13.16    2.33
  14 -14   5   10.82    2.10
 -14  14  -4    0.00    1.54
  14 -14   4    3.67    1.72
 -14  14  -3    1.39    1.65
  14 -14   3    1.18    1.55
 -14  14  -2    7.93    1.94
 -14  14  -2    5.28    1.92
  14 -14   2    5.85    1.75
 -14  14  -1   47.37    3.54
 -14  14  -1   56.03    3.38
  14 -14   1   60.31    3.57
 -14  14   0   19.04    2.53
 -14  14   0   21.91    2.41
  14 -14   0   23.82    2.39
 -14  14   1   52.93    3.55
 -14  14   1   54.62    3.44
  14 -14  -1   59.81    3.40
 -14  14   2    5.28    2.14
 -14  14   2    8.19    1.96
  14 -14  -2    4.17    1.78
 -14  14   3   -0.83    1.50
 -14  14   3   -1.38    1.58
  14 -14  -3   -0.13    1.53
 -14  14   4    1.01    1.88
 -14  14   4    0.06    1.47
 -14  14   5   14.06    2.29
 -14  14   5   12.89    2.39
 -14  14   6    4.14    2.05
 -14  14   6    3.11    1.71
 -14  14   7   10.36    2.36
 -14  14   7    9.61    2.12
 -14  14   8    6.27    2.24
 -14  14   8    3.25    2.17
 -14  14   9    7.03    2.30
 -14  14   9    8.13    2.21
 -14  14  10    3.33    2.12
 -14  14  10    2.77    2.00
 -14  14  11    1.85    1.95
  15 -15  10   -1.96    1.86
 -15  15  -9    1.98    1.85
  15 -15   9    2.43    2.04
 -15  15  -8   18.32    2.85
  15 -15   8   16.46    2.71
 -15  15  -7    0.83    1.79
  15 -15   7   -2.09    1.60
 -15  15  -6    3.54    1.87
  15 -15   6   -0.30    2.02
 -15  15  -5    2.63    1.67
  15 -15   5    0.27    1.91
 -15  15  -4    5.17    1.93
  15 -15   4    4.93    1.89
 -15  15  -3    1.79    1.73
  15 -15   3    2.23    1.65
 -15  15  -2    3.79    1.85
  15 -15   2    3.23    1.66
 -15  15  -1    1.07    1.61
 -15  15  -1    0.54    1.65
  15 -15   1    1.80    1.67
 -15  15   0   91.88    4.94
 -15  15   0  103.77    4.82
  15 -15   0   97.30    4.68
 -15  15   1   -0.47    1.52
 -15  15   1    1.48    1.42
  15 -15  -1    1.24    1.62
 -15  15   2    2.56    1.50
 -15  15   2    3.30    1.95
  15 -15  -2    5.55    1.85
 -15  15   3   -0.24    1.38
 -15  15   3    5.78    2.15
 -15  15   4    7.20    1.97
 -15  15   4    5.47    2.04
 -15  15   5   -1.33    1.83
 -15  15   5   -1.05    1.50
 -15  15   6    2.86    2.07
 -15  15   6    1.60    1.65
 -15  15   7   -1.20    1.55
 -15  15   7    1.19    1.70
 -15  15   8   18.55    2.63
 -15  15   8   20.29    2.82
 -15  15   9    1.17    1.87
 -15  15   9    2.97    2.15
 -15  15  10   -2.02    1.73
 -16  16  -9    1.28    1.83
  16 -16   9   -0.85    1.85
 -16  16  -8    1.82    1.92
  16 -16   8   -2.67    2.17
 -16  16  -7    5.57    2.26
  16 -16   7    9.06    2.37
 -16  16  -6    3.05    1.92
  16 -16   6    3.12    2.30
 -16  16  -5   -0.42    1.64
  16 -16   5   -2.41    2.00
 -16  16  -4    1.65    1.75
  16 -16   4    0.77    1.95
 -16  16  -3    0.18    1.63
  16 -16   3   -1.35    1.85
 -16  16  -2   -0.10    1.60
  16 -16   2   -1.76    1.79
 -16  16  -1    5.41    2.31
  16 -16   1    2.86    1.44
 -16  16   0    5.15    1.91
 -16  16   0    1.81    1.77
  16 -16   0    3.22    1.88
 -16  16   1    5.33    1.95
 -16  16   1    5.44    1.92
  16 -16  -1    1.66    1.97
 -16  16   2   -0.25    0.65
 -16  16   2    2.73    1.71
 -16  16   3    0.56    1.63
 -16  16   3    0.56    1.52
 -16  16   4    1.45    1.92
 -16  16   4    2.83    2.06
 -16  16   5    0.01    1.59
 -16  16   5   -0.31    1.96
 -16  16   6    1.48    1.79
 -16  16   6    4.29    2.22
 -16  16   7    7.08    2.16
 -16  16   7    9.59    2.27
 -16  16   8    1.43    2.16
 -16  16   8   -0.20    2.13
 -16  16   9   -1.47    2.13
 -16  16   9    0.47    2.11
 -17  17  -8    0.23    1.77
  17 -17   8    0.06    2.42
 -17  17  -7    0.30    1.77
  17 -17   7   -4.05    1.75
 -17  17  -6    4.15    2.08
  17 -17   6    7.13    2.64
 -17  17  -5   -0.26    1.76
  17 -17   5    1.55    2.22
 -17  17  -4   -1.33    1.62
  17 -17   4   -3.34    2.07
 -17  17  -3    9.11    2.32
  17 -17   3    7.82    2.47
 -17  17  -2    3.68    1.93
  17 -17   2   -1.11    1.94
 -17  17  -1   -0.34    1.75
  17 -17   1   -0.40    0.71
 -17  17   0   -0.89    2.03
  17 -17   0   -1.61    1.75
 -17  17   1    0.78    1.89
 -17  17   1   -1.82    1.64
 -17  17   2    1.22    1.80
 -17  17   2   -1.66    1.27
 -17  17   3    9.75    2.45
 -17  17   3    7.30    2.15
 -17  17   4    2.70    1.92
 -17  17   4   -0.49    1.66
 -17  17   5   -0.32    1.67
 -17  17   5   -0.57    2.03
 -17  17   6    8.89    2.54
 -17  17   6    7.19    2.46
 -17  17   7    1.37    1.92
 -17  17   7   -0.37    1.74
 -17  17   8    0.97    2.12
 -17  17   8   -0.85    1.84
 -18  18  -7    1.67    1.97
  18 -18   7   -3.13    1.82
 -18  18  -6   -0.94    1.67
  18 -18   6    0.62    2.31
 -18  18  -5    2.90    2.09
  18 -18   5    3.85    2.20
 -18  18  -4   -0.22    2.13
  18 -18   4    0.49    1.99
 -18  18  -3    0.78    2.15
  18 -18   3    4.99    2.43
 -18  18  -2    7.17    2.22
  18 -18   2    3.28    2.29
 -18  18  -1    4.70    2.05
  18 -18   1    0.12    1.37
 -18  18   0    2.92    2.06
 -18  18   1    7.37    2.61
 -18  18   2    4.85    2.43
 -18  18   2    5.45    2.20
 -18  18   3    1.04    1.80
 -18  18   3    0.92    2.08
 -18  18   4    0.38    1.78
 -18  18   4    5.97    2.33
 -18  18   5    8.54    2.51
 -18  18   5    9.14    2.56
 -18  18   6   -1.94    1.73
 -18  18   6    3.19    1.96
 -18  18   7    2.55    2.35
 -18  18   7    3.06    2.28
 -19  19  -5    0.09    1.98
  19 -19   5    0.97    2.15
 -19  19  -4    5.33    2.27
  19 -19   4    9.73    2.59
 -19  19  -3    1.95    1.97
  19 -19   3   -0.07    2.20
 -19  19  -2    1.12    2.23
  19 -19   2    0.15    2.25
 -19  19  -1    3.27    2.05
 -19  19   0    9.18    2.42
 -19  19   1    1.91    2.29
 -19  19   2    0.34    1.90
 -19  19   3    0.60    1.91
 -19  19   3    0.13    1.47
 -19  19   4    8.64    2.30
 -19  19   4    5.94    2.49
 -19  19   5   -2.52    2.15
 -19  19   5    5.80    2.47
 -20  20   0    3.00    2.11
 -20  19   3    2.24    2.01
 -20  19   2   -2.14    1.82
 -20  19   1    3.07    2.19
 -20  19   0   -0.49    2.35
 -20  19  -1    3.65    2.15
 -20  19  -2    1.82    1.99
  20 -19   3   -2.57    2.20
 -20  19  -3    2.90    2.42
 -19  18   6    2.37    1.94
 -19  18   6    7.69    2.63
 -19  18   5    4.45    2.12
 -19  18   5    3.70    2.28
 -19  18   4   -1.22    1.68
 -19  18   4    3.54    2.09
 -19  18   3    1.07    1.17
 -19  18   3    6.53    2.19
 -19  18   2   -3.51    1.61
 -19  18   1    1.53    2.04
 -19  18   0   11.42    2.86
 -19  18  -1    1.62    2.32
  19 -18   2    0.36    2.04
 -19  18  -2    1.83    2.20
  19 -18   3    5.30    2.38
 -19  18  -3    9.24    2.66
  19 -18   4    2.34    2.02
 -19  18  -4    2.01    2.25
  19 -18   5    5.45    2.14
 -19  18  -5    8.82    2.42
  19 -18   6    2.52    2.12
 -19  18  -6   -0.30    1.82
 -18  17   7    0.90    1.86
 -18  17   7    2.68    2.29
 -18  17   6    0.82    1.81
 -18  17   6   -0.38    1.81
 -18  17   5   -2.80    1.93
 -18  17   5    5.36    2.15
 -18  17   4    2.84    1.94
 -18  17   4    2.02    1.75
 -18  17   3    1.43    1.95
 -18  17   3    1.92    1.37
 -18  17   2    7.77    2.23
 -18  17   2    8.65    2.54
 -18  17   1    0.99    2.27
 -18  17   0   -0.36    1.80
  18 -17   1   -2.74    1.70
 -18  17  -1   -0.02    1.79
  18 -17   2    7.71    2.09
 -18  17  -2    9.60    2.39
  18 -17   3    5.98    2.30
 -18  17  -3    4.60    2.10
  18 -17   4   -0.31    2.06
 -18  17  -4    4.06    2.00
  18 -17   5    0.99    1.90
 -18  17  -5    0.70    1.91
  18 -17   6    2.88    2.02
 -18  17  -6    2.98    1.95
  18 -17   7   -1.37    2.30
 -18  17  -7    3.85    2.13
 -17  16   9    0.88    1.89
 -17  16   9   -0.49    2.28
 -17  16   8    1.52    1.77
 -17  16   8   -0.09    2.10
 -17  16   7    4.38    2.07
 -17  16   7    1.09    1.80
 -17  16   6    5.61    2.37
 -17  16   6    4.22    1.94
 -17  16   5    0.16    1.80
 -17  16   5   -0.07    1.98
 -17  16   4    6.59    2.38
 -17  16   4    5.36    1.85
 -17  16   3    3.79    1.89
 -17  16   3    4.89    2.30
 -17  16   2   -0.61    1.77
 -17  16   2    1.59    1.79
 -17  16   1    1.65    1.81
 -17  16   1    0.79    1.65
  17 -16   0   -5.01    1.44
 -17  16   0   -2.53    1.66
  17 -16   1    0.01    1.44
 -17  16  -1   -0.11    1.77
  17 -16   2   -0.37    1.87
 -17  16  -2   -0.67    1.68
  17 -16   3    4.22    2.08
 -17  16  -3    2.49    1.85
  17 -16   4    4.98    1.97
 -17  16  -4    5.74    2.10
  17 -16   5   -1.33    2.01
 -17  16  -5    1.59    1.83
  17 -16   6    5.43    2.47
 -17  16  -6    4.31    2.14
  17 -16   7    2.32    1.99
 -17  16  -7    1.72    2.27
  17 -16   8   -3.39    1.70
 -17  16  -8    1.14    1.92
  17 -16   9   -1.33    1.90
 -17  16  -9    0.55    1.91
 -16  15  10    0.67    2.30
 -16  15  10    0.43    2.26
 -16  15   9    1.93    1.89
 -16  15   9   -3.10    1.62
 -16  15   8   10.14    2.58
 -16  15   8    2.25    1.95
 -16  15   7    7.51    2.10
 -16  15   7   10.61    2.30
 -16  15   6    0.49    1.59
 -16  15   6    1.79    1.78
 -16  15   5    1.17    2.10
 -16  15   5    0.88    1.83
 -16  15   4    0.32    2.06
 -16  15   4    2.03    1.86
 -16  15   3    2.02    1.47
 -16  15   3    0.44    1.66
 -16  15   2    1.05    1.32
 -16  15   2   -0.12    1.66
  16 -15  -1   11.20    2.15
 -16  15   1   12.51    2.55
 -16  15   1   12.82    2.13
  16 -15   0    3.45    1.70
 -16  15   0    5.70    1.84
 -16  15   0    6.73    2.03
 -16  15  -1    9.52    2.26
  16 -15   2   -0.05    1.49
 -16  15  -2    0.52    1.70
  16 -15   3    0.39    1.54
 -16  15  -3   -1.15    1.56
  16 -15   4    3.18    1.99
 -16  15  -4   -1.95    1.51
  16 -15   5    0.44    1.64
 -16  15  -5    3.57    1.89
  16 -15   6   -1.50    1.60
 -16  15  -6    1.33    1.77
  16 -15   7   10.40    2.39
 -16  15  -7   10.40    2.41
  16 -15   8    2.85    2.04
 -16  15  -8    8.57    2.42
  16 -15   9    1.08    1.95
 -16  15  -9   -1.17    1.71
  16 -15  10    4.11    2.23
 -15  14  11    0.12    1.95
 -15  14  10    0.03    2.12
 -15  14  10   -2.17    1.70
 -15  14   9    8.97    2.46
 -15  14   9    3.08    1.99
 -15  14   8    6.90    2.41
 -15  14   8    5.10    2.02
 -15  14   7   12.15    2.60
 -15  14   7    9.50    2.17
 -15  14   6    0.13    1.56
 -15  14   6    0.94    1.72
 -15  14   5    4.75    1.73
 -15  14   5    3.14    1.83
 -15  14   4    5.42    1.95
 -15  14   4    2.35    2.06
 -15  14   3    0.38    2.00
 -15  14   3    1.96    1.46
  15 -14  -2   -1.33    1.35
 -15  14   2    0.12    0.67
 -15  14   2    1.36    1.99
  15 -14  -1   31.08    2.64
 -15  14   1   36.59    3.26
 -15  14   1   29.74    2.75
  15 -14   0   34.37    2.84
 -15  14   0   37.17    3.31
 -15  14   0   31.84    2.77
 -15  14  -1   34.79    3.36
 -15  14  -1   34.95    2.88
  15 -14   2   -1.13    1.66
 -15  14  -2    0.14    1.67
  15 -14   3    1.25    1.83
 -15  14  -3    1.64    1.70
  15 -14   4    3.10    1.59
 -15  14  -4    1.11    1.74
  15 -14   5    4.54    1.98
 -15  14  -5    0.84    1.67
  15 -14   6   -3.03    1.48
 -15  14  -6    1.50    1.72
  15 -14   7    7.92    2.14
 -15  14  -7   11.63    2.40
  15 -14   8    8.49    2.55
 -15  14  -8   13.11    2.64
  15 -14   9    4.29    2.18
 -15  14  -9    4.08    2.07
  15 -14  10    0.47    2.31
  15 -14  11   -0.01    1.97
 -14  13  12    4.19    2.16
 -14  13  11    2.30    1.97
 -14  13  11    4.78    2.28
 -14  13  10    0.35    1.76
 -14  13  10    4.26    2.04
 -14  13   9   -0.82    1.68
 -14  13   9   -0.30    1.71
 -14  13   8    7.58    2.29
 -14  13   8    2.61    1.88
 -14  13   7   -2.00    1.45
 -14  13   7   -1.14    1.57
 -14  13   6   26.67    2.77
 -14  13   6   35.53    3.31
 -14  13   5    1.89    1.58
 -14  13   5    1.16    1.70
 -14  13   4   -1.00    1.60
 -14  13   4   -2.34    1.30
  14 -13  -3   -0.89    1.43
 -14  13   3    3.18    1.77
 -14  13   3    3.19    2.10
  14 -13  -2   24.85    2.21
 -14  13   2   22.54    2.66
  14 -13  -1    0.96    1.39
 -14  13   1   -1.43    1.85
 -14  13   1    2.43    1.56
  14 -13   0   53.59    3.20
 -14  13   0   53.12    3.49
 -14  13   0   51.56    3.11
  14 -13   1    1.40    1.06
 -14  13  -1    1.24    1.67
 -14  13  -1    1.84    1.46
  14 -13   2   23.51    2.51
 -14  13  -2   23.95    2.82
 -14  13  -2   22.04    2.28
  14 -13   3    2.36    1.53
 -14  13  -3    0.91    1.63
  14 -13   4   -0.56    1.50
 -14  13  -4    0.27    1.58
  14 -13   5    3.00    1.70
 -14  13  -5    0.32    1.61
  14 -13   6   26.92    2.84
 -14  13  -6   35.68    3.30
  14 -13   7   -0.32    1.94
 -14  13  -7   -2.19    1.49
  14 -13   8    6.40    2.07
 -14  13  -8    6.00    2.04
  14 -13   9   -0.13    1.81
 -14  13  -9   -1.01    1.69
  14 -13  10    0.90    1.93
  14 -13  11    0.46    1.97
  14 -13  12    2.11    2.14
 -13  12  12    1.80    2.15
 -13  12  12    2.80    1.97
 -13  12  11    2.21    1.87
 -13  12  11   -1.33    1.64
 -13  12  10    0.48    1.66
 -13  12  10    4.03    2.26
 -13  12   9    2.55    2.05
 -13  12   9   -0.81    1.54
 -13  12   8    6.78    1.97
 -13  12   8    6.57    2.01
 -13  12   7   13.82    2.48
 -13  12   7   13.91    2.23
 -13  12   6    3.53    1.71
 -13  12   6    0.57    1.65
 -13  12   5    9.04    2.09
 -13  12   5   10.33    1.89
 -13  12   4    9.94    2.02
 -13  12   4    6.19    1.90
  13 -12  -3    0.33    1.30
 -13  12   3    2.52    1.36
 -13  12   3    2.15    1.98
  13 -12  -2    3.01    1.42
 -13  12   2    6.37    1.84
 -13  12   2    4.01    1.19
  13 -12  -1   29.55    2.33
 -13  12   1   29.04    2.74
 -13  12   1   27.62    2.37
  13 -12   0   45.36    2.79
 -13  12   0   41.24    3.08
 -13  12   0   44.96    2.85
  13 -12   1   24.93    2.30
 -13  12  -1   32.94    2.35
 -13  12  -1   28.00    2.78
  13 -12   2    3.76    1.41
 -13  12  -2    4.90    1.78
 -13  12  -2    4.32    1.46
  13 -12   3    4.21    1.54
 -13  12  -3    3.61    1.30
 -13  12  -3    4.05    1.72
  13 -12   4   10.63    2.13
 -13  12  -4    8.74    2.00
  13 -12   5    5.61    1.81
 -13  12  -5    8.15    1.99
  13 -12   6    3.68    1.73
 -13  12  -6    2.24    1.96
  13 -12   7   13.74    2.28
 -13  12  -7   18.61    2.62
  13 -12   8    4.54    1.99
 -13  12  -8    4.63    1.93
  13 -12   9    2.63    1.88
 -13  12  -9   -0.87    1.55
  13 -12  10    2.77    2.01
  13 -12  11    4.28    2.13
  13 -12  12    4.11    2.26
 -12  11  13    3.07    2.01
 -12  11  12    3.11    1.88
 -12  11  12    2.66    2.21
 -12  11  11    5.17    2.20
 -12  11  11    3.23    1.89
 -12  11  10   -1.01    1.58
 -12  11  10   -0.71    1.61
 -12  11   9    2.72    1.97
 -12  11   9    1.27    1.65
 -12  11   8    6.03    1.92
 -12  11   8    5.06    1.78
 -12  11   7    4.40    1.70
 -12  11   7    3.78    1.81
 -12  11   6    0.52    1.93
 -12  11   6    0.52    1.48
 -12  11   5    6.75    1.83
 -12  11   5    6.57    1.66
  12 -11  -4    9.24    1.34
 -12  11   4    8.54    1.86
 -12  11   4    9.42    1.68
  12 -11  -3   37.81    2.33
 -12  11   3   40.41    2.91
 -12  11   3   38.38    2.53
  12 -11  -2    3.18    1.26
 -12  11   2    4.14    1.43
 -12  11   2    4.04    1.63
  12 -11  -1    6.59    1.43
 -12  11   1    7.67    1.50
 -12  11   1    5.32    1.66
  12 -11   0   52.07    2.79
 -12  11   0   49.67    2.76
 -12  11   0   53.97    3.43
  12 -11   1    6.81    1.50
 -12  11  -1    8.86    1.55
 -12  11  -1    7.39    1.76
  12 -11   2    5.11    1.39
 -12  11  -2    3.28    1.39
 -12  11  -2    5.98    1.74
  12 -11   3   38.98    2.61
 -12  11  -3   36.79    2.89
 -12  11  -3   35.01    2.12
  12 -11   4    9.09    1.73
 -12  11  -4    6.87    1.82
  12 -11   5    8.15    2.05
 -12  11  -5    5.85    1.80
  12 -11   6    0.60    1.57
 -12  11  -6    1.07    1.57
  12 -11   7    1.11    1.67
 -12  11  -7    1.34    1.98
  12 -11   8    4.17    1.85
 -12  11  -8    4.46    1.86
  12 -11   9    1.77    1.82
  12 -11  10   -1.23    1.67
  12 -11  11    2.41    1.96
  12 -11  12    2.88    2.10
  12 -11  13    1.20    2.08
 -11  10  13    1.63    2.12
 -11  10  13    1.37    1.78
 -11  10  12    3.99    2.23
 -11  10  12    1.88    1.82
 -11  10  11    0.04    1.61
 -11  10  11    3.35    2.11
 -11  10  10    9.86    2.10
 -11  10  10    9.98    2.35
 -11  10   9    4.63    2.11
 -11  10   9    6.05    1.89
 -11  10   8    2.54    1.69
 -11  10   8    5.03    2.10
 -11  10   7    3.37    1.68
 -11  10   7    7.51    2.18
 -11  10   6   20.20    2.57
 -11  10   6   15.94    2.13
  11 -10  -5   13.68    1.23
 -11  10   5   16.96    2.16
 -11  10   5   16.93    2.38
  11 -10  -4   88.86    3.31
 -11  10   4   85.73    4.13
 -11  10   4   80.25    3.86
  11 -10  -3   42.16    2.27
 -11  10   3   46.06    2.95
 -11  10   3   46.96    2.74
  11 -10  -2    6.79    1.22
 -11  10   2    7.17    1.67
 -11  10   2    5.13    1.35
  11 -10  -1   10.29    1.36
 -11  10   1   12.40    1.86
 -11  10   1    8.39    1.37
  11 -10   0    3.36    1.16
 -11  10   0    3.32    1.14
 -11  10   0    3.53    1.41
  11 -10   1    9.31    1.48
 -11  10  -1   10.28    1.70
 -11  10  -1    9.41    1.36
  11 -10   2    7.38    1.32
 -11  10  -2    6.05    1.23
 -11  10  -2    4.66    1.53
  11 -10   3   45.73    2.66
 -11  10  -3   44.96    2.25
 -11  10  -3   42.84    2.92
  11 -10   4   82.31    3.84
 -11  10  -4   78.02    4.04
  11 -10   5   12.17    1.89
 -11  10  -5   11.84    2.01
  11 -10   6   22.24    2.38
 -11  10  -6   17.13    2.26
  11 -10   7    4.37    1.79
 -11  10  -7    4.98    1.91
  11 -10   8    4.65    1.90
 -11  10  -8    2.24    1.74
  11 -10   9    5.76    1.99
  11 -10  10   10.11    2.22
  11 -10  11    0.07    1.81
  11 -10  12    5.04    2.13
  11 -10  13    4.32    2.20
 -10   9  14    4.83    2.09
 -10   9  13   -1.07    1.98
 -10   9  13    1.18    1.72
 -10   9  12   -0.32    2.01
 -10   9  12    1.02    1.39
 -10   9  11    1.73    1.67
 -10   9  11    2.26    1.97
 -10   9  10   40.63    3.37
 -10   9  10   33.86    3.17
 -10   9   9   12.92    2.40
 -10   9   9   12.55    2.23
 -10   9   8    3.95    1.99
 -10   9   8    2.29    1.65
 -10   9   7   39.69    2.90
 -10   9   7   42.45    3.19
 -10   9   6   27.56    2.72
 -10   9   6   32.00    2.61
  10  -9  -5    8.94    0.92
 -10   9   5    9.73    1.58
 -10   9   5    8.03    1.73
  10  -9  -4   78.79    2.98
 -10   9   4   75.60    3.53
 -10   9   4   80.32    3.95
  10  -9  -3   31.75    1.82
 -10   9   3   34.70    2.45
 -10   9   3   32.60    2.11
  10  -9  -2  168.48    5.77
 -10   9   2  178.61    6.19
 -10   9   2  179.10    6.52
  10  -9  -1   24.72    1.59
 -10   9   1   17.01    1.49
 -10   9   1   25.80    2.23
  10  -9   0    0.64    0.93
 -10   9   0    1.07    0.89
 -10   9   0   -0.27    1.10
  10  -9   1   25.20    1.87
 -10   9  -1   27.67    2.28
 -10   9  -1   28.46    1.74
  10  -9   2  175.60    6.08
 -10   9  -2  173.93    6.52
 -10   9  -2  165.48    5.81
  10  -9   3   31.02    2.32
 -10   9  -3   32.11    2.62
 -10   9  -3   33.11    1.76
  10  -9   4   77.56    3.62
 -10   9  -4   78.34    3.87
  10  -9   5    8.51    1.64
 -10   9  -5    9.58    1.77
  10  -9   6   28.42    2.56
 -10   9  -6   28.80    2.70
  10  -9   7   42.51    3.05
 -10   9  -7   40.59    3.37
  10  -9   8    4.52    1.82
 -10   9  -8    2.29    1.71
  10  -9   9   12.05    2.24
  10  -9  10   39.50    3.62
  10  -9  11    3.94    1.94
  10  -9  12    2.33    1.94
  10  -9  13    2.51    2.03
  10  -9  14    1.84    2.12
  -9   8  14    1.23    2.18
  -9   8  14    0.94    1.83
  -9   8  13    0.91    2.11
  -9   8  13   -1.36    1.62
  -9   8  12   12.06    2.44
  -9   8  11   21.10    2.67
  -9   8  10   -0.37    1.81
  -9   8   9   36.90    3.18
  -9   8   8   33.69    2.95
  -9   8   7   13.93    2.20
   9  -8  -6   11.92    0.72
  -9   8   6   13.71    1.88
   9  -8  -5   48.94    1.81
  -9   8   5   44.29    2.77
  -9   8   5   48.48    2.74
   9  -8  -4   15.83    1.22
  -9   8   4   14.82    1.62
  -9   8   4   17.52    1.89
   9  -8  -3  194.12    6.44
  -9   8   3  213.95    7.36
  -9   8   3  209.43    7.07
   9  -8  -2    6.35    0.97
  -9   8   2    6.39    1.10
  -9   8   2    9.11    1.48
   9  -8  -1   23.59    1.58
  -9   8   1   26.63    2.04
   9  -8   0  145.50    4.98
  -9   8   0  147.11    5.01
  -9   8   0  142.75    5.49
   9  -8   1   25.33    1.62
  -9   8  -1   22.45    1.54
  -9   8  -1   23.67    2.04
   9  -8   2    6.98    1.24
  -9   8  -2    4.79    1.02
  -9   8  -2    7.12    1.43
   9  -8   3  195.85    6.69
  -9   8  -3  193.39    7.03
   9  -8   4   13.51    1.63
  -9   8  -4   13.74    1.79
   9  -8   5   51.98    2.88
  -9   8  -5   48.77    2.95
   9  -8   6   16.30    1.93
  -9   8  -6   14.54    2.00
   9  -8   7   13.60    2.01
  -9   8  -7   11.54    1.98
   9  -8   8   27.64    2.69
   9  -8   9   28.28    2.85
   9  -8  10    6.00    1.97
   9  -8  11   21.33    2.76
   9  -8  12    8.69    2.25
   9  -8  13    1.41    1.85
   9  -8  14    0.55    1.93
  -8   7  15    0.65    1.85
  -8   7  14    5.67    2.07
  -8   7  13    2.79    2.15
  -8   7  12    1.06    1.97
  -8   7  11    1.40    1.93
  -8   7  10    8.13    2.21
  -8   7   9   19.83    2.31
  -8   7   8   16.03    2.22
   8  -7  -7   44.51    1.66
  -8   7   7   47.55    2.98
   8  -7  -6   14.37    0.77
  -8   7   6   15.72    1.84
   8  -7  -5   19.96    0.95
  -8   7   5   24.49    2.09
   8  -7  -4  174.67    5.49
  -8   7   4  180.00    6.39
   8  -7  -3   28.99    1.45
  -8   7   3   24.41    1.84
  -8   7   3   26.19    2.12
   8  -7  -2    7.13    0.92
  -8   7   2    6.01    0.99
  -8   7   2    7.91    1.37
   8  -7  -1  101.96    3.50
  -8   7   1   98.84    4.04
   8  -7   0   11.28    1.11
  -8   7   0   12.53    1.13
  -8   7   0   15.79    1.61
   8  -7   1  101.01    3.75
  -8   7  -1  105.02    3.62
  -8   7  -1  101.28    4.12
   8  -7   2    8.76    1.25
  -8   7  -2    7.12    1.31
  -8   7  -2    6.88    0.92
   8  -7   3   23.67    1.74
  -8   7  -3   28.35    2.02
   8  -7   4  182.38    6.29
  -8   7  -4  177.35    6.21
  -8   7  -4  180.60    6.58
   8  -7   5   23.54    2.01
  -8   7  -5   21.69    2.11
  -8   7  -5   20.99    1.90
  -8   7  -6   16.40    2.01
  -8   7  -6   13.09    1.69
  -8   7  -7   45.69    2.92
  -8   7  -7   42.85    2.71
  -8   7  -8   11.16    1.81
   8  -7   9   21.66    2.55
  -8   7  -9   19.35    2.30
   8  -7  10   13.41    2.29
  -8   7 -10   10.98    2.06
   8  -7  11    3.84    2.09
  -8   7 -11    2.42    1.58
   8  -7  12    0.89    2.00
   8  -7  13    2.22    1.93
   8  -7  14    4.67    2.13
   8  -7  15    1.02    1.93
  -7   6  15   -1.52    2.20
  -7   6  14    3.36    2.02
  -7   6  13    1.59    1.80
  -7   6  12    6.42    2.18
  -7   6  11   11.07    2.34
  -7   6  10    4.54    2.03
   7  -6  -9   34.03    1.70
  -7   6   9   33.53    2.89
   7  -6  -8   10.63    0.93
  -7   6   8    9.39    1.72
   7  -6  -7   43.76    1.70
  -7   6   7   46.16    2.86
   7  -6  -6    3.65    0.49
  -7   6   6    1.84    1.15
   7  -6  -5   99.21    3.16
  -7   6   5  107.91    4.24
   7  -6  -4   36.83    1.38
  -7   6   4   33.05    2.14
   7  -6  -3  144.54    4.50
  -7   6   3  140.07    5.21
   7  -6  -2    2.25    0.64
  -7   6   2    4.15    1.21
  -7   6   2    3.29    0.78
   7  -6  -1   59.80    2.22
  -7   6   1   57.31    2.71
   7  -6   0   74.01    2.88
  -7   6   0   86.23    2.96
  -7   6   0   86.93    3.41
   7  -6   1   51.73    2.30
  -7   6  -1   60.90    2.72
  -7   6  -1   61.93    2.27
   7  -6   2    4.59    0.98
  -7   6  -2    0.97    0.63
  -7   6  -2    2.07    0.79
  -7   6  -3  147.56    5.33
  -7   6  -3  140.37    4.96
  -7   6  -4   35.56    2.02
  -7   6  -4   37.44    2.23
  -7   6  -5  101.42    4.22
  -7   6  -5  101.03    4.00
  -7   6  -6    4.05    1.30
  -7   6  -6    3.92    1.16
  -7   6  -7   41.38    2.57
  -7   6  -8   11.48    1.74
  -7   6  -9   34.23    2.78
  -7   6 -10   -0.18    1.49
  -7   6 -11    8.92    1.94
   7  -6  12    3.52    1.76
  -7   6 -12    3.64    1.65
   7  -6  13    2.80    1.82
   7  -6  14    0.99    1.84
   7  -6  15    3.23    2.01
  -6   5  15   -2.13    2.05
  -6   5  14    4.14    1.94
  -6   5  13    1.99    2.08
  -6   5  12    4.97    2.08
  -6   5  11    5.90    1.80
   6  -5 -10   87.77    3.41
  -6   5  10   91.99    4.51
   6  -5  -9   23.63    1.52
  -6   5   9   23.37    2.34
   6  -5  -8    0.38    0.64
  -6   5   8    1.23    1.51
   6  -5  -7   70.88    2.53
  -6   5   7   75.03    3.54
   6  -5  -6  107.65    3.41
  -6   5   6  106.84    4.36
   6  -5  -5   69.96    2.30
  -6   5   5   74.27    3.25
   6  -5  -4  128.13    3.79
  -6   5   4  120.31    4.66
   6  -5  -3  178.11    5.55
  -6   5   3  190.80    6.35
   6  -5  -2  413.44   12.25
  -6   5   2  420.70   13.10
   6  -5  -1  135.43    4.24
  -6   5   1  131.53    4.76
   6  -5   0   12.01    0.93
  -6   5   0   12.72    1.35
  -6   5   0   12.36    0.94
   6  -5   1  125.42    4.37
  -6   5  -1  136.57    4.30
  -6   5  -1  136.59    4.78
  -6   5  -2  406.86   12.30
  -6   5  -2  407.42   12.41
  -6   5  -2  417.39   12.96
  -6   5  -3  177.99    6.21
  -6   5  -3  181.22    5.93
  -6   5  -4  128.91    4.60
  -6   5  -4  128.78    4.80
  -6   5  -5   64.17    2.94
  -6   5  -5   72.09    3.19
  -6   5  -6  105.18    4.19
  -6   5  -6  106.95    4.37
  -6   5  -7   68.82    3.26
  -6   5  -8    1.16    1.19
  -6   5  -9   25.80    2.42
  -6   5 -10   89.54    4.30
  -6   5 -11    7.72    2.04
  -6   5 -12    5.93    1.73
   6  -5  13    3.55    1.82
  -6   5 -13    1.55    1.80
   6  -5  14    1.17    1.77
   6  -5  15   -0.05    1.81
  -5   4  15    2.19    2.32
  -5   4  14    2.98    1.85
  -5   4  13    4.33    1.84
  -5   4  12    6.28    2.17
   5  -4 -11   31.38    2.08
  -5   4  11   33.58    3.09
   5  -4 -10   35.97    2.10
  -5   4  10   38.68    2.77
   5  -4  -9   54.22    2.41
  -5   4   9   55.05    3.29
   5  -4  -8   14.65    1.13
  -5   4   8   17.76    2.05
   5  -4  -7   87.10    3.03
  -5   4   7   88.99    3.86
   5  -4  -6    6.76    0.69
  -5   4   6    5.02    1.33
   5  -4  -5  102.00    3.17
  -5   4   5   99.01    3.91
   5  -4  -4  310.57    8.72
  -5   4   4  283.05    9.55
   5  -4  -3  357.25   10.22
  -5   4   3  343.45   11.09
   5  -4  -2  155.93    4.84
  -5   4   2  166.24    5.54
   5  -4  -1  246.11    7.27
  -5   4   1  240.45    7.86
   5  -4   0    6.62    0.75
  -5   4   0    7.74    1.19
  -5   4   0    8.38    0.80
  -5   4  -1  253.49    7.57
  -5   4  -1  249.71    7.61
  -5   4  -1  242.59    8.02
  -5   4  -2  156.52    5.38
  -5   4  -2  157.07    5.10
  -5   4  -3  344.48   10.55
  -5   4  -3  344.15   10.93
  -5   4  -4  302.01    9.78
  -5   4  -4  302.52    9.46
  -5   4  -5  100.92    3.97
  -5   4  -5   98.07    3.78
  -5   4  -6    4.83    1.08
  -5   4  -7   80.83    3.50
  -5   4  -8   16.61    1.81
  -5   4  -9   52.05    3.00
  -5   4 -10   34.97    2.67
  -5   4 -11   31.36    2.81
  -5   4 -12    5.56    1.72
  -5   4 -13    6.68    1.81
   5  -4  14    1.04    1.61
  -5   4 -14   -1.40    1.40
   5  -4  15    3.39    2.15
  -4   3  16    0.45    2.30
  -4   3  15    4.40    2.31
  -4   3  14    0.38    1.97
  -4   3  13   -0.50    1.86
   4  -3 -12   28.14    2.19
  -4   3  12   25.91    2.94
   4  -3 -11   48.57    2.64
  -4   3  11   49.18    3.52
   4  -3 -10   24.32    1.85
  -4   3  10   21.61    2.54
   4  -3  -9   86.78    3.32
  -4   3   9   81.48    3.92
   4  -3  -8   77.18    2.97
  -4   3   8   80.85    3.61
   4  -3  -7   23.99    1.35
  -4   3   7   25.41    2.09
   4  -3  -6    6.98    0.75
  -4   3   6    7.48    1.34
   4  -3  -5  127.59    4.01
  -4   3   5  130.29    4.69
   4  -3  -4  182.58    5.43
  -4   3   4  181.74    6.11
   4  -3  -3  730.66   20.90
  -4   3   3  708.83   21.80
   4  -3  -2  199.34    5.98
  -4   3   2  208.85    6.63
   4  -3  -1  146.48    4.48
  -4   3   1  153.16    5.02
  -4   3   0   15.50    0.77
  -4   3   0   13.52    1.10
  -4   3   0   12.84    0.76
  -4   3  -1  145.87    4.52
  -4   3  -1  136.83    4.78
  -4   3  -1  147.26    4.39
  -4   3  -2  202.17    6.24
  -4   3  -2  196.34    6.50
  -4   3  -3  730.74   21.57
  -4   3  -3  732.70   22.19
  -4   3  -4  185.44    6.04
  -4   3  -4  183.71    6.25
  -4   3  -5  124.02    4.42
  -4   3  -6    5.73    1.11
  -4   3  -7   23.99    1.79
  -4   3  -8   70.73    3.28
  -4   3  -9   82.54    3.78
  -4   3 -10   23.55    2.44
  -4   3 -11   45.48    3.24
  -4   3 -12   23.84    2.50
  -4   3 -13    4.20    1.65
  -4   3 -14   -1.16    1.62
   4  -3  15    2.99    1.96
  -4   3 -15    1.40    1.57
   4  -3  16   -0.10    1.65
  -3   2  16    2.24    2.29
  -3   2  15    0.60    1.73
  -3   2  14   -0.60    1.91
   3  -2 -13   21.47    2.13
  -3   2  13   21.14    2.20
  -3   2  13   21.13    2.82
   3  -2 -12   -0.16    1.22
  -3   2  12   -1.64    1.82
   3  -2 -11   17.37    1.80
  -3   2  11   15.38    2.28
   3  -2 -10   35.40    2.12
  -3   2  10   32.99    2.64
   3  -2  -9    2.69    1.03
  -3   2   9    3.60    1.62
   3  -2  -8   16.89    1.34
  -3   2   8   15.39    1.79
   3  -2  -7  115.16    3.92
  -3   2   7  111.95    4.45
   3  -2  -6    1.29    0.54
  -3   2   6    1.19    0.92
   3  -2  -5    6.24    0.68
  -3   2   5    4.63    0.96
   3  -2  -4   36.99    1.36
  -3   2   4   35.25    1.89
   3  -2  -3   40.23    1.44
  -3   2   3   53.47    2.07
  -3   2   2  451.81   13.76
   3  -2  -1  102.15    2.87
  -3   2   1   88.00    3.24
  -3   2   0  103.98    3.12
  -3   2   0   99.38    3.37
  -3   2  -1  103.63    3.48
  -3   2  -1  104.66    3.30
  -3   2  -1  103.61    3.14
  -3   2  -2  466.20   14.41
  -3   2  -2  483.47   14.02
  -3   2  -3   40.11    1.78
  -3   2  -3   39.94    1.84
  -3   2  -4   34.66    1.75
  -3   2  -4   35.18    1.72
  -3   2  -5    4.35    0.89
  -3   2  -6    0.33    0.90
  -3   2  -7  113.37    4.30
  -3   2  -8   15.17    1.61
  -3   2  -9    2.22    1.18
  -3   2 -10   31.54    2.38
  -3   2 -11   18.04    2.12
  -3   2 -12    1.05    1.57
  -3   2 -13   21.96    2.57
  -3   2 -14   -0.97    1.29
   3  -2  15   -0.63    1.68
  -3   2 -15    1.71    1.53
   3  -2  16    0.18    1.85
  -2   1  16   -0.61    2.09
  -2   1  15    2.33    1.93
  -2   1  14   30.67    3.22
  -2   1  14   35.07    2.96
   2  -1 -13    2.82    1.37
  -2   1  13    2.85    1.50
  -2   1  13    0.15    1.85
   2  -1 -12    0.56    1.21
  -2   1  12    2.84    1.63
   2  -1 -11    2.61    1.25
  -2   1  11   -0.01    1.80
   2  -1 -10    0.23    1.03
  -2   1  10   -0.91    1.58
   2  -1  -9    0.67    0.92
  -2   1   9    2.08    1.32
   2  -1  -8   27.46    1.67
   2  -1  -7   18.95    1.30
   2  -1  -6  405.36   12.18
   2  -1  -5    8.65    0.83
  -2   1   5    8.89    1.12
   2  -1  -4  226.58    6.79
  -2   1   4  224.13    7.28
   2  -1  -3   87.74    2.70
  -2   1   3   83.22    3.11
   2  -1  -2    8.35    0.36
  -2   1   2    8.50    0.66
  -2   1   1  146.30    4.62
  -2   1   0  559.25   16.11
  -2   1   0  553.03   16.61
  -2   1  -1  146.11    4.29
  -2   1  -1  135.38    4.41
  -2   1  -2    8.34    0.59
  -2   1  -2    8.37    0.60
  -2   1  -3   82.73    2.97
  -2   1  -3   84.28    2.91
  -2   1  -4  222.82    6.99
  -2   1  -5    7.69    1.00
  -2   1  -6  425.02   13.03
  -2   1  -7   18.59    1.58
  -2   1  -8   31.01    1.97
  -2   1  -9   -0.32    0.98
  -2   1 -10    1.18    1.14
  -2   1 -11    1.74    1.29
  -2   1 -12    2.31    1.35
  -2   1 -13    1.91    1.35
  -2   1 -14   33.04    2.95
  -2   1 -15    3.32    1.58
   2  -1  16    2.46    1.91
  -1   0  16    1.36    1.88
  -1   0  15    5.53    2.32
  -1   0  14    4.02    1.78
  -1   0  14    5.72    1.99
  -1   0  13   39.54    2.94
   1   0 -12    5.14    1.36
   1   0 -11    6.75    1.15
   1   0 -10   -0.03    0.67
   1   0  -9    1.10    0.66
   1   0  -6   17.65    1.13
   1   0  -5   68.84    2.51
   1   0  -4    9.81    0.81
   1   0  -3    8.15    0.62
   1   0  -2   56.27    1.80
  -1   0   1  949.90   28.71
  -1   0   1  944.71   27.59
  -1   0   0   -0.14    0.04
   1   0   1 1000.00   28.90
  -1   0  -1  945.85   28.59
  -1   0  -2   58.77    2.00
  -1   0  -3    9.77    0.81
  -1   0  -4    8.53    0.87
  -1   0  -5   88.09    3.23
  -1   0  -6   28.74    1.60
  -1   0  -7  259.26    8.34
  -1   0  -8   73.08    3.13
  -1   0  -9    4.51    1.29
  -1   0 -10    0.80    1.08
  -1   0 -11   20.82    2.23
  -1   0 -12    7.96    1.59
  -1   0 -13   36.41    3.03
  -1   0 -14    5.41    1.57
  -1   0 -15    5.97    1.88
   1   0  16    1.77    1.75
   1   0  16    2.85    2.09
  -1   0 -16    1.86    1.45
   0  -1  16    0.61    1.74
   0  -1  15    9.95    2.01
   0  -1  14    2.75    1.81
   0  -1  13   37.18    3.04
   0   1 -12   11.43    1.72
   0  -1  12    6.80    1.81
   0   1 -11   17.74    1.93
   0   1 -10   -0.84    0.95
   0   1  -9    4.40    1.22
   0   1  -8   77.59    3.20
   0   1  -7  263.96    8.43
   0   1  -6   26.35    1.56
   0   1  -5   88.07    3.16
   0   1  -4   10.06    0.87
   0   1  -3    9.83    0.80
   0  -1   2   55.21    1.86
   0  -1   1  920.07   27.10
   0  -1   0   -0.27    0.05
   0   1   1  965.95   26.93
   0  -1  -1  829.87   26.48
   0  -1  -2   48.00    1.64
   0  -1  -3    7.96    0.65
   0  -1  -4   11.58    1.00
   0  -1  -5   82.49    2.97
   0  -1  -6   26.40    1.54
   0  -1  -7  262.75    8.39
   0  -1  -8   79.66    3.30
   0  -1  -9    2.89    0.99
   0  -1 -10    0.40    1.12
   0  -1 -11   19.07    2.06
   0  -1 -12    7.26    1.65
   0  -1 -13   35.05    2.83
   0   1  14    6.38    2.06
   0  -1 -14    5.71    1.54
   0   1  15    5.62    2.12
   0  -1 -15    2.90    1.30
   0   1  16   -0.18    1.67
   1  -2  16    0.80    1.90
   1  -2  15    1.98    1.66
   1  -2  14   40.77    3.47
   1  -2  13   -0.08    1.61
  -1   2 -12    1.39    1.28
   1  -2  12    4.35    1.58
  -1   2 -11    3.54    1.32
  -1   2 -10   -0.33    1.22
  -1   2  -9    0.68    1.17
  -1   2  -8   33.84    2.13
  -1   2  -7   17.99    1.59
  -1   2  -6  408.78   12.49
  -1   2  -5    9.33    0.99
  -1   2  -4  227.82    7.11
  -1   2  -3   82.39    2.83
   1  -2   3   81.57    2.88
   1  -2   2    8.15    0.59
  -1   2  -1  149.14    4.53
   1  -2   1  139.38    4.39
  -1   2   0  562.56   16.35
  -1   2   0  541.54   16.51
   1  -2   0  554.32   16.04
  -1   2   1  144.91    4.45
  -1   2   1  141.47    4.37
  -1   2   2    8.55    0.62
  -1   2   2    8.35    0.52
   1  -2  -2    6.26    0.46
  -1   2   3   85.31    2.80
   1  -2  -3   75.78    2.65
   1  -2  -4  186.84    5.80
   1  -2  -5    6.77    0.77
   1  -2  -7    8.49    0.96
   1  -2  -9    0.32    0.64
   1  -2 -10    0.78    0.80
  -1   2  11    1.36    1.63
   1  -2 -11    2.20    1.05
  -1   2  12    1.71    1.47
   1  -2 -12    0.71    1.14
  -1   2  13    2.94    1.58
   1  -2 -13    1.74    1.28
  -1   2  14   32.28    3.25
   1  -2 -14   36.42    2.98
  -1   2  15    1.00    2.06
   1  -2 -15    0.02    1.44
  -1   2  16    2.84    1.91
   2  -3  16    2.61    1.99
   2  -3  15    1.93    1.92
   2  -3  14    1.16    1.58
   2  -3  13   20.58    2.46
   2  -3  12   -0.20    1.36
  -2   3 -11   15.68    2.08
   2  -3  11   15.48    2.25
  -2   3 -10   33.73    2.64
  -2   3  -9    3.02    1.30
  -2   3  -8   14.72    1.53
  -2   3  -7  113.16    4.30
  -2   3  -6    0.14    0.75
  -2   3  -5    5.13    0.88
  -2   3  -4   35.65    1.72
   2  -3   4   36.08    1.76
   2  -3   3   40.13    1.80
  -2   3  -2  448.12   13.84
   2  -3   2  460.75   13.45
  -2   3  -1   90.61    3.21
   2  -3   1  103.88    3.16
  -2   3   0   97.91    3.20
  -2   3   0   99.98    3.22
   2  -3   0  100.67    3.15
  -2   3   1  100.77    3.28
  -2   3   1  103.25    3.33
  -2   3   2  489.03   14.30
  -2   3   2  477.34   14.29
   2  -3  -2  459.98   13.92
  -2   3   3   40.65    1.86
   2  -3  -3   52.00    1.80
  -2   3   4   34.27    1.63
   2  -3  -4   36.06    1.49
  -2   3   5    5.52    0.90
   2  -3  -5    4.90    0.69
  -2   3   6   -0.24    0.70
   2  -3  -6    1.45    0.63
  -2   3   7  113.27    4.23
   2  -3  -7  111.09    3.95
  -2   3   8   14.97    1.69
   2  -3  -8   14.51    1.37
  -2   3   9   -0.21    1.29
   2  -3  -9    3.00    1.03
  -2   3  10   35.19    2.64
   2  -3 -10   30.19    2.11
  -2   3  11   18.21    2.16
   2  -3 -11   18.31    1.86
  -2   3  12   -1.66    1.64
   2  -3 -12    1.63    1.22
  -2   3  13   17.92    2.37
   2  -3 -13   19.77    2.12
  -2   3  14    0.07    1.84
   2  -3 -14    0.77    1.44
  -2   3  15    1.99    1.93
  -2   3  16    0.61    1.90
   3  -4  16   -0.98    1.59
   3  -4  15    0.81    1.96
   3  -4  14   -2.50    1.76
   3  -4  13    4.73    1.75
   3  -4  12   30.27    3.05
   3  -4  11   52.10    3.32
  -3   4 -10   20.53    2.14
   3  -4  10   23.81    2.37
  -3   4  -9   89.18    3.96
   3  -4   9   93.11    4.09
  -3   4  -8   80.87    3.47
   3  -4   8   74.75    3.50
  -3   4  -7   25.40    1.94
   3  -4   7   25.78    1.90
  -3   4  -6    6.44    1.10
   3  -4   6    5.59    1.09
  -3   4  -5  128.29    4.44
   3  -4   5  122.70    4.45
   3  -4   4  177.63    5.86
  -3   4  -3  711.07   21.88
   3  -4   3  730.74   21.28
  -3   4  -2  203.24    6.47
   3  -4   2  195.02    6.25
  -3   4  -1  151.20    4.58
  -3   4  -1  118.22    4.40
   3  -4   1  144.54    4.42
  -3   4   0   12.60    0.87
  -3   4   0   14.33    0.93
   3  -4   0   12.80    0.84
  -3   4   1  139.66    4.45
  -3   4   1  142.56    4.45
   3  -4  -1  128.23    4.30
  -3   4   2  204.19    6.35
  -3   4   2  190.85    6.35
   3  -4  -2  203.69    6.16
  -3   4   3  737.90   21.65
  -3   4   3  716.90   21.64
   3  -4  -3  706.91   21.00
  -3   4   4  183.87    6.08
   3  -4  -4  188.74    5.79
  -3   4   5  120.96    4.40
   3  -4  -5  131.88    4.15
  -3   4   6    5.45    1.07
   3  -4  -6    5.81    0.83
  -3   4   7   24.75    1.78
   3  -4  -7   23.72    1.41
  -3   4   8   77.64    3.42
   3  -4  -8   81.21    3.10
  -3   4   9   88.99    3.99
   3  -4  -9   89.77    3.57
  -3   4  10   24.27    2.41
   3  -4 -10   22.79    1.91
  -3   4  11   49.27    3.24
   3  -4 -11   47.86    2.62
  -3   4  12   30.42    2.88
   3  -4 -12   23.56    2.13
  -3   4  13    3.83    1.65
   3  -4 -13    2.61    1.21
  -3   4  14   -0.21    1.79
  -3   4  15    2.66    1.99
  -3   4  15    4.00    1.88
  -3   4  16    0.62    2.02
   4  -5  15    6.44    2.32
   4  -5  14    0.37    1.97
   4  -5  13    3.10    1.76
   4  -5  12    6.60    1.91
   4  -5  11   33.24    3.00
   4  -5  10   37.53    2.99
   4  -5   9   47.54    2.96
   4  -5   8   15.79    1.87
   4  -5   7   87.32    3.74
   4  -5   6    7.93    1.29
   4  -5   5   98.91    3.82
  -4   5  -4  278.68    9.39
   4  -5   4  299.83    9.15
  -4   5  -3  339.36   10.74
   4  -5   3  336.21   10.39
  -4   5  -2  165.24    5.35
   4  -5   2  148.34    5.11
  -4   5  -1  238.44    7.54
  -4   5  -1  240.93    7.71
   4  -5   1  243.36    7.45
  -4   5   0    6.90    0.94
  -4   5   0    6.75    0.85
   4  -5   0    6.39    0.83
  -4   5   1  241.58    7.39
  -4   5   1  237.16    7.43
   4  -5  -1  223.26    7.16
  -4   5   2  150.85    5.24
  -4   5   2  156.86    5.22
   4  -5  -2  166.03    5.06
  -4   5   3  359.59   11.06
  -4   5   3  354.89   11.03
   4  -5  -3  349.16   10.62
  -4   5   4  302.17    9.58
  -4   5   4  311.72    9.72
   4  -5  -4  298.28    9.15
  -4   5   5   94.46    3.66
   4  -5  -5   99.11    3.30
  -4   5   6    5.36    1.14
   4  -5  -6    6.35    0.85
  -4   5   7   82.49    3.48
   4  -5  -7   83.01    3.06
  -4   5   8   19.16    1.86
   4  -5  -8   15.46    1.34
  -4   5   9   51.08    2.97
   4  -5  -9   53.37    2.48
  -4   5  10   41.04    2.84
   4  -5 -10   39.05    2.17
  -4   5  11   31.31    2.81
   4  -5 -11   30.61    2.17
  -4   5  12    6.85    1.92
   4  -5 -12    6.64    1.39
  -4   5  13    2.40    1.89
  -4   5  14   -0.29    1.53
  -4   5  14   -0.95    1.73
  -4   5  15    3.02    1.86
   5  -6  15   -0.30    1.72
   5  -6  14    2.49    2.15
   5  -6  13    4.12    1.89
   5  -6  12    3.05    1.77
   5  -6  11    8.36    2.20
   5  -6  10   95.19    4.59
   5  -6   9   24.38    2.43
   5  -6   8   -1.18    1.21
   5  -6   7   67.98    3.32
   5  -6   6  108.45    4.31
  -5   6  -5   72.25    3.18
   5  -6   5   67.03    3.05
  -5   6  -4  113.56    4.50
   5  -6   4  124.22    4.38
  -5   6  -3  189.11    6.30
   5  -6   3  175.77    6.03
  -5   6  -2  412.03   12.92
  -5   6  -2  410.58   12.59
   5  -6   2  414.61   12.54
  -5   6  -1  129.55    4.42
  -5   6  -1  127.82    4.59
   5  -6   1  133.86    4.45
  -5   6   0   12.31    1.17
   5  -6   0   14.52    1.20
  -5   6   1  132.75    4.55
  -5   6   1  136.41    4.67
   5  -6  -1  133.39    4.43
  -5   6   2  412.32   12.72
  -5   6   2  411.17   12.78
   5  -6  -2  412.68   12.35
  -5   6   3  178.88    6.12
  -5   6   3  186.06    6.12
   5  -6  -3  182.51    5.80
  -5   6   4  132.83    4.58
  -5   6   4  130.32    4.61
   5  -6  -4  118.90    4.15
  -5   6   5   71.16    3.15
  -5   6   5   69.01    3.01
   5  -6  -5   72.90    2.59
  -5   6   6  107.47    4.16
  -5   6   6  104.65    4.31
   5  -6  -6  110.32    3.69
  -5   6   7   69.33    3.08
   5  -6  -7   68.27    2.62
  -5   6   8    2.06    1.34
   5  -6  -8    0.71    0.74
  -5   6   9   22.90    2.28
   5  -6  -9   21.96    1.55
  -5   6  10   93.35    4.34
   5  -6 -10   89.89    3.62
  -5   6  11    9.91    2.04
   5  -6 -11    9.88    1.40
  -5   6  12    5.12    1.67
  -5   6  13    3.68    1.78
  -5   6  13    2.13    1.82
  -5   6  14    3.23    2.04
  -5   6  14    3.81    1.86
  -5   6  15    0.40    1.73
   6  -7  15    0.07    1.87
   6  -7  14    3.62    2.03
   6  -7  13    2.04    2.14
   6  -7  12    4.08    1.88
   6  -7  11   11.20    2.13
   6  -7  10    0.91    1.67
   6  -7   9   36.66    3.00
   6  -7   8   10.97    1.84
   6  -7   7   41.79    2.68
   6  -7   6    5.07    1.28
  -6   7  -5  109.06    4.41
   6  -7   5  104.53    4.19
  -6   7  -4   37.59    2.26
   6  -7   4   40.62    2.21
  -6   7  -3  135.86    5.08
   6  -7   3  141.76    4.97
  -6   7  -2    2.96    0.94
  -6   7  -2    2.94    0.83
   6  -7   2    2.81    0.85
  -6   7  -1   53.53    2.49
  -6   7  -1   53.11    2.37
   6  -7   1   57.38    2.36
  -6   7   0   82.54    3.21
   6  -7   0   79.91    3.01
  -6   7   1   59.17    2.41
  -6   7   1   57.99    2.50
   6  -7  -1   52.75    2.31
  -6   7   2    2.30    0.84
  -6   7   2    2.97    0.85
   6  -7  -2    3.27    0.85
  -6   7   3  143.79    5.12
  -6   7   3  144.49    5.14
   6  -7  -3  143.63    4.79
  -6   7   4   38.11    2.12
  -6   7   4   36.90    2.14
   6  -7  -4   35.16    1.82
  -6   7   5  104.62    4.24
  -6   7   5  103.54    4.14
   6  -7  -5  110.93    3.69
  -6   7   6    2.90    1.23
  -6   7   6    4.47    1.24
   6  -7  -6    2.29    0.70
  -6   7   7   39.71    2.64
  -6   7   7   44.62    2.53
   6  -7  -7   41.96    1.86
  -6   7   8    9.98    1.72
  -6   7   8    7.86    1.45
   6  -7  -8   11.99    1.13
  -6   7   9   26.27    2.56
  -6   7   9   33.65    2.58
   6  -7  -9   30.47    1.77
  -6   7  10    3.82    1.67
  -6   7  10    3.67    1.70
   6  -7 -10    3.15    1.05
  -6   7  11    9.74    2.03
  -6   7  11    7.18    1.85
  -6   7  12    2.66    1.66
  -6   7  12    3.43    1.85
  -6   7  13    2.30    1.68
  -6   7  13    2.40    1.89
  -6   7  14   -0.90    1.62
  -6   7  15    1.42    2.08
   7  -8  15    0.45    1.97
   7  -8  14    2.29    1.99
   7  -8  13    4.08    2.07
   7  -8  12    1.25    1.99
   7  -8  11    1.34    1.72
   7  -8  10   10.34    2.15
   7  -8   9   23.26    2.64
   7  -8   8   16.56    2.15
   7  -8   7   44.26    2.84
  -7   8  -6   15.73    1.89
   7  -8   6   11.00    1.68
  -7   8  -5   19.66    2.00
   7  -8   5   22.68    1.98
  -7   8  -4  173.12    6.40
   7  -8   4  179.57    6.21
  -7   8  -3   25.52    2.03
   7  -8   3   25.87    1.97
  -7   8  -2    6.85    1.23
  -7   8  -2    8.00    1.20
   7  -8   2    7.48    1.14
  -7   8  -1  101.36    3.87
  -7   8  -1  102.65    4.05
   7  -8   1  106.19    3.85
  -7   8   0   15.61    1.57
   7  -8   0   10.87    1.13
  -7   8   1  108.17    4.02
  -7   8   1  101.36    3.85
   7  -8  -1  101.72    3.75
  -7   8   2   10.17    1.22
  -7   8   2    5.19    1.20
   7  -8  -2    6.77    1.13
  -7   8   3   25.31    1.75
  -7   8   3   24.79    1.74
   7  -8  -3   21.37    1.57
  -7   8   4  181.17    6.34
  -7   8   4  175.61    6.28
   7  -8  -4  177.49    5.86
  -7   8   5   22.90    2.01
  -7   8   5   20.58    1.92
   7  -8  -5   22.96    1.44
  -7   8   6   15.43    1.78
  -7   8   6   12.58    1.73
   7  -8  -6   18.20    1.22
  -7   8   7   44.15    2.53
  -7   8   7   44.13    2.59
   7  -8  -7   43.28    1.94
  -7   8   8   19.43    2.13
  -7   8   8    9.54    1.89
   7  -8  -8   14.82    1.21
  -7   8   9   19.19    2.21
  -7   8   9   20.63    2.38
   7  -8  -9   21.80    1.55
  -7   8  10   12.23    2.09
  -7   8  10   11.04    2.05
  -7   8  11    2.68    1.76
  -7   8  11    3.57    1.70
  -7   8  12    1.97    1.75
  -7   8  12   -0.22    1.52
  -7   8  13    4.18    1.81
  -7   8  13    3.70    2.01
  -7   8  14    0.83    2.08
  -7   8  15    0.34    1.76
   8  -9  14   -0.13    1.85
   8  -9  13    0.83    1.84
   8  -9  12   12.20    2.48
   8  -9  11   22.96    2.78
   8  -9  10   -0.65    1.59
   8  -9   9   32.78    3.05
   8  -9   8   29.17    2.73
   8  -9   7    8.26    1.79
  -8   9  -6   12.38    1.91
   8  -9   6   11.87    1.79
  -8   9  -5   48.30    2.92
   8  -9   5   48.71    2.77
  -8   9  -4   15.89    1.82
   8  -9   4   14.30    1.69
  -8   9  -3  198.88    7.26
   8  -9   3  211.11    7.09
  -8   9  -2    8.26    1.34
  -8   9  -2    6.67    1.20
   8  -9   2    6.35    1.16
  -8   9  -1   22.37    1.61
  -8   9  -1   23.15    1.83
   8  -9   1   21.53    1.70
  -8   9   0  138.03    4.87
   8  -9   0  117.94    4.52
  -8   9   1   22.93    1.61
  -8   9   1   24.11    1.95
   8  -9  -1   21.03    1.64
  -8   9   2    7.27    1.40
  -8   9   2    7.08    1.18
   8  -9  -2    8.17    1.27
  -8   9   3  201.44    7.15
  -8   9   3  205.48    7.14
   8  -9  -3  209.16    6.74
  -8   9   4   12.86    1.62
  -8   9   4   16.54    1.76
   8  -9  -4   16.33    1.45
  -8   9   5   48.75    2.77
  -8   9   5   45.84    2.60
   8  -9  -5   45.16    2.20
  -8   9   6   13.20    1.83
  -8   9   6   14.76    1.91
   8  -9  -6   16.26    1.31
  -8   9   7   11.23    1.86
  -8   9   7   11.82    1.86
   8  -9  -7   13.77    1.19
  -8   9   8   36.42    2.73
  -8   9   8   32.67    2.82
   8  -9  -8   32.46    1.71
  -8   9   9   29.09    2.64
  -8   9   9   30.80    2.85
  -8   9  10    3.67    1.78
  -8   9  10    1.63    1.57
  -8   9  11   20.42    2.47
  -8   9  11   18.51    2.45
  -8   9  12   11.26    2.22
  -8   9  12    8.10    2.07
  -8   9  13    0.78    1.74
  -8   9  14    3.26    2.26
   9 -10  14    3.66    2.27
   9 -10  13    2.36    2.03
   9 -10  12    1.13    1.95
   9 -10  11    2.59    1.88
   9 -10  10   42.09    3.56
   9 -10   9   11.82    2.25
   9 -10   8    5.06    1.81
  -9  10  -7   37.63    2.92
   9 -10   7   42.97    3.02
  -9  10  -6   33.05    2.86
   9 -10   6   29.61    2.56
  -9  10  -5    8.17    1.65
   9 -10   5    8.77    1.67
  -9  10  -4   77.54    3.73
   9 -10   4   72.15    3.51
  -9  10  -3   32.24    1.96
  -9  10  -3   36.81    2.43
   9 -10   3   29.86    2.20
  -9  10  -2  176.56    6.60
  -9  10  -2  184.48    6.39
   9 -10   2  178.32    6.38
  -9  10  -1   27.88    2.25
  -9  10  -1   28.35    2.03
   9 -10   1   26.81    1.92
  -9  10   0   -0.04    0.98
  -9  10   0   -1.07    0.62
   9 -10   0   -0.35    0.65
  -9  10   1   26.46    2.01
  -9  10   1   28.79    2.07
   9 -10  -1   28.92    1.95
  -9  10   2  174.21    6.27
  -9  10   2  175.84    6.40
   9 -10  -2  174.05    5.97
  -9  10   3   33.94    2.43
  -9  10   3   32.16    2.17
   9 -10  -3   30.53    2.03
  -9  10   4   73.48    3.47
  -9  10   4   69.66    3.50
   9 -10  -4   81.52    3.24
  -9  10   5   10.25    1.73
  -9  10   5   11.80    1.80
   9 -10  -5    8.55    1.29
  -9  10   6   32.85    2.67
  -9  10   6   28.78    2.58
   9 -10  -6   32.12    1.88
  -9  10   7   46.27    3.02
  -9  10   7   37.46    2.90
   9 -10  -7   39.88    1.96
  -9  10   8    4.63    1.38
  -9  10   8    4.02    1.78
  -9  10   9    9.97    2.01
  -9  10   9   14.05    2.21
  -9  10  10   41.10    3.20
  -9  10  10   31.65    3.05
  -9  10  11    2.05    1.31
  -9  10  11    2.50    1.87
  -9  10  12    0.43    1.70
  -9  10  13    5.67    2.05
  -9  10  14    2.80    1.94
  10 -11  13    3.58    2.20
  10 -11  12    1.96    2.03
  10 -11  11    4.11    2.03
  10 -11  10    6.25    2.05
  10 -11   9    9.95    2.20
  10 -11   8    3.15    1.76
 -10  11  -7    7.03    1.90
  10 -11   7    5.68    1.83
 -10  11  -6   20.18    2.45
  10 -11   6   18.16    2.24
 -10  11  -5    9.67    1.89
  10 -11   5   12.85    1.94
 -10  11  -4   77.72    3.89
  10 -11   4   74.76    3.71
 -10  11  -3   47.20    2.89
 -10  11  -3   44.57    2.45
  10 -11   3   42.23    2.70
 -10  11  -2    5.17    1.43
 -10  11  -2    5.20    1.36
  10 -11   2    5.63    1.36
 -10  11  -1    8.44    1.74
 -10  11  -1   11.25    1.61
  10 -11   1    6.83    1.36
 -10  11   0   -0.05    1.05
 -10  11   0    1.06    1.19
  10 -11   0   -0.23    0.79
 -10  11   1    7.90    1.51
 -10  11   1   10.23    1.62
  10 -11  -1    9.68    1.54
 -10  11   2    5.52    1.35
 -10  11   2    5.49    1.43
  10 -11  -2    5.52    1.29
 -10  11   3   41.42    2.65
 -10  11   3   48.52    2.97
  10 -11  -3   46.02    2.54
 -10  11   4   81.41    3.85
 -10  11   4   79.19    3.87
  10 -11  -4   90.68    3.63
 -10  11   5   16.10    2.19
 -10  11   5   14.52    2.03
  10 -11  -5   13.45    1.56
 -10  11   6   18.81    2.27
 -10  11   6   13.27    2.01
  10 -11  -6   18.42    1.59
 -10  11   7    3.51    1.79
 -10  11   7    7.10    2.01
 -10  11   8    4.23    1.79
 -10  11   8    5.14    1.89
 -10  11   9    6.65    1.97
 -10  11   9    5.49    1.87
 -10  11  10    9.38    1.81
 -10  11  10   13.17    2.26
 -10  11  11    3.17    1.92
 -10  11  11    0.17    1.68
 -10  11  12   -0.43    1.68
 -10  11  13    2.26    1.95
  11 -12  13    0.85    2.03
  11 -12  12    2.44    2.12
  11 -12  11    3.02    2.01
  11 -12  10   -0.83    1.64
  11 -12   9    2.79    1.85
  11 -12   8    3.95    1.85
 -11  12  -7    3.05    1.72
  11 -12   7    2.45    1.73
 -11  12  -6    1.34    1.62
  11 -12   6    1.42    1.65
 -11  12  -5    5.08    1.72
  11 -12   5    8.20    1.81
 -11  12  -4    9.67    1.85
  11 -12   4   10.39    1.85
 -11  12  -3   37.36    2.76
 -11  12  -3   35.49    2.49
  11 -12   3   34.21    2.60
 -11  12  -2    2.53    1.43
 -11  12  -2    2.85    1.43
  11 -12   2    2.06    1.55
 -11  12  -1    6.95    1.66
 -11  12  -1   10.66    1.73
  11 -12   1    5.29    1.46
 -11  12   0   49.82    2.89
 -11  12   0   46.58    2.92
 -11  12   1    6.22    1.44
 -11  12   1    6.85    1.61
  11 -12  -1    7.27    1.53
 -11  12   2    2.13    1.31
 -11  12   2    5.18    1.74
  11 -12  -2    4.43    1.54
 -11  12   3   37.44    2.90
 -11  12   3   36.56    2.60
  11 -12  -3   37.09    2.53
 -11  12   4    7.38    1.89
 -11  12   4    6.51    1.64
  11 -12  -4    5.65    1.44
 -11  12   5    3.69    1.79
 -11  12   5    7.53    1.73
  11 -12  -5    8.81    1.52
 -11  12   6    4.66    1.73
 -11  12   6    4.10    1.84
 -11  12   7    1.95    1.78
 -11  12   7    3.58    1.73
 -11  12   8    3.36    1.80
 -11  12   8    2.89    1.84
 -11  12   9   -0.38    1.78
 -11  12   9    4.79    1.89
 -11  12  10    0.20    1.69
 -11  12  10    0.22    1.76
 -11  12  11    2.86    1.87
 -11  12  12    2.76    1.98
 -11  12  13    3.16    1.99
  12 -13  12   -1.36    1.89
  12 -13  11    1.96    2.38
  12 -13  10    1.42    1.91
  12 -13   9    1.45    1.85
 -12  13  -8    4.10    1.81
  12 -13   8    5.90    2.01
 -12  13  -7   11.99    2.24
  12 -13   7   14.74    2.33
 -12  13  -6    1.02    1.67
  12 -13   6    3.23    2.05
 -12  13  -5    5.62    1.83
  12 -13   5   10.06    1.95
 -12  13  -4    7.06    1.89
  12 -13   4   10.25    1.93
 -12  13  -3    4.07    1.52
 -12  13  -3   -0.26    1.44
  12 -13   3    2.96    1.60
 -12  13  -2    6.50    1.72
 -12  13  -2    4.05    1.64
  12 -13   2    5.12    1.83
 -12  13  -1   35.18    2.75
 -12  13  -1   26.72    2.66
  12 -13   1   34.44    2.82
 -12  13   0   50.26    3.08
 -12  13   0   42.82    3.03
 -12  13   1   25.50    2.36
 -12  13   1   28.94    2.59
  12 -13  -1   30.69    2.52
 -12  13   2    4.09    1.51
 -12  13   2    7.82    1.95
  12 -13  -2    6.32    1.61
 -12  13   3    4.68    1.86
 -12  13   3    2.95    1.50
  12 -13  -3    5.46    1.60
 -12  13   4    8.68    1.88
 -12  13   4   14.13    2.24
  12 -13  -4    7.30    1.68
 -12  13   5    9.74    2.03
 -12  13   5    7.11    2.06
 -12  13   6    1.83    1.81
 -12  13   6   -0.03    1.55
 -12  13   7   12.74    2.08
 -12  13   7   14.96    2.35
 -12  13   8    6.06    1.93
 -12  13   8    5.00    1.74
 -12  13   9   -0.53    1.71
 -12  13   9   -0.98    1.58
 -12  13  10    3.26    1.97
 -12  13  10    1.83    1.92
 -12  13  11    3.87    1.97
 -12  13  12    5.08    2.17
  13 -14  12   -1.44    1.93
  13 -14  11    0.14    1.98
  13 -14  10    0.63    1.93
  13 -14   9    1.21    1.89
 -13  14  -8    3.91    1.85
  13 -14   8    6.87    2.11
 -13  14  -7    0.00    1.61
  13 -14   7    1.49    1.72
 -13  14  -6   35.08    3.32
  13 -14   6   30.57    3.08
 -13  14  -5    0.06    1.52
  13 -14   5    0.34    1.93
 -13  14  -4    0.86    1.59
  13 -14   4    0.77    1.99
 -13  14  -3    1.92    1.40
 -13  14  -3   -0.52    1.83
  13 -14   3    1.50    1.88
 -13  14  -2   18.67    2.41
 -13  14  -2   23.26    2.47
  13 -14   2   23.18    2.43
 -13  14  -1    1.08    1.60
 -13  14  -1   -0.67    1.51
  13 -14   1   -1.09    1.62
 -13  14   0   57.23    3.82
 -13  14   0   53.61    3.45
 -13  14   1    0.12    0.81
 -13  14   1    0.80    1.48
  13 -14  -1   -0.79    1.57
 -13  14   2   25.51    2.71
 -13  14   2   24.29    2.60
  13 -14  -2   24.58    2.53
 -13  14   3    2.75    1.60
 -13  14   3    0.45    1.45
  13 -14  -3   -0.26    1.54
 -13  14   4   -2.52    1.69
 -13  14   4    0.57    1.79
  13 -14  -4   -1.47    1.47
 -13  14   5    1.20    1.66
 -13  14   5    0.70    1.79
 -13  14   6   38.16    3.27
 -13  14   6   36.03    3.35
 -13  14   7    0.25    1.63
 -13  14   7    3.02    1.93
 -13  14   8    5.28    2.01
 -13  14   8    7.80    2.16
 -13  14   9   -1.28    1.84
 -13  14   9    2.04    1.91
 -13  14  10    2.78    2.01
 -13  14  11    0.86    1.88
 -13  14  12    1.09    2.02
  14 -15  11    0.96    2.17
  14 -15  10    2.74    2.16
  14 -15   9    3.31    2.11
 -14  15  -8    1.55    1.80
  14 -15   8    6.21    2.09
 -14  15  -7   11.78    2.38
  14 -15   7   11.27    2.38
 -14  15  -6    0.08    1.60
  14 -15   6    2.06    1.82
 -14  15  -5   -0.56    1.50
  14 -15   5    0.97    1.70
 -14  15  -4    4.36    2.03
  14 -15   4    3.80    1.79
 -14  15  -3    0.45    1.59
  14 -15   3    1.75    1.93
 -14  15  -2    0.92    1.63
 -14  15  -2    0.92    1.55
  14 -15   2    0.29    1.84
 -14  15  -1   32.30    3.09
 -14  15  -1   33.71    2.98
  14 -15   1   27.59    2.81
 -14  15   0   31.93    2.84
 -14  15   0   30.39    3.00
 -14  15   1   36.11    3.30
  14 -15  -1   33.59    3.02
 -14  15   2    1.92    1.78
 -14  15   2   -0.83    1.43
  14 -15  -2   -1.44    1.68
 -14  15   3    1.47    1.88
 -14  15   3    1.41    1.82
  14 -15  -3    3.36    1.55
 -14  15   4    1.99    1.63
 -14  15   4    7.84    2.16
 -14  15   5    0.57    1.60
 -14  15   5    0.67    1.52
 -14  15   6    2.69    1.75
 -14  15   6    5.01    2.04
 -14  15   7   12.82    2.36
 -14  15   7   12.70    2.63
 -14  15   8    3.83    2.03
 -14  15   8    7.84    2.28
 -14  15   9    3.48    2.02
 -14  15   9    6.00    2.18
 -14  15  10   -0.47    1.84
 -14  15  11   -2.03    1.76
  15 -16  10    3.01    2.61
  15 -16   9   -0.89    2.03
 -15  16  -8    6.83    2.20
  15 -16   8    5.49    2.25
 -15  16  -7    9.29    2.35
  15 -16   7    9.39    2.67
 -15  16  -6   -1.38    1.58
  15 -16   6   -1.43    1.66
 -15  16  -5    2.43    1.74
  15 -16   5    1.90    1.84
 -15  16  -4    1.63    1.67
  15 -16   4   -1.17    1.66
 -15  16  -3   -0.15    1.55
  15 -16   3    0.86    1.65
 -15  16  -2   -0.62    1.48
  15 -16   2    2.14    1.86
 -15  16  -1   11.31    2.17
 -15  16  -1    9.94    2.14
  15 -16   1   12.51    2.32
 -15  16   0    5.36    2.00
 -15  16   0    2.82    1.75
  15 -16   0    4.58    1.86
 -15  16   1   12.43    2.42
 -15  16   1    9.22    1.95
  15 -16  -1    8.42    2.07
 -15  16   2    3.05    1.94
 -15  16   2    1.54    1.55
  15 -16  -2    2.14    1.85
 -15  16   3   -0.44    1.49
 -15  16   3    1.80    1.66
 -15  16   4    1.86    1.91
 -15  16   4   -0.87    1.46
 -15  16   5   -0.35    1.67
 -15  16   5    0.35    1.65
 -15  16   6   -2.42    1.54
 -15  16   6   -0.81    1.87
 -15  16   7    8.81    2.26
 -15  16   7   10.32    2.17
 -15  16   8    6.18    2.01
 -15  16   8    3.62    2.03
 -15  16   9    0.95    1.94
 -15  16  10   -2.05    1.81
  16 -17   9   -0.76    2.07
 -16  17  -8    2.01    1.91
  16 -17   8    0.58    2.05
 -16  17  -7    1.35    1.85
  16 -17   7   -0.24    1.93
 -16  17  -6    5.59    2.10
  16 -17   6    8.82    2.36
 -16  17  -5    0.15    1.74
  16 -17   5   -1.87    1.70
 -16  17  -4    5.11    2.02
  16 -17   4    6.65    2.17
 -16  17  -3    3.07    1.88
  16 -17   3   -1.10    1.70
 -16  17  -2   -0.81    1.57
  16 -17   2    1.61    1.76
 -16  17  -1    0.26    1.65
  16 -17   1    2.33    2.00
 -16  17   0    0.10    1.64
 -16  17   0    1.02    1.78
  16 -17   0    1.93    1.95
 -16  17   1   -0.35    1.89
 -16  17   1    3.34    2.11
  16 -17  -1    0.49    1.96
 -16  17   2   -1.72    1.50
 -16  17   2   -0.56    1.52
 -16  17   3    2.13    2.03
 -16  17   3    0.52    1.60
 -16  17   4    6.69    2.02
 -16  17   4    8.41    2.39
 -16  17   5    0.63    1.72
 -16  17   5    2.33    1.75
 -16  17   6    6.17    2.13
 -16  17   6    8.53    2.41
 -16  17   7    2.11    2.06
 -16  17   7    2.39    1.97
 -16  17   8   -1.51    1.82
 -16  17   9    1.96    2.03
 -17  18  -7    0.51    1.90
  17 -18   7    0.01    2.06
 -17  18  -6    0.17    1.88
  17 -18   6    1.79    2.51
 -17  18  -5    1.71    1.84
  17 -18   5    0.65    1.92
 -17  18  -4    3.02    1.87
  17 -18   4    1.56    1.98
 -17  18  -3    1.61    1.85
  17 -18   3    5.23    2.36
 -17  18  -2    7.25    2.12
  17 -18   2    7.19    2.45
 -17  18  -1    1.90    2.11
  17 -18   1   -0.13    1.98
 -17  18   0   -1.68    2.05
  17 -18   0    1.28    2.10
 -17  18   1   -0.83    2.01
 -17  18   1    1.25    2.13
 -17  18   2    3.60    1.56
 -17  18   2    7.96    2.51
 -17  18   3    9.20    2.39
 -17  18   3   -1.22    2.03
 -17  18   4    4.01    1.99
 -17  18   4    1.21    1.76
 -17  18   5    0.21    1.72
 -17  18   5    0.37    2.16
 -17  18   6    1.15    1.85
 -17  18   6    3.86    1.87
 -17  18   7    2.23    2.40
 -17  18   7    2.23    2.13
 -18  19  -6   -0.07    1.93
  18 -19   6    1.41    2.56
 -18  19  -5    3.01    2.01
  18 -19   5    8.27    2.82
 -18  19  -4    1.54    1.97
  18 -19   4   -0.35    2.33
 -18  19  -3    2.30    1.96
  18 -19   3    5.43    2.52
 -18  19  -2    0.69    2.10
  18 -19   2   -2.93    2.19
 -18  19  -1    0.36    1.82
  18 -19   1   -0.41    1.33
 -18  19   0    8.12    2.32
 -18  19   1    4.38    2.32
 -18  19   2    1.12    1.88
 -18  19   2   -0.73    0.97
 -18  19   3    5.75    2.33
 -18  19   3    6.12    2.12
 -18  19   4    3.92    2.34
 -18  19   4    1.30    2.15
 -18  19   5    3.04    2.10
 -18  19   5    9.25    2.53
 -18  19   6    1.30    1.77
 -18  19   6   -0.72    2.29
 -19  20  -3    1.96    2.05
  19 -20   3    1.34    2.56
 -19  20  -2    0.27    2.21
  19 -20   2   -1.45    2.30
 -19  20  -1    1.85    1.99
 -19  20   0   -0.96    1.77
 -19  20   1    2.24    2.31
 -19  20   2   -0.51    1.81
 -19  20   3    2.43    2.33
 -19  20   3   -2.90    2.17
 -20  18   4    5.80    2.27
 -20  18   3    3.38    2.07
 -20  18   2    1.49    2.31
 -20  18   1    3.35    2.12
 -20  18   0   -2.69    2.18
 -20  18  -1   -1.05    1.87
  20 -18   2   -1.56    0.74
 -20  18  -2    0.27    1.94
  20 -18   3   -0.88    2.13
 -20  18  -3    0.27    1.91
  20 -18   4    0.88    2.28
 -20  18  -4    3.01    2.15
 -19  17   7   -2.15    2.22
 -19  17   6   -0.69    2.04
 -19  17   6    1.08    1.99
 -19  17   5    2.34    2.43
 -19  17   5    1.52    2.07
 -19  17   4    4.96    2.45
 -19  17   4    3.65    1.82
 -19  17   3    0.40    1.94
 -19  17   3    0.83    1.87
 -19  17   2    4.09    2.41
 -19  17   1    0.62    1.92
 -19  17   0    5.29    2.31
 -19  17  -1    3.93    2.43
  19 -17   2    0.38    1.39
 -19  17  -2    5.08    2.25
  19 -17   3   -0.53    2.03
 -19  17  -3    3.35    1.98
  19 -17   4    1.55    1.87
 -19  17  -4    0.54    1.87
  19 -17   5    0.82    2.21
 -19  17  -5    0.67    2.23
  19 -17   6   -0.15    2.30
 -19  17  -6    0.24    1.91
 -19  17  -7    1.90    2.02
 -18  16   8   -0.22    1.89
 -18  16   8   -2.15    2.03
 -18  16   7    0.95    1.80
 -18  16   7    0.75    1.87
 -18  16   6   -0.83    1.63
 -18  16   6    3.91    2.46
 -18  16   5    0.89    2.23
 -18  16   5    0.54    1.97
 -18  16   4    2.12    2.00
 -18  16   4    0.54    1.89
 -18  16   3   10.88    2.39
 -18  16   3    0.02    0.87
 -18  16   2    1.57    2.21
 -18  16   2   -0.25    1.73
 -18  16   1    2.49    1.86
 -18  16   0    0.49    1.81
  18 -16   1    0.80    1.85
 -18  16  -1    0.86    1.92
  18 -16   2   -2.23    1.64
 -18  16  -2    1.12    1.90
  18 -16   3    8.85    2.40
 -18  16  -3    9.43    2.40
  18 -16   4    2.09    1.84
 -18  16  -4    0.48    1.86
  18 -16   5   -2.48    2.00
 -18  16  -5   -0.11    1.74
  18 -16   6   -0.91    1.72
 -18  16  -6    1.26    1.89
  18 -16   7    4.80    2.11
 -18  16  -7    0.45    1.84
  18 -16   8    3.20    2.16
 -18  16  -8    1.11    2.05
 -17  15   9    0.81    1.87
 -17  15   9    1.05    1.99
 -17  15   8   -1.71    2.08
 -17  15   8    0.81    1.93
 -17  15   7    3.02    2.02
 -17  15   7    6.95    2.02
 -17  15   6    7.68    2.06
 -17  15   6   12.84    2.53
 -17  15   5   -0.26    2.08
 -17  15   5    0.95    1.60
 -17  15   4    3.40    1.65
 -17  15   4    5.38    2.07
 -17  15   3    5.14    2.09
 -17  15   3    1.17    1.00
 -17  15   2    1.64    2.13
 -17  15   2    2.43    1.69
 -17  15   1    1.55    1.82
 -17  15   1   -1.19    1.47
  17 -15   0   -0.62    1.68
 -17  15   0    1.27    1.75
  17 -15   1    1.39    1.67
 -17  15  -1    2.28    1.92
  17 -15   2    0.76    1.77
 -17  15  -2    2.94    1.94
  17 -15   3    4.14    2.01
 -17  15  -3    9.36    2.27
  17 -15   4    2.78    1.99
 -17  15  -4    3.12    1.94
  17 -15   5   -0.07    1.66
 -17  15  -5    2.03    1.84
  17 -15   6    7.01    2.21
 -17  15  -6    8.83    2.29
  17 -15   7    1.21    1.94
 -17  15  -7    4.01    2.07
  17 -15   8    3.98    2.08
 -17  15  -8    1.52    1.93
  17 -15   9    2.74    2.16
 -17  15  -9    1.21    1.92
 -16  14  10    1.01    1.96
 -16  14  10   -0.12    2.22
 -16  14   9    2.29    1.91
 -16  14   9    1.19    2.22
 -16  14   8    6.54    2.50
 -16  14   8    5.64    2.35
 -16  14   7    3.23    1.77
 -16  14   7    5.34    2.05
 -16  14   6    6.08    2.13
 -16  14   6    3.24    1.97
 -16  14   5    2.76    1.84
 -16  14   5    3.01    1.98
 -16  14   4    2.66    1.88
 -16  14   4    2.57    1.71
 -16  14   3    0.41    2.05
 -16  14   3    1.26    1.54
 -16  14   2    1.28    1.78
 -16  14   2    1.75    1.59
  16 -14  -1   -0.90    1.33
 -16  14   1    3.85    1.65
 -16  14   1    3.82    2.28
  16 -14   0   19.38    2.26
 -16  14   0   14.51    2.43
 -16  14   0   14.03    2.14
  16 -14   1   -0.14    1.49
 -16  14  -1    0.70    1.75
  16 -14   2   -0.74    1.63
 -16  14  -2    0.48    1.70
  16 -14   3   -1.45    1.66
 -16  14  -3    0.99    1.72
  16 -14   4    3.00    1.94
 -16  14  -4   -2.52    1.44
  16 -14   5   -2.18    1.46
 -16  14  -5    2.03    1.75
  16 -14   6    5.06    2.24
 -16  14  -6    1.22    1.76
  16 -14   7    0.82    1.80
 -16  14  -7    2.22    1.87
  16 -14   8    0.99    1.91
 -16  14  -8    6.12    2.26
  16 -14   9   -1.52    1.88
 -16  14  -9   -1.11    2.12
  16 -14  10   -0.79    1.95
 -16  14 -10   -0.56    1.82
 -15  13  11    0.95    1.88
 -15  13  11    1.97    2.39
 -15  13  10    1.56    2.30
 -15  13  10    2.69    1.96
 -15  13   9   -3.80    1.48
 -15  13   9    1.27    2.19
 -15  13   8   -1.01    2.01
 -15  13   8    1.97    2.10
 -15  13   7    9.09    2.51
 -15  13   7   13.76    2.50
 -15  13   6   11.42    2.07
 -15  13   6   14.07    2.38
 -15  13   5    1.77    1.52
 -15  13   5    4.51    1.96
 -15  13   4   14.13    2.19
 -15  13   4   11.42    2.57
 -15  13   3    0.07    1.30
 -15  13   3    2.46    2.11
  15 -13  -2   10.28    1.75
 -15  13   2   10.04    2.25
 -15  13   2   10.61    1.85
  15 -13  -1   15.52    2.00
 -15  13   1   15.61    2.49
 -15  13   1   14.24    1.97
  15 -13   0    0.50    1.46
 -15  13   0    1.19    1.75
 -15  13   0    1.02    1.37
  15 -13   1    6.36    1.51
 -15  13  -1   16.54    2.07
 -15  13  -1   17.27    2.55
  15 -13   2    9.25    1.81
 -15  13  -2   10.00    2.22
  15 -13   3    2.56    1.79
 -15  13  -3    1.31    1.77
  15 -13   4    6.25    1.98
 -15  13  -4    4.95    1.89
  15 -13   5    2.71    1.65
 -15  13  -5    2.26    1.79
  15 -13   6   10.58    2.16
 -15  13  -6   10.21    2.26
  15 -13   7   10.29    2.21
 -15  13  -7   10.73    2.34
  15 -13   8   -0.34    1.75
 -15  13  -8    3.60    1.98
  15 -13   9   -0.86    1.82
 -15  13  -9    2.74    1.93
  15 -13  10    1.63    1.95
  15 -13  11    1.20    2.02
 -14  12  12    2.01    1.97
 -14  12  12   -1.52    2.19
 -14  12  11    0.21    1.82
 -14  12  11    2.63    2.05
 -14  12  10   -0.87    2.16
 -14  12  10    0.25    1.74
 -14  12   9    1.14    1.67
 -14  12   9   -2.12    1.67
 -14  12   8    0.01    2.10
 -14  12   8    2.50    1.74
 -14  12   7   14.97    2.27
 -14  12   7   21.13    2.87
 -14  12   6   -0.12    2.01
 -14  12   6    1.71    1.60
 -14  12   5    3.16    1.86
 -14  12   5    2.90    1.64
 -14  12   4    4.60    1.58
 -14  12   4    1.52    1.80
  14 -12  -3    0.15    1.26
 -14  12   3    0.22    1.27
 -14  12   3   -0.87    2.00
  14 -12  -2   -3.20    1.21
 -14  12   2   -1.54    0.80
 -14  12   2    0.99    1.72
  14 -12  -1   19.15    1.97
 -14  12   1   18.70    2.02
 -14  12   1   16.81    2.43
  14 -12   0    1.00    1.36
 -14  12   0    3.53    1.39
 -14  12   0    3.23    1.80
 -14  12  -1   19.11    2.05
 -14  12  -1   25.21    2.75
  14 -12   2    0.67    1.55
 -14  12  -2    0.53    1.67
 -14  12  -2    1.41    1.29
  14 -12   3    0.17    1.59
 -14  12  -3   -0.71    1.66
  14 -12   4    3.61    1.62
 -14  12  -4    3.80    1.76
  14 -12   5    0.42    1.56
 -14  12  -5    4.40    1.86
  14 -12   6    2.34    1.69
 -14  12  -6   -0.03    1.64
  14 -12   7   21.78    2.68
 -14  12  -7   21.01    2.81
  14 -12   8    1.81    1.82
 -14  12  -8    0.43    1.76
  14 -12   9    0.61    1.76
 -14  12  -9   -0.25    1.65
  14 -12  10   -0.46    1.86
  14 -12  11    4.25    2.17
  14 -12  12    0.01    2.02
 -13  11  13   -1.32    2.18
 -13  11  13    0.70    1.88
 -13  11  12    5.41    2.35
 -13  11  12    2.04    1.90
 -13  11  11    5.47    2.36
 -13  11  11    0.80    1.71
 -13  11  10   13.73    2.34
 -13  11  10   14.58    2.74
 -13  11   9    0.63    1.55
 -13  11   9    1.04    2.07
 -13  11   8   15.32    2.36
 -13  11   8   13.69    2.24
 -13  11   7    0.53    1.51
 -13  11   7    2.52    1.84
 -13  11   6    0.32    1.43
 -13  11   6    0.81    2.04
 -13  11   5    1.54    1.39
 -13  11   5    2.90    1.83
 -13  11   4    2.96    1.77
 -13  11   4    3.20    1.44
  13 -11  -3    3.89    1.30
 -13  11   3    4.21    1.37
 -13  11   3    3.36    1.74
  13 -11  -2   41.63    2.49
 -13  11   2   43.41    3.44
  13 -11  -1    3.99    1.29
 -13  11   1    3.45    1.76
 -13  11   1    7.87    1.47
  13 -11   0   81.37    3.71
 -13  11   0   76.96    4.19
 -13  11   0   80.23    3.52
 -13  11  -1    2.19    1.59
 -13  11  -1    3.89    1.32
  13 -11   2   34.94    2.52
 -13  11  -2   41.50    2.38
 -13  11  -2   42.18    3.13
  13 -11   3    5.13    1.49
 -13  11  -3    3.65    1.75
 -13  11  -3    4.61    1.17
  13 -11   4    4.63    1.57
 -13  11  -4    2.20    1.67
  13 -11   5    2.65    1.62
 -13  11  -5    1.72    1.64
  13 -11   6    0.92    1.63
 -13  11  -6    0.59    1.63
  13 -11   7    2.17    1.83
 -13  11  -7    2.46    1.74
  13 -11   8    9.43    2.19
 -13  11  -8   15.06    2.50
  13 -11   9    0.91    1.73
 -13  11  -9    2.70    1.86
  13 -11  10   15.35    2.67
  13 -11  11   -1.79    1.77
  13 -11  12    0.91    2.01
  13 -11  13    2.57    2.23
 -12  10  13    2.39    1.95
 -12  10  13    1.25    1.96
 -12  10  12    0.21    2.18
 -12  10  12    1.27    1.81
 -12  10  11    5.96    2.09
 -12  10  11    6.66    2.12
 -12  10  10    2.92    1.87
 -12  10  10    7.03    2.01
 -12  10   9    2.58    1.76
 -12  10   9    2.40    1.65
 -12  10   8    4.50    2.11
 -12  10   8   -0.18    1.54
 -12  10   7    2.61    1.67
 -12  10   7    3.00    1.81
 -12  10   6   -2.05    1.86
 -12  10   6   -0.11    1.39
 -12  10   5   11.28    1.77
 -12  10   5    8.77    2.00
  12 -10  -4   14.09    1.37
 -12  10   4   12.22    1.93
 -12  10   4   10.21    2.04
  12 -10  -3   36.81    2.13
 -12  10   3   41.86    2.97
 -12  10   3   37.42    2.44
  12 -10  -2    6.05    1.18
 -12  10   2    6.69    1.78
  12 -10  -1    0.15    0.96
 -12  10   1    2.40    1.50
 -12  10   1    2.14    1.14
  12 -10   0    0.77    1.05
 -12  10   0    0.42    0.95
 -12  10   0    0.07    1.37
  12 -10   1    1.29    0.62
 -12  10  -1    0.30    1.02
 -12  10  -1    0.76    1.42
  12 -10   2    5.95    1.49
 -12  10  -2    3.37    1.19
 -12  10  -2    6.57    1.70
  12 -10   3   34.23    2.46
 -12  10  -3   38.02    2.92
 -12  10  -3   38.70    2.01
  12 -10   4    9.79    1.97
 -12  10  -4   11.43    1.99
  12 -10   5   15.62    2.10
 -12  10  -5   14.57    2.25
  12 -10   6   -0.34    1.47
 -12  10  -6    0.06    1.56
  12 -10   7    0.91    1.61
 -12  10  -7    3.02    1.75
  12 -10   8    1.12    1.73
 -12  10  -8    3.01    1.84
  12 -10   9    4.32    1.86
 -12  10  -9    0.41    1.65
  12 -10  10    6.38    2.09
  12 -10  11   12.04    2.52
  12 -10  12    5.07    2.16
  12 -10  13   -0.04    2.01
 -11   9  14    4.01    2.08
 -11   9  14    5.73    2.56
 -11   9  13    3.25    1.98
 -11   9  13    1.48    2.26
 -11   9  12    0.18    2.04
 -11   9  12    1.19    1.84
 -11   9  11   12.12    2.54
 -11   9  10    3.12    2.07
 -11   9   9   11.57    2.40
 -11   9   8   12.53    2.18
 -11   9   7    6.61    1.89
 -11   9   6   58.14    3.36
 -11   9   6   61.76    3.77
 -11   9   5   10.50    1.75
 -11   9   5   10.97    1.97
  11  -9  -4   30.79    1.62
 -11   9   4   26.08    2.55
 -11   9   4   24.71    2.16
  11  -9  -3   72.50    2.95
 -11   9   3   78.14    3.88
 -11   9   3   83.74    3.61
  11  -9  -2   27.41    1.65
 -11   9   2   27.83    2.52
 -11   9   2   19.89    1.71
  11  -9  -1   15.33    1.41
 -11   9   1   17.32    1.58
 -11   9   1   15.43    2.03
  11  -9   0   13.92    1.46
 -11   9   0   10.44    1.76
 -11   9   0   10.49    1.27
  11  -9   1    8.98    1.18
 -11   9  -1   17.44    1.46
 -11   9  -1   13.51    1.91
  11  -9   2   24.24    2.02
 -11   9  -2   25.71    2.39
 -11   9  -2   21.21    1.62
  11  -9   3   84.63    3.63
 -11   9  -3   79.48    4.00
 -11   9  -3   77.68    2.99
  11  -9   4   28.30    2.38
 -11   9  -4   25.45    2.51
  11  -9   5   10.86    1.83
 -11   9  -5   11.39    1.97
  11  -9   6   59.73    3.44
 -11   9  -6   56.98    3.78
  11  -9   7    6.92    1.84
 -11   9  -7    4.96    1.82
  11  -9   8    8.54    2.07
 -11   9  -8   10.61    2.19
  11  -9   9   14.30    2.30
  11  -9  10    2.31    1.78
  11  -9  11   13.49    2.51
  11  -9  12    5.43    2.10
  11  -9  13   -1.51    2.24
  11  -9  14    2.88    2.54
 -10   8  14   -0.09    2.24
 -10   8  13   -0.73    2.10
 -10   8  12   -3.38    1.87
 -10   8  11    6.85    2.22
 -10   8  10   17.31    2.63
 -10   8   9    6.40    1.91
 -10   8   8    1.25    1.61
 -10   8   7   19.59    2.54
 -10   8   6   24.50    2.43
  10  -8  -5   11.11    0.54
 -10   8   5   10.02    2.04
  10  -8  -4   69.38    2.44
 -10   8   4   66.48    3.18
 -10   8   4   64.06    3.46
  10  -8  -3   39.32    1.85
 -10   8   3   42.86    2.33
 -10   8   3   45.69    2.75
  10  -8  -2   21.18    1.36
 -10   8   2   22.50    2.32
 -10   8   2   23.53    1.70
  10  -8  -1   11.82    1.22
 -10   8   1   14.41    1.83
 -10   8   1   15.64    1.43
  10  -8   0   34.33    1.97
 -10   8   0   35.44    2.44
 -10   8   0   33.43    1.79
  10  -8   1   10.04    1.20
 -10   8  -1   13.12    1.23
 -10   8  -1   10.47    1.66
  10  -8   2   24.11    1.92
 -10   8  -2   22.12    2.17
 -10   8  -2   21.85    1.45
  10  -8   3   45.47    2.47
 -10   8  -3   42.50    2.77
  10  -8   4   65.87    3.18
 -10   8  -4   63.11    3.40
 -10   8  -4   66.22    3.11
  10  -8   5   10.51    1.64
 -10   8  -5   14.11    1.97
 -10   8  -5   11.20    1.61
 -10   8  -6   26.57    2.57
 -10   8  -6   21.64    2.20
 -10   8  -7   13.83    1.99
 -10   8  -7   21.83    2.52
 -10   8  -8    4.02    1.57
 -10   8  -8    1.95    1.63
 -10   8  -9    6.12    1.74
  10  -8  10   15.70    2.45
 -10   8 -10   22.63    2.57
  10  -8  11    8.79    2.16
 -10   8 -11    8.41    2.03
  10  -8  12    0.72    1.80
  10  -8  13    0.92    1.93
  10  -8  14    0.92    2.29
  -9   7  14    1.43    2.30
  -9   7  13    9.18    2.59
  -9   7  12    1.41    2.13
  -9   7  11    0.92    1.99
  -9   7  10    0.39    1.61
  -9   7   9    1.57    1.87
  -9   7   8   21.15    2.35
  -9   7   7   38.96    3.00
  -9   7   6   23.66    2.43
  -9   7   5    8.33    1.65
   9  -7  -4  112.54    3.59
  -9   7   4  117.17    4.82
   9  -7  -3   39.45    1.69
  -9   7   3   39.48    2.54
   9  -7  -2    2.88    0.73
  -9   7   2    3.21    1.47
  -9   7   2    2.98    0.98
   9  -7  -1   57.25    2.35
  -9   7   1   61.14    3.02
  -9   7   1   57.68    2.47
   9  -7   0   19.44    1.38
  -9   7   0   20.21    1.31
  -9   7   0   22.29    2.03
   9  -7   1   52.48    2.41
  -9   7  -1   55.64    2.90
  -9   7  -1   57.83    2.25
   9  -7   2    3.39    1.05
  -9   7  -2    3.39    1.20
  -9   7  -2    3.22    0.77
  -9   7  -3   40.77    2.53
  -9   7  -3   39.46    2.14
  -9   7  -4  118.71    4.53
  -9   7  -4  118.28    4.87
  -9   7  -5    8.18    1.39
  -9   7  -5    7.08    1.52
  -9   7  -6   23.93    2.32
  -9   7  -6   21.47    2.09
  -9   7  -7   41.66    2.95
  -9   7  -7   37.13    2.63
  -9   7  -8   19.71    2.43
  -9   7  -8   20.10    2.25
  -9   7  -9    0.06    1.47
  -9   7 -10    1.89    1.52
  -9   7 -11    0.62    1.54
   9  -7  12    5.25    2.22
  -9   7 -12    7.85    2.02
   9  -7  13    7.96    2.16
   9  -7  14    2.27    1.97
  -8   6  15    1.58    2.35
  -8   6  14    4.49    2.38
  -8   6  13    4.07    2.26
  -8   6  12    2.36    2.11
  -8   6  11   -0.50    1.90
  -8   6  10    1.63    1.68
  -8   6   9   15.74    2.22
  -8   6   8    0.39    1.44
  -8   6   7   45.18    3.01
  -8   6   6   47.78    2.92
  -8   6   5    4.51    1.35
   8  -6  -4   30.68    1.05
  -8   6   4   31.28    2.18
   8  -6  -3    5.13    0.67
  -8   6   3    6.61    1.54
   8  -6  -2    7.87    0.77
  -8   6   2    9.59    1.46
   8  -6  -1   33.59    1.53
  -8   6   1   30.43    1.60
  -8   6   1   35.16    2.15
   8  -6   0   15.26    1.18
  -8   6   0   14.48    1.04
  -8   6   0   15.55    1.63
   8  -6   1   34.64    1.64
  -8   6  -1   33.72    2.10
  -8   6  -1   31.69    1.47
  -8   6  -1   31.92    1.71
  -8   6  -2    6.83    0.97
  -8   6  -2    7.55    1.29
  -8   6  -2    5.54    0.75
  -8   6  -3    5.87    1.04
  -8   6  -3    4.69    1.23
  -8   6  -4   31.27    1.95
  -8   6  -4   29.56    2.14
  -8   6  -5    1.94    1.15
  -8   6  -5    2.54    1.08
  -8   6  -6   55.27    3.03
  -8   6  -6   51.41    2.80
  -8   6  -7   37.88    2.65
  -8   6  -7   36.46    2.51
  -8   6  -8    2.14    1.41
  -8   6  -9   14.17    2.09
  -8   6 -10   -0.08    1.42
  -8   6 -11    2.97    1.84
  -8   6 -12    0.54    1.52
   8  -6  13    3.54    1.93
  -8   6 -13   10.73    2.44
   8  -6  14   -1.13    2.12
  -8   6 -14    1.74    1.71
   8  -6  15   -0.60    2.13
  -7   5  15   -0.44    1.83
  -7   5  14    5.38    2.09
  -7   5  13    0.55    1.73
  -7   5  12    3.55    1.83
  -7   5  11    4.58    1.82
  -7   5  10   18.04    2.61
  -7   5   9   14.93    2.13
  -7   5   8   24.18    2.52
   7  -5  -7    2.86    0.49
  -7   5   7    4.97    1.62
  -7   5   6   14.08    1.73
  -7   5   5   13.57    1.59
  -7   5   4    3.13    1.31
   7  -5  -3   35.79    1.29
  -7   5   3   35.10    2.24
   7  -5  -2   40.56    1.58
  -7   5   2   46.95    2.36
   7  -5  -1   45.47    1.77
  -7   5   1   45.20    2.37
   7  -5   0  267.03    8.23
  -7   5   0  274.77    8.24
  -7   5   0  266.28    8.88
  -7   5   0  270.61    8.31
  -7   5  -1   42.78    2.29
  -7   5  -1   44.40    1.91
  -7   5  -1   45.49    1.72
  -7   5  -2   43.98    1.97
  -7   5  -2   42.44    2.26
  -7   5  -2   41.70    1.61
  -7   5  -3   36.95    1.90
  -7   5  -3   38.10    2.06
  -7   5  -4    5.40    1.20
  -7   5  -4    7.25    1.12
  -7   5  -5   14.36    1.62
  -7   5  -5   13.19    1.51
  -7   5  -6   15.30    1.67
  -7   5  -6   19.70    1.97
  -7   5  -7    1.83    1.15
  -7   5  -7    4.65    1.34
  -7   5  -8   23.61    2.25
  -7   5  -9   16.66    2.07
  -7   5 -10   14.27    2.08
  -7   5 -11    4.50    1.71
  -7   5 -12    3.10    1.86
  -7   5 -13   -0.35    1.45
  -7   5 -14    3.52    1.79
   7  -5  15    2.16    1.91
  -6   4  15   -0.41    1.80
  -6   4  14    7.34    2.48
  -6   4  13    2.68    1.84
  -6   4  12    2.20    2.02
  -6   4  11   23.40    2.66
  -6   4  10   14.31    2.20
  -6   4  10   16.69    1.49
   6  -4  -9   25.36    1.50
  -6   4   9   27.04    2.52
   6  -4  -8    2.10    0.70
  -6   4   8    1.12    1.31
   6  -4  -7   11.06    0.84
  -6   4   7    7.19    1.47
   6  -4  -6  151.07    4.56
  -6   4   6  147.73    5.57
  -6   4   5   16.76    1.70
  -6   4   5   15.75    0.63
  -6   4   4   10.21    1.33
  -6   4   3  233.59    7.79
   6  -4  -2  273.17    7.81
  -6   4   2  255.82    8.66
   6  -4  -1   11.35    0.77
  -6   4   1   12.62    1.42
  -6   4   0   -0.88    0.83
  -6   4   0    0.54    0.53
  -6   4  -1   11.22    1.29
  -6   4  -1   10.35    0.69
  -6   4  -1   11.41    1.02
  -6   4  -2  285.80    9.11
  -6   4  -2  273.44    8.34
  -6   4  -2  283.71    8.68
  -6   4  -3  247.83    8.06
  -6   4  -3  236.79    7.68
  -6   4  -4    9.85    1.26
  -6   4  -4    9.03    1.13
  -6   4  -5   22.29    1.85
  -6   4  -5   21.08    1.63
  -6   4  -6  143.44    5.28
  -6   4  -6  145.32    5.45
  -6   4  -7    9.43    1.49
  -6   4  -8    0.97    1.18
  -6   4  -9   25.85    2.35
  -6   4 -10   17.04    2.14
  -6   4 -11   24.45    2.59
  -6   4 -12    1.29    1.46
  -6   4 -13    1.45    1.54
  -6   4 -14    7.72    2.20
   6  -4  15    1.41    1.77
  -6   4 -15    0.82    1.63
  -5   3  16   -0.98    2.31
  -5   3  15   -2.18    2.08
  -5   3  14   -0.74    1.78
  -5   3  13    1.44    1.75
  -5   3  12    6.01    1.92
  -5   3  11    9.85    1.57
  -5   3  11   11.18    2.38
  -5   3  10   34.13    2.88
  -5   3  10   28.99    1.90
   5  -3  -9   20.68    1.53
  -5   3   9   18.24    2.15
   5  -3  -8   16.81    1.23
  -5   3   8   16.84    1.94
   5  -3  -7   40.01    1.69
  -5   3   7   37.75    2.55
   5  -3  -6    1.73    0.51
  -5   3   6    3.68    1.29
   5  -3  -5    2.37    0.40
  -5   3   5    2.12    1.03
  -5   3   4  141.05    5.01
  -5   3   4  139.23    4.09
  -5   3   3  190.19    6.40
   5  -3  -2  206.56    5.96
  -5   3   2  201.74    6.77
  -5   3   1   23.70    0.99
  -5   3   1   22.40    1.72
  -5   3   0   40.01    1.54
  -5   3   0   38.72    2.06
  -5   3  -1   24.84    1.70
  -5   3  -1   27.95    1.32
  -5   3  -1   29.00    1.07
  -5   3  -2  212.61    6.68
  -5   3  -2  213.89    7.00
  -5   3  -3  184.62    5.96
  -5   3  -3  182.66    6.19
  -5   3  -4  139.27    5.00
  -5   3  -4  143.37    4.87
  -5   3  -5    0.88    0.80
  -5   3  -5    1.33    1.01
  -5   3  -6    1.71    0.94
  -5   3  -6    1.27    0.89
  -5   3  -7   33.06    2.14
  -5   3  -8   17.02    1.83
  -5   3  -9   19.95    2.12
  -5   3 -10   31.53    2.65
  -5   3 -11    7.69    1.83
  -5   3 -12    7.17    2.00
  -5   3 -13    1.08    1.45
  -5   3 -14    0.12    1.47
  -5   3 -15    2.18    1.89
  -5   3 -16   -0.22    1.93
  -4   2  16    0.31    1.95
  -4   2  15    0.39    2.18
  -4   2  14   -2.18    2.01
  -4   2  13    2.29    1.78
  -4   2  12    3.80    2.12
  -4   2  12    6.63    1.58
  -4   2  11    0.25    1.24
  -4   2  11    1.06    1.94
   4  -2 -10  176.87    6.09
  -4   2  10  172.77    6.87
  -4   2  10  183.42    6.17
   4  -2  -9   12.81    1.29
  -4   2   9   12.24    1.87
   4  -2  -8   34.94    1.76
  -4   2   8   34.24    2.40
   4  -2  -7   -0.12    0.57
  -4   2   7    1.28    1.28
   4  -2  -6    0.93    0.54
  -4   2   6    1.63    1.04
   4  -2  -5   30.37    1.21
  -4   2   5   29.48    1.82
  -4   2   4    0.27    0.34
  -4   2   4    2.35    0.89
  -4   2   3   98.22    3.64
  -4   2   2  298.96    9.44
  -4   2   1   17.41    1.14
  -4   2   1   16.69    0.68
  -4   2   0   56.40    1.92
  -4   2   0   56.07    2.27
  -4   2  -1   18.89    0.94
  -4   2  -1   15.66    1.14
  -4   2  -2  299.21    9.08
  -4   2  -2  299.07    9.39
  -4   2  -3   98.08    3.43
  -4   2  -3   95.08    3.55
  -4   2  -4   -0.37    0.65
  -4   2  -4    0.97    0.72
  -4   2  -5   27.97    1.69
  -4   2  -5   28.29    1.67
  -4   2  -6    0.59    0.81
  -4   2  -7   -0.20    0.88
  -4   2  -8   33.42    2.21
  -4   2  -9   10.46    1.61
  -4   2 -10  174.63    6.58
  -4   2 -11   -0.34    1.58
  -4   2 -12    7.39    1.72
  -4   2 -13    0.65    1.41
  -4   2 -14    1.47    1.52
  -4   2 -15    2.16    1.56
  -4   2 -16   -0.20    1.50
  -3   1  16    2.15    2.31
  -3   1  15    2.21    1.90
  -3   1  14   -0.92    2.08
  -3   1  13   21.10    2.24
  -3   1  13   19.15    2.66
  -3   1  12    1.06    1.63
  -3   1  12    1.29    1.48
  -3   1  11   18.58    2.03
  -3   1  11   18.61    2.65
   3  -1 -10   33.42    2.09
  -3   1  10   34.78    2.29
  -3   1  10   33.51    2.83
   3  -1  -9    1.78    0.91
  -3   1   9    2.83    1.43
   3  -1  -8   13.31    1.24
  -3   1   8   15.25    1.79
   3  -1  -7  114.52    3.95
  -3   1   7  117.63    4.60
   3  -1  -6    1.30    0.60
  -3   1   6    0.69    0.97
   3  -1  -5    5.31    0.64
  -3   1   5    5.24    0.65
  -3   1   5    3.75    1.00
  -3   1   4   39.24    1.95
  -3   1   4   36.75    1.42
  -3   1   3   40.98    1.37
  -3   1   3   38.04    1.93
  -3   1   2  487.10   14.75
  -3   1   2  481.58   13.96
  -3   1   1  104.83    3.50
  -3   1   1  102.17    3.09
  -3   1   0  104.35    3.19
  -3   1   0  103.26    3.46
  -3   1  -1   90.57    2.85
  -3   1  -1   84.24    2.96
   3  -1   2  451.39   13.33
  -3   1  -2  461.45   13.39
  -3   1  -2  443.03   13.71
  -3   1  -3   50.82    2.13
  -3   1  -3   50.27    2.07
  -3   1  -4   36.36    1.77
  -3   1  -4   36.60    1.81
  -3   1  -5    5.21    0.92
  -3   1  -6    0.40    0.80
  -3   1  -7  113.96    4.33
  -3   1  -8   12.91    1.56
  -3   1  -9    0.80    1.05
  -3   1 -10   34.70    2.67
  -3   1 -11   18.80    2.18
  -3   1 -12   -0.64    1.27
  -3   1 -13   18.15    2.25
  -3   1 -14    1.46    1.68
  -3   1 -15   -1.53    1.27
  -3   1 -16    0.62    1.77
  -2   0  16   -0.36    2.28
  -2   0  15   -2.27    2.07
  -2   0  14   26.68    3.30
  -2   0  14   23.31    2.56
  -2   0  13   21.13    2.34
  -2   0  13   14.36    2.66
  -2   0  12    1.27    1.65
  -2   0  12    0.35    1.40
  -2   0  11    1.37    1.34
  -2   0  11   -0.70    1.82
  -2   0  10   15.55    1.75
   2   0  -9    4.93    1.13
  -2   0   9    4.76    1.15
   2   0  -8    2.74    0.89
   2   0  -7  105.21    3.74
   2   0  -6  350.87   10.64
  -2   0   5   31.97    1.49
  -2   0   4  355.69   10.63
  -2   0   4  360.80   11.26
  -2   0   3  105.28    3.29
  -2   0   3  103.75    3.73
  -2   0   2  632.85   18.49
  -2   0   2  644.52   19.24
  -2   0   1  283.04    8.52
  -2   0   1  274.20    8.14
  -2   0   0  143.33    4.50
  -2   0   0  143.91    4.31
   2   0   1  275.11    8.06
  -2   0  -1  267.12    8.04
   2   0   2  649.77   19.30
  -2   0  -2  659.69   19.16
  -2   0  -4  362.54   11.01
  -2   0  -5   34.04    1.73
  -2   0  -6  344.22   10.72
  -2   0  -7  103.73    3.96
  -2   0  -8    2.33    0.98
  -2   0  -9    4.66    1.25
  -2   0 -10   13.07    1.74
  -2   0 -11    1.42    1.24
  -2   0 -12    1.57    1.49
  -2   0 -13   19.71    2.41
  -2   0 -14   25.46    2.64
  -2   0 -15    0.47    1.58
   2   0  16    4.62    1.92
  -2   0 -16    2.60    1.86
  -1  -1  16    3.00    2.25
  -1  -1  15    0.29    1.73
  -1  -1  14   30.95    3.24
  -1  -1  14   31.06    2.95
  -1  -1  13    3.28    1.63
  -1  -1  12    3.00    1.38
  -1  -1  11    3.44    1.60
  -1  -1  10    1.47    1.35
  -1  -1   9    0.08    1.07
  -1  -1   6  408.31   12.38
  -1  -1   5    8.59    0.96
  -1  -1   4  218.33    6.71
  -1  -1   3   82.61    2.76
  -1  -1   2    9.15    0.54
  -1  -1   1  144.22    4.38
  -1  -1   0  555.88   16.16
   1   1   1  137.45    4.30
  -1  -1  -1  139.78    4.23
  -1  -1  -1  141.68    4.29
   1   1   2    9.33    0.58
  -1  -1  -2    8.19    0.60
  -1  -1  -2    8.65    0.49
   1   1   3   84.19    2.85
  -1  -1  -3   82.34    2.88
  -1  -1  -4  226.81    7.10
  -1  -1  -5    7.65    0.94
  -1  -1  -6  397.00   12.16
  -1  -1  -7   18.82    1.62
  -1  -1  -8   32.54    1.97
  -1  -1  -9    0.90    0.92
  -1  -1 -10    0.72    1.09
  -1  -1 -11    0.99    1.36
  -1  -1 -12    2.56    1.54
  -1  -1 -13    1.37    1.50
  -1  -1 -14   28.73    2.80
  -1  -1 -15    0.64    1.56
   1   1  16    2.18    1.99
   1   1  16    3.66    2.00
  -1  -1 -16    2.48    1.67
   0  -2  16    2.50    1.99
   0  -2  15   -0.38    1.70
   0  -2  14   24.88    2.76
   0  -2  13   17.82    2.40
   0  -2  12   -0.49    1.49
   0  -2  11    0.75    1.32
   0  -2  10   12.79    1.76
   0  -2   9    6.37    1.46
   0  -2   8    4.22    1.20
   0  -2   7  107.77    4.00
   0  -2   6  340.51   10.53
   0  -2   5   32.05    1.68
   0  -2   4  353.06   10.65
   0  -2   3  103.86    3.44
   0  -2   2  646.75   18.89
   0  -2   1  280.08    8.32
   0   2   0  144.61    4.48
   0  -2   0  141.61    4.40
   0   2   1  277.71    8.42
   0  -2  -1  278.74    8.30
   0   2   2  655.68   19.59
   0  -2  -2  662.52   19.26
   0   2   3  111.60    3.71
   0  -2  -3  106.22    3.61
   0  -2  -4  334.64   10.12
   0  -2  -5   32.06    1.57
   0  -2  -6  342.22   10.56
   0  -2  -7  104.26    3.84
   0  -2  -8    2.10    0.88
   0  -2  -9    4.21    1.08
   0  -2 -10   15.94    1.85
   0  -2 -11    0.29    1.30
   0  -2 -12    0.83    1.37
   0   2  13   18.21    2.41
   0  -2 -13   16.50    2.11
   0   2  14   25.24    2.82
   0  -2 -14   26.91    2.65
   0   2  15   -1.33    1.72
   0   2  15    0.99    1.44
   0  -2 -15    0.26    1.05
   0   2  16    3.87    1.81
   1  -3  16    2.14    2.01
   1  -3  15    0.16    1.93
   1  -3  14   -0.36    1.73
   1  -3  13   24.01    2.63
   1  -3  12    1.56    1.76
   1  -3  11   21.41    2.51
   1  -3  10   36.10    2.56
   1  -3   9    2.38    1.21
   1  -3   8   12.60    1.49
   1  -3   7  123.88    4.61
   1  -3   6    0.86    0.77
   1  -3   5    5.97    0.91
   1  -3   4   34.64    1.69
   1  -3   3   55.37    2.20
   1  -3   2  439.95   13.04
   1  -3   1   85.10    2.83
  -1   3   0  102.38    3.23
  -1   3   0  101.69    3.37
   1  -3   0  102.88    3.32
  -1   3   1   85.15    2.82
  -1   3   1   91.62    3.04
   1  -3  -1   97.62    3.04
  -1   3   2  436.05   13.08
  -1   3   2  431.29   12.92
  -1   3   3   54.70    1.93
  -1   3   3   49.19    2.12
  -1   3   4   36.48    1.61
  -1   3   4   36.74    1.80
  -1   3   5    6.84    0.86
  -1   3   6    0.59    0.82
   1  -3  -6    0.13    0.16
  -1   3   8   11.59    1.34
  -1   3   9    4.56    1.32
  -1   3  10   31.66    2.47
  -1   3  11   17.19    2.02
  -1   3  12   -0.18    1.55
   1  -3 -12   -0.55    0.94
  -1   3  13   20.02    2.55
   1  -3 -13   20.09    2.16
  -1   3  14    1.64    1.52
  -1   3  14   -1.62    1.70
   1  -3 -14   -0.56    1.28
  -1   3  15    2.34    1.88
  -1   3  15    1.96    1.97
   1  -3 -15   -1.07    1.40
  -1   3  16    2.39    1.98
   2  -4  16   -0.09    1.99
   2  -4  15    2.59    2.05
   2  -4  14    0.05    1.57
   2  -4  13    1.06    1.79
   2  -4  12    7.22    1.85
   2  -4  11   -0.05    1.66
   2  -4  10  175.46    6.62
   2  -4   9   12.94    1.78
   2  -4   8   33.88    2.23
   2  -4   7   -1.61    1.04
   2  -4   6    1.56    0.89
   2  -4   5   29.61    1.69
   2  -4   4    0.15    0.74
   2  -4   3   97.51    3.46
   2  -4   2  285.03    8.71
  -2   4  -1   16.30    1.09
  -2   4  -1   17.93    1.02
   2  -4   1   17.34    1.08
  -2   4   0   57.60    2.20
  -2   4   0   56.44    2.05
   2  -4   0   55.14    2.13
  -2   4   1   17.15    0.85
  -2   4   1   17.50    1.08
   2  -4  -1   15.89    1.12
  -2   4   2  292.05    9.19
  -2   4   2  302.27    9.06
  -2   4   3   97.67    3.30
  -2   4   3   99.75    3.55
   2  -4  -3   97.70    3.36
  -2   4   4   -0.10    0.64
  -2   4   4    1.58    0.76
   2  -4  -4    0.49    0.57
  -2   4   5   28.33    1.72
  -2   4   5   29.33    1.49
   2  -4  -5   28.86    1.47
  -2   4   6   -0.18    0.77
   2  -4  -6   -0.08    0.66
  -2   4   7    1.10    0.98
   2  -4  -7   -0.48    0.66
  -2   4   8   32.41    2.09
   2  -4  -8   32.79    1.89
  -2   4   9   17.74    1.88
   2  -4  -9   15.39    1.59
  -2   4  10  180.93    6.62
   2  -4 -10  171.83    6.25
  -2   4  11    2.12    1.57
   2  -4 -11    0.05    1.13
  -2   4  12    8.80    1.94
   2  -4 -12    8.33    1.53
  -2   4  13    0.83    1.46
  -2   4  13    0.87    1.61
   2  -4 -13    1.11    1.23
  -2   4  14    1.09    1.76
  -2   4  14    1.06    1.52
   2  -4 -14    2.74    1.51
  -2   4  15    0.07    1.88
  -2   4  16   -1.24    1.50
   3  -5  15    3.58    1.90
   3  -5  14    1.90    1.76
   3  -5  13    0.51    1.59
   3  -5  12    6.73    1.84
   3  -5  11    9.00    2.20
   3  -5  10   34.81    2.83
   3  -5   9   19.04    2.07
   3  -5   8   16.66    1.86
   3  -5   7   37.19    2.28
   3  -5   6    1.69    0.96
   3  -5   5    0.99    0.84
   3  -5   4  142.59    4.91
   3  -5   3  177.81    5.82
  -3   5  -2  205.85    6.81
   3  -5   2  211.50    6.63
  -3   5  -1   23.28    1.39
  -3   5  -1   23.77    1.44
   3  -5   1   27.90    1.48
  -3   5   0   38.69    1.77
  -3   5   0   40.83    1.90
   3  -5   0   41.51    1.83
  -3   5   1   26.09    1.48
  -3   5   1   26.14    1.34
  -3   5   2  210.09    6.41
  -3   5   2  208.37    6.26
   3  -5  -2  174.47    6.19
  -3   5   3  183.69    6.10
  -3   5   3  183.25    5.87
   3  -5  -3  183.60    5.88
  -3   5   4  143.82    4.73
  -3   5   4  140.15    4.96
   3  -5  -4  142.31    4.67
  -3   5   5    0.88    0.65
  -3   5   5    1.91    0.80
   3  -5  -5    3.85    0.77
  -3   5   6    1.29    0.86
  -3   5   6    1.92    1.00
   3  -5  -6    1.74    0.70
  -3   5   7   38.19    2.28
  -3   5   7   34.13    2.00
   3  -5  -7   34.55    1.79
  -3   5   8   16.29    1.66
  -3   5   8   16.82    1.84
   3  -5  -8   17.95    1.48
  -3   5   9   18.16    1.92
   3  -5  -9   20.92    1.70
  -3   5  10   29.97    2.46
   3  -5 -10   26.03    1.95
  -3   5  11   11.89    1.96
  -3   5  11    5.33    1.75
   3  -5 -11    8.80    1.47
  -3   5  12    7.24    1.84
  -3   5  12    5.91    1.73
   3  -5 -12    4.97    1.34
  -3   5  13    3.40    1.62
  -3   5  13    4.89    1.82
   3  -5 -13    0.56    1.13
  -3   5  14    0.37    1.58
  -3   5  14    2.45    1.86
  -3   5  15   -0.78    1.52
   4  -6  15   -1.18    1.68
   4  -6  14    9.19    2.27
   4  -6  13    0.81    1.68
   4  -6  12    1.87    1.63
   4  -6  11   24.45    2.67
   4  -6  10   15.87    2.23
   4  -6   9   24.52    2.39
   4  -6   8    0.96    1.23
   4  -6   7    9.56    1.49
   4  -6   6  151.66    5.50
   4  -6   5   16.54    1.56
   4  -6   4   12.02    1.19
  -4   6  -3  239.19    8.03
   4  -6   3  248.13    7.80
  -4   6  -2  253.46    8.50
   4  -6   2  276.10    8.34
  -4   6  -1   13.11    1.14
  -4   6  -1    6.99    0.89
   4  -6   1   12.33    1.16
  -4   6   0   -0.61    0.58
  -4   6   0   -0.12    0.73
   4  -6   0    0.83    0.73
  -4   6   1   10.00    1.10
  -4   6   1   10.78    1.01
  -4   6   2  283.49    8.77
  -4   6   2  284.04    8.65
   4  -6  -2  259.10    8.51
  -4   6   3  237.21    7.80
  -4   6   3  245.88    7.66
   4  -6  -3  237.02    7.54
  -4   6   4   10.01    1.06
  -4   6   4    9.27    1.21
   4  -6  -4    9.59    1.02
  -4   6   5   18.69    1.65
  -4   6   5   19.56    1.51
   4  -6  -5   16.41    1.28
  -4   6   6  144.78    5.16
  -4   6   6  146.65    5.44
   4  -6  -6  149.49    4.91
  -4   6   7    8.01    1.48
  -4   6   7    8.24    1.33
   4  -6  -7   10.05    1.09
  -4   6   8    1.85    1.17
  -4   6   8    2.73    1.07
   4  -6  -8    2.58    0.87
  -4   6   9   26.15    2.22
  -4   6   9   23.97    2.35
   4  -6  -9   24.14    1.85
  -4   6  10   16.49    2.22
  -4   6  10   20.12    2.15
   4  -6 -10   17.53    1.67
  -4   6  11   21.59    2.49
  -4   6  11   22.52    2.37
   4  -6 -11   28.16    2.09
  -4   6  12    0.75    1.51
  -4   6  12   -3.40    1.39
   4  -6 -12    0.94    1.17
  -4   6  13    5.13    1.91
  -4   6  13    0.24    1.80
  -4   6  14    1.16    1.60
  -4   6  15   -2.37    1.53
   5  -7  15    1.70    1.95
   5  -7  14    1.68    1.87
   5  -7  13    0.13    1.70
   5  -7  12    3.36    1.78
   5  -7  11    6.74    1.93
   5  -7  10   19.28    2.46
   5  -7   9   17.20    2.21
   5  -7   8   22.92    2.29
   5  -7   7    1.01    1.19
   5  -7   6   16.67    1.77
   5  -7   5   13.01    1.51
  -5   7  -4    5.76    1.17
   5  -7   4    7.45    1.19
  -5   7  -3   34.84    2.01
   5  -7   3   37.38    2.00
  -5   7  -2   48.07    2.26
  -5   7  -2   49.34    2.23
   5  -7   2   43.02    2.16
  -5   7  -1   44.93    2.12
   5  -7   1   46.66    2.22
  -5   7   0  272.05    8.81
  -5   7   0  277.47    8.80
   5  -7   0  275.00    8.61
  -5   7   1   44.63    2.11
  -5   7   1   45.11    2.09
  -5   7   2   41.81    2.08
  -5   7   2   37.37    1.89
   5  -7  -2   49.55    2.15
  -5   7   3   36.24    1.97
  -5   7   3   35.41    1.84
   5  -7  -3   35.59    1.83
  -5   7   4    6.53    1.09
  -5   7   4    7.86    1.23
   5  -7  -4    3.71    0.98
  -5   7   5   13.21    1.39
  -5   7   5   11.09    1.33
   5  -7  -5   13.57    1.25
  -5   7   6   14.79    1.59
  -5   7   6   14.86    1.70
   5  -7  -6   14.95    1.32
  -5   7   7    2.34    1.27
  -5   7   7    3.51    1.16
   5  -7  -7    3.07    0.85
  -5   7   8   24.18    2.30
  -5   7   8   24.80    2.09
   5  -7  -8   21.94    1.59
  -5   7   9   13.50    1.98
  -5   7   9   18.81    2.00
   5  -7  -9   15.48    1.45
  -5   7  10   16.86    2.25
  -5   7  10   14.65    2.19
   5  -7 -10   18.67    1.70
  -5   7  11    2.93    1.69
  -5   7  11    2.65    1.62
   5  -7 -11    5.86    1.28
  -5   7  12    0.50    1.44
  -5   7  12    4.33    1.76
  -5   7  13   -0.03    1.71
  -5   7  13    3.21    1.72
  -5   7  14    1.80    1.76
  -5   7  15    0.00    1.66
   6  -8  15    1.94    2.35
   6  -8  14    0.52    2.26
   6  -8  13    5.58    2.05
   6  -8  12    2.08    2.10
   6  -8  11    1.65    1.97
   6  -8  10    1.24    1.62
   6  -8   9   10.66    2.02
   6  -8   8   -1.94    1.33
   6  -8   7   37.51    2.61
   6  -8   6   45.84    2.68
  -6   8  -5    1.80    1.07
   6  -8   5    3.05    1.17
  -6   8  -4   31.88    2.15
   6  -8   4   32.20    2.06
  -6   8  -3    2.18    1.01
   6  -8   3    4.06    1.07
  -6   8  -2    7.04    1.15
  -6   8  -2    7.26    1.16
   6  -8   2    7.47    1.15
  -6   8  -1   37.59    1.98
   6  -8   1   32.73    1.99
  -6   8   0   15.45    1.52
  -6   8   0   17.66    1.52
   6  -8   0   17.50    1.50
  -6   8   1   30.17    1.80
  -6   8   1   32.98    1.86
  -6   8   2    8.03    1.12
  -6   8   2    7.54    1.14
   6  -8  -2    7.73    1.18
  -6   8   3    3.95    1.02
  -6   8   3    4.91    1.11
   6  -8  -3    4.46    1.13
  -6   8   4   29.66    2.04
  -6   8   4   35.09    2.00
   6  -8  -4   32.13    1.83
  -6   8   5    3.14    1.11
  -6   8   5    3.52    1.25
   6  -8  -5    2.86    0.91
  -6   8   6   47.41    2.77
  -6   8   6   52.72    2.70
   6  -8  -6   49.11    2.24
  -6   8   7   41.17    2.41
  -6   8   7   37.57    2.62
   6  -8  -7   40.93    1.99
  -6   8   8    0.01    1.31
  -6   8   8    1.25    1.32
   6  -8  -8    0.83    0.90
  -6   8   9   10.96    1.95
  -6   8   9   13.99    1.91
   6  -8  -9   12.31    1.37
  -6   8  10    1.73    1.75
  -6   8  10    1.90    1.61
   6  -8 -10    2.42    1.02
  -6   8  11   -0.32    1.53
  -6   8  11   -0.98    1.40
  -6   8  12    0.78    1.65
  -6   8  12    1.52    1.55
  -6   8  13    3.19    1.81
  -6   8  14    1.09    1.76
  -6   8  15    1.23    1.82
   7  -9  14    4.49    2.17
   7  -9  13    3.71    2.02
   7  -9  12    9.26    2.27
   7  -9  11    0.51    1.62
   7  -9  10    3.29    1.78
   7  -9   9    1.47    1.64
   7  -9   8   19.59    2.29
   7  -9   7   40.44    2.81
   7  -9   6   21.25    2.12
  -7   9  -5    8.22    1.52
   7  -9   5    6.78    1.43
  -7   9  -4  114.64    4.69
   7  -9   4  113.18    4.48
  -7   9  -3   44.22    2.47
   7  -9   3   40.81    2.36
  -7   9  -2    2.75    1.04
  -7   9  -2    3.36    1.10
   7  -9   2    3.68    1.06
  -7   9  -1   59.28    2.73
   7  -9   1   53.70    2.61
  -7   9   0   24.12    1.90
  -7   9   0   22.49    1.69
   7  -9   0   23.80    1.83
  -7   9   1   64.73    2.94
  -7   9   1   58.73    2.72
  -7   9   2    3.36    1.06
  -7   9   2    2.54    1.05
   7  -9  -2    1.07    1.01
  -7   9   3   43.52    2.29
  -7   9   3   37.10    2.27
   7  -9  -3   40.89    2.26
  -7   9   4  118.89    4.68
  -7   9   4  116.96    4.51
   7  -9  -4  120.47    4.37
  -7   9   5    8.66    1.53
  -7   9   5   10.10    1.52
   7  -9  -5    9.82    1.26
  -7   9   6   23.32    2.05
  -7   9   6   22.45    2.20
   7  -9  -6   25.56    1.65
  -7   9   7   32.88    2.72
  -7   9   7   36.09    2.46
   7  -9  -7   40.00    2.04
  -7   9   8   18.87    2.25
  -7   9   8   22.76    2.19
   7  -9  -8   21.20    1.63
  -7   9   9   -0.76    1.42
  -7   9   9    1.95    1.69
   7  -9  -9    0.98    0.87
  -7   9  10    3.57    1.67
  -7   9  10    1.57    1.53
  -7   9  11    0.73    1.59
  -7   9  11    0.60    1.49
  -7   9  12    3.51    1.77
  -7   9  13    6.35    1.96
  -7   9  14    0.77    1.76
   8 -10  14    5.24    2.23
   8 -10  13    1.45    2.22
   8 -10  12   -0.38    1.80
   8 -10  11    4.55    1.97
   8 -10  10   18.88    2.57
   8 -10   9    5.13    1.87
   8 -10   8    2.42    1.68
   8 -10   7   12.41    1.98
  -8  10  -6   24.03    2.41
   8 -10   6   27.64    2.46
  -8  10  -5   12.21    1.84
   8 -10   5   10.08    1.70
  -8  10  -4   67.71    3.36
   8 -10   4   62.53    3.17
  -8  10  -3   44.29    2.61
   8 -10   3   43.21    2.52
  -8  10  -2   25.79    2.12
  -8  10  -2   26.57    2.03
   8 -10   2   21.09    1.91
  -8  10  -1   11.62    1.50
  -8  10  -1   13.02    1.54
   8 -10   1   14.44    1.56
  -8  10   0   32.60    2.12
  -8  10   0   35.93    2.12
   8 -10   0   35.12    2.22
  -8  10   1   11.45    1.40
  -8  10   1   11.83    1.48
  -8  10   2   22.15    1.88
  -8  10   2   22.60    1.74
   8 -10  -2   24.39    1.93
  -8  10   3   40.67    2.31
  -8  10   3   40.90    2.48
   8 -10  -3   45.59    2.37
  -8  10   4   66.29    3.32
  -8  10   4   72.50    3.30
   8 -10  -4   71.17    3.13
  -8  10   5   11.15    1.66
  -8  10   5   13.47    1.87
   8 -10  -5   14.92    1.60
  -8  10   6   25.02    2.36
  -8  10   6   21.75    2.14
   8 -10  -6   28.82    1.90
  -8  10   7   11.68    1.81
  -8  10   7   18.04    2.06
   8 -10  -7   17.17    1.50
  -8  10   8    2.76    1.59
  -8  10   8   -0.21    1.56
   8 -10  -8    2.95    0.96
  -8  10   9    5.15    1.77
  -8  10   9    5.26    1.77
  -8  10  10   16.50    2.36
  -8  10  10   16.75    2.22
  -8  10  11    8.21    1.99
  -8  10  11    6.59    1.87
  -8  10  12    0.57    1.64
  -8  10  13    1.38    1.77
  -8  10  14   -1.28    1.65
   9 -11  14    6.52    2.46
   9 -11  13    0.20    1.94
   9 -11  12    3.84    1.99
   9 -11  11   16.47    2.83
   9 -11  10    4.12    1.91
   9 -11   9   11.12    2.18
   9 -11   8    6.65    1.92
   9 -11   7    5.99    1.79
  -9  11  -6   61.14    3.52
   9 -11   6   53.47    3.37
  -9  11  -5    9.33    1.87
   9 -11   5   11.66    1.86
  -9  11  -4   27.66    2.46
   9 -11   4   26.33    2.32
  -9  11  -3   83.40    3.56
  -9  11  -3   79.30    3.80
   9 -11   3   78.50    3.71
  -9  11  -2   24.17    2.20
  -9  11  -2   25.82    2.26
   9 -11   2   29.22    2.45
  -9  11  -1   18.89    1.90
  -9  11  -1   17.49    1.92
   9 -11   1   17.19    1.81
  -9  11   0   11.49    1.48
  -9  11   0   12.37    1.61
   9 -11   0    9.53    1.58
  -9  11   1   15.70    1.71
  -9  11   1   13.49    1.71
  -9  11   2   22.92    2.01
  -9  11   2   22.55    2.03
   9 -11  -2   28.23    2.07
  -9  11   3   76.32    3.69
  -9  11   3   81.97    3.70
   9 -11  -3   83.56    3.59
  -9  11   4   31.04    2.37
  -9  11   4   29.89    2.47
   9 -11  -4   29.57    2.17
  -9  11   5   10.68    1.77
  -9  11   5   12.01    1.82
   9 -11  -5   12.10    1.57
  -9  11   6   60.99    3.49
  -9  11   6   56.09    3.20
   9 -11  -6   58.88    2.79
  -9  11   7    8.10    1.85
  -9  11   7    7.86    1.89
   9 -11  -7    7.60    1.25
  -9  11   8    8.19    1.88
  -9  11   8    8.58    2.03
  -9  11   9   10.54    2.13
  -9  11   9   13.05    2.09
  -9  11  10   -0.17    1.59
  -9  11  10    2.41    1.86
  -9  11  11    9.82    2.23
  -9  11  12    0.92    1.73
  -9  11  13    0.20    1.73
  -9  11  14    0.23    1.93
  10 -12  13    3.48    2.58
  10 -12  12    2.30    2.03
  10 -12  11    5.24    2.17
  10 -12  10    7.53    2.18
  10 -12   9    1.42    1.76
  10 -12   8   -0.55    1.65
 -10  12  -7    1.57    1.59
  10 -12   7    0.22    1.92
 -10  12  -6    0.54    1.49
  10 -12   6    0.88    1.58
 -10  12  -5   13.85    2.11
  10 -12   5   15.05    2.12
 -10  12  -4    9.76    1.83
  10 -12   4   13.40    1.98
 -10  12  -3   37.96    2.70
 -10  12  -3   40.05    2.57
  10 -12   3   41.42    2.78
 -10  12  -2    3.29    1.53
 -10  12  -2    4.27    1.44
  10 -12   2    3.94    1.46
 -10  12  -1    2.32    1.30
 -10  12  -1    0.55    1.42
  10 -12   1    0.93    1.19
 -10  12   0    1.35    1.21
 -10  12   0    0.87    0.82
  10 -12   0    1.72    1.24
 -10  12   1    0.03    1.34
 -10  12   1    2.20    1.24
  10 -12  -1    0.58    1.21
 -10  12   2    4.35    1.36
 -10  12   2    4.06    1.63
  10 -12  -2    6.86    1.52
 -10  12   3   40.31    2.70
 -10  12   3   38.80    2.74
  10 -12  -3   37.16    2.49
 -10  12   4   10.98    1.83
 -10  12   4   11.38    1.91
  10 -12  -4   12.66    1.79
 -10  12   5   14.67    1.91
 -10  12   5   14.57    2.13
  10 -12  -5   17.20    1.92
 -10  12   6    0.27    1.52
 -10  12   6    0.56    1.53
  10 -12  -6    1.39    1.22
 -10  12   7    3.80    1.72
 -10  12   7    1.47    1.72
 -10  12   8    2.75    1.91
 -10  12   8   -0.65    1.59
 -10  12   9    2.83    1.67
 -10  12   9    1.59    1.68
 -10  12  10   10.17    2.18
 -10  12  10    8.47    2.01
 -10  12  11    9.23    2.29
 -10  12  12   -1.06    1.70
 -10  12  13    4.57    2.09
  11 -13  13    0.03    2.10
  11 -13  12    5.60    2.70
  11 -13  11    0.52    1.92
  11 -13  10   17.21    2.64
  11 -13   9    2.16    1.84
  11 -13   8   14.11    2.32
 -11  13  -7    4.33    1.80
  11 -13   7    1.20    1.74
 -11  13  -6    1.44    1.63
  11 -13   6    1.66    1.77
 -11  13  -5   -0.28    1.55
  11 -13   5    3.56    1.74
 -11  13  -4    4.94    1.69
  11 -13   4    1.05    1.57
 -11  13  -3    1.44    1.46
 -11  13  -3    4.90    1.53
  11 -13   3    4.83    1.87
 -11  13  -2   38.48    2.91
 -11  13  -2   42.27    2.89
  11 -13   2   42.02    2.88
 -11  13  -1    1.87    1.45
 -11  13  -1    3.60    1.47
  11 -13   1    4.91    1.74
 -11  13   0   82.50    3.97
  11 -13   0   78.65    3.80
 -11  13   1    5.83    1.72
 -11  13   1    5.88    1.78
  11 -13  -1    0.55    1.52
 -11  13   2   47.07    3.04
 -11  13   2   41.56    2.86
  11 -13  -2   40.86    2.97
 -11  13   3    5.42    1.83
 -11  13   3    4.29    1.43
  11 -13  -3    2.01    1.54
 -11  13   4    2.75    1.66
 -11  13   4    2.98    1.59
  11 -13  -4    5.83    1.62
 -11  13   5    0.35    1.64
 -11  13   5    0.56    1.54
  11 -13  -5    1.28    1.53
 -11  13   6   -1.42    1.49
 -11  13   6   -0.31    1.65
 -11  13   7    1.67    1.67
 -11  13   7   -0.44    1.58
 -11  13   8   13.34    2.18
 -11  13   8   10.27    2.20
 -11  13   9    0.08    1.69
 -11  13   9    1.90    1.70
 -11  13  10   11.54    2.38
 -11  13  11   -2.01    1.63
 -11  13  12    2.76    2.00
 -11  13  13    1.21    1.94
  12 -14  12   -0.58    1.95
  12 -14  11    1.37    1.97
  12 -14  10    2.20    1.94
  12 -14   9   -0.18    1.79
  12 -14   8   -1.27    1.67
 -12  14  -7   18.82    2.65
  12 -14   7   19.12    2.61
 -12  14  -6   -0.69    1.52
  12 -14   6   -1.61    1.65
 -12  14  -5    2.61    1.72
  12 -14   5    0.12    1.70
 -12  14  -4    1.27    1.59
  12 -14   4    1.86    1.70
 -12  14  -3    2.80    1.60
 -12  14  -3    1.90    1.52
  12 -14   3    3.42    2.00
 -12  14  -2   -0.23    1.41
 -12  14  -2   -1.07    1.58
  12 -14   2   -0.32    1.50
 -12  14  -1   21.31    2.48
 -12  14  -1   19.54    2.32
  12 -14   1   18.99    2.44
 -12  14   0   -0.01    0.82
 -12  14   0    1.41    1.49
  12 -14   0    3.17    1.53
 -12  14   1   17.49    2.16
 -12  14   1   20.58    2.32
  12 -14  -1   19.62    2.31
 -12  14   2    1.39    1.43
 -12  14   2    0.69    1.47
  12 -14  -2   -1.34    1.55
 -12  14   3    3.20    1.59
 -12  14   3    2.58    1.79
  12 -14  -3    4.38    1.61
 -12  14   4    1.95    1.76
 -12  14   4    4.26    1.75
  12 -14  -4    1.35    1.61
 -12  14   5    3.03    1.75
 -12  14   5    2.72    1.76
 -12  14   6    1.97    1.68
 -12  14   6    2.89    1.83
 -12  14   7   22.00    2.70
 -12  14   7   22.29    2.56
 -12  14   8    0.81    1.69
 -12  14   8    0.69    1.64
 -12  14   9   -2.05    1.64
 -12  14   9    0.60    1.70
 -12  14  10    2.17    1.95
 -12  14  11    2.17    1.98
 -12  14  12    0.63    1.91
  13 -15  11    3.23    2.27
  13 -15  10    2.60    2.49
  13 -15   9    2.89    2.04
  13 -15   8   -0.56    1.77
 -13  15  -7    8.31    2.10
  13 -15   7    9.09    2.55
 -13  15  -6   14.02    2.36
  13 -15   6   11.85    2.34
 -13  15  -5    3.07    1.70
  13 -15   5    0.47    1.98
 -13  15  -4    9.44    2.04
  13 -15   4    7.55    2.02
 -13  15  -3    1.19    1.59
 -13  15  -3    1.23    1.54
  13 -15   3    0.76    1.69
 -13  15  -2   14.67    2.25
 -13  15  -2   10.64    2.14
  13 -15   2    9.14    2.24
 -13  15  -1   17.29    2.44
 -13  15  -1   17.83    2.37
  13 -15   1   17.84    2.31
 -13  15   0   -0.88    1.80
 -13  15   0   -1.47    1.54
  13 -15   0   -3.19    1.58
 -13  15   1   18.87    2.35
 -13  15   1   15.83    2.28
  13 -15  -1   18.67    2.47
 -13  15   2    7.58    1.82
 -13  15   2   15.52    2.37
  13 -15  -2    9.87    2.07
 -13  15   3    1.24    1.77
 -13  15   3    3.00    1.67
  13 -15  -3    1.81    1.77
 -13  15   4    8.72    2.01
 -13  15   4    6.99    2.17
  13 -15  -4   10.58    1.93
 -13  15   5    1.78    1.51
 -13  15   5    2.37    1.72
 -13  15   6    8.43    2.10
 -13  15   6   11.84    2.22
 -13  15   7   15.18    2.35
 -13  15   7   10.53    2.26
 -13  15   8    0.77    1.77
 -13  15   8   -0.36    1.72
 -13  15   9    1.01    1.90
 -13  15  10    2.63    2.07
 -13  15  11    2.76    2.02
  14 -16  10    0.97    2.14
  14 -16   9    4.07    2.17
  14 -16   8    2.16    2.09
 -14  16  -7    3.49    1.84
  14 -16   7   -1.69    1.85
 -14  16  -6    6.43    2.00
  14 -16   6    3.04    2.25
 -14  16  -5    2.09    1.72
  14 -16   5   -0.17    1.78
 -14  16  -4    0.29    1.52
  14 -16   4    3.30    1.84
 -14  16  -3    1.08    1.58
 -14  16  -3   -0.17    1.49
  14 -16   3    2.03    1.77
 -14  16  -2    3.06    1.82
 -14  16  -2   -0.84    1.54
  14 -16   2    0.29    1.88
 -14  16  -1    3.46    1.92
 -14  16  -1    2.85    1.66
  14 -16   1    4.43    1.84
 -14  16   0   15.46    2.29
 -14  16   0   11.78    2.31
  14 -16   0    7.48    1.56
 -14  16   1    3.20    1.97
 -14  16   1   -0.75    1.72
  14 -16  -1    0.16    1.86
 -14  16   2    0.47    1.53
 -14  16   2    0.66    1.82
  14 -16  -2    2.66    1.99
 -14  16   3    0.69    1.56
 -14  16   3    3.08    1.92
  14 -16  -3   -0.04    1.54
 -14  16   4   -0.58    1.69
 -14  16   4    0.36    1.89
 -14  16   5    1.44    1.73
 -14  16   5    0.86    1.74
 -14  16   6    5.38    2.01
 -14  16   6    3.17    1.89
 -14  16   7    2.00    1.91
 -14  16   7    3.45    1.97
 -14  16   8    7.81    2.29
 -14  16   9   -0.82    2.24
 -14  16  10   -0.55    1.93
  15 -17   9   -0.66    2.08
  15 -17   8    1.11    1.99
 -15  17  -7    5.87    2.18
  15 -17   7    3.20    2.12
 -15  17  -6    2.26    1.92
  15 -17   6    5.79    2.17
 -15  17  -5   -1.66    1.56
  15 -17   5    1.31    2.27
 -15  17  -4    2.11    1.71
  15 -17   4    0.94    2.19
 -15  17  -3    5.84    2.18
  15 -17   3    6.96    2.31
 -15  17  -2    0.27    1.58
  15 -17   2    4.66    1.86
 -15  17  -1   -1.21    1.76
 -15  17  -1    4.37    1.99
  15 -17   1    0.80    2.00
 -15  17   0    4.44    1.74
 -15  17   0   -0.96    1.81
  15 -17   0   -1.61    0.66
 -15  17   1    2.98    1.72
 -15  17   1   -0.81    0.87
  15 -17  -1    1.14    2.03
 -15  17   2    1.35    1.63
 -15  17   2   -0.78    1.54
  15 -17  -2   -0.82    1.93
 -15  17   3    5.60    2.03
 -15  17   3    2.67    1.75
 -15  17   4    5.07    2.27
 -15  17   4    2.29    1.64
 -15  17   5    2.46    1.90
 -15  17   5    0.90    1.76
 -15  17   6    7.33    2.15
 -15  17   6    6.96    2.49
 -15  17   7    2.71    1.99
 -15  17   7    5.92    2.19
 -15  17   8    0.63    1.93
 -15  17   9   -0.21    2.33
  16 -18   8   -0.03    2.11
 -16  18  -7    0.93    1.89
  16 -18   7   -1.26    2.03
 -16  18  -6   -0.44    1.80
  16 -18   6   -2.02    2.23
 -16  18  -5   -3.48    1.53
  16 -18   5    0.09    1.93
 -16  18  -4    2.08    1.80
  16 -18   4    0.42    1.87
 -16  18  -3    5.23    1.98
  16 -18   3    8.23    2.26
 -16  18  -2    0.87    2.00
  16 -18   2   -2.83    1.70
 -16  18  -1   -1.48    1.51
  16 -18   1   -0.53    2.11
 -16  18   0    1.64    1.70
 -16  18   0   -1.77    1.88
  16 -18   0   -0.85    1.09
 -16  18   1   -0.83    0.84
 -16  18   1   -1.82    1.52
  16 -18  -1    0.77    1.98
 -16  18   2    1.68    2.10
 -16  18   2    1.43    1.74
 -16  18   3   10.58    2.20
 -16  18   3    9.67    2.27
 -16  18   4    0.27    2.17
 -16  18   4    2.59    1.98
 -16  18   5    0.76    1.86
 -16  18   5    2.54    1.96
 -16  18   6    3.37    2.03
 -16  18   6    0.70    2.24
 -16  18   7   -0.70    1.75
 -16  18   8   -2.99    1.84
 -17  19  -7    2.17    2.04
  17 -19   7   -1.51    2.41
 -17  19  -6    0.08    1.83
  17 -19   6   -1.39    1.97
 -17  19  -5   -2.13    2.05
  17 -19   5   -2.75    2.32
 -17  19  -4    1.22    1.90
  17 -19   4    3.68    2.49
 -17  19  -3   -1.02    1.65
  17 -19   3    2.22    2.36
 -17  19  -2    6.87    2.14
  17 -19   2    1.71    2.41
 -17  19  -1   -0.12    1.71
  17 -19   1    2.01    2.39
 -17  19   0    4.85    2.32
  17 -19   0   -0.02    1.94
 -17  19   1    0.18    1.76
 -17  19   1    0.69    2.02
 -17  19   2    0.12    2.20
 -17  19   2    4.69    1.97
 -17  19   3   -0.71    1.73
 -17  19   3    0.78    2.07
 -17  19   4   -0.35    1.81
 -17  19   4    2.35    2.07
 -17  19   5    3.60    2.47
 -17  19   5   -1.52    1.86
 -17  19   6    0.64    1.95
 -17  19   6    3.92    2.19
 -18  20  -4    4.71    2.12
  18 -20   4    1.98    2.56
 -18  20  -3    1.21    2.26
  18 -20   3    1.19    2.56
 -18  20  -2   -1.05    1.69
  18 -20   2   -0.37    2.04
 -18  20  -1    1.86    2.20
  18 -20   1    2.91    2.19
 -18  20   0    1.62    1.90
 -18  20   1    1.58    2.17
 -18  20   2    2.23    2.23
 -18  20   2   -0.85    1.91
 -18  20   3    1.24    2.34
 -18  20   3    4.20    2.28
 -18  20   4    2.64    2.09
 -18  20   4    3.92    2.32
 -21  18   2    1.32    2.07
 -21  18   1    2.07    2.14
 -21  18   0    1.59    2.14
 -21  18  -1   -0.83    2.09
 -21  18  -2    1.24    2.10
 -21  18  -3    0.87    2.01
 -20  17   5    0.23    1.73
 -20  17   5    4.15    2.26
 -20  17   4    3.14    2.49
 -20  17   4   -0.85    0.68
 -20  17   3    2.78    2.10
 -20  17   2    4.07    2.20
 -20  17   1    1.85    2.04
 -20  17   0    3.13    2.53
 -20  17  -1   -0.95    1.94
  20 -17   2   -0.19    1.57
 -20  17  -2    1.18    2.39
  20 -17   3    0.76    1.78
 -20  17  -3   -0.21    1.91
  20 -17   4   -1.60    2.13
 -20  17  -4    0.13    1.92
  20 -17   5   -1.89    1.81
 -20  17  -5   -0.59    1.81
 -19  16   7    3.25    1.86
 -19  16   7    0.99    2.45
 -19  16   6    3.45    2.14
 -19  16   6    1.88    2.09
 -19  16   5   -1.18    1.85
 -19  16   5    2.67    2.12
 -19  16   4   -1.74    1.55
 -19  16   4    2.30    2.05
 -19  16   3    9.82    2.46
 -19  16   3   10.08    2.04
 -19  16   2   -0.70    1.91
 -19  16   1    1.76    2.00
 -19  16   0    5.69    2.27
  19 -16   1    0.03    1.73
 -19  16  -1    1.38    2.41
  19 -16   2   -0.32    0.72
 -19  16  -2    3.66    2.15
  19 -16   3    8.58    2.39
 -19  16  -3   11.19    2.81
  19 -16   4   -0.44    2.02
 -19  16  -4    0.16    1.83
  19 -16   5   -0.78    1.70
 -19  16  -5   -0.27    1.82
  19 -16   6    0.06    2.18
 -19  16  -6   -1.20    1.84
  19 -16   7   -0.97    2.23
 -19  16  -7   -2.29    1.62
 -18  15   9   -0.12    2.03
 -18  15   8   -2.86    1.99
 -18  15   8    0.05    2.28
 -18  15   7    1.02    1.99
 -18  15   7    1.94    1.70
 -18  15   6    1.31    2.39
 -18  15   6    1.28    1.73
 -18  15   5    4.37    1.79
 -18  15   5    5.14    2.58
 -18  15   4    9.46    2.43
 -18  15   3   -1.20    1.83
 -18  15   3    1.10    1.42
 -18  15   2    2.25    1.68
 -18  15   2    3.29    2.12
 -18  15   1    2.17    1.97
 -18  15   0    3.10    1.95
  18 -15   1    0.86    1.70
 -18  15  -1    3.93    2.08
  18 -15   2    2.00    1.21
 -18  15  -2    7.17    2.21
  18 -15   3    2.84    1.99
 -18  15  -3   -2.19    1.72
  18 -15   4   12.31    2.50
 -18  15  -4    5.94    2.16
  18 -15   5    6.49    2.02
 -18  15  -5    0.93    1.91
  18 -15   6   -1.46    2.05
 -18  15  -6    1.66    1.95
  18 -15   7    0.49    1.82
 -18  15  -7    0.21    1.80
  18 -15   8    3.78    2.45
 -18  15  -8    0.94    1.90
 -18  15  -9    0.72    2.03
 -17  14  10    6.55    2.68
 -17  14  10    3.80    2.15
 -17  14   9    0.11    2.30
 -17  14   9    1.93    1.98
 -17  14   8   -1.08    2.02
 -17  14   8    1.53    2.41
 -17  14   7   10.27    2.45
 -17  14   7    7.19    2.30
 -17  14   6    5.14    2.15
 -17  14   6    6.31    1.91
 -17  14   5    3.86    1.69
 -17  14   5    0.71    1.89
 -17  14   4    2.22    1.52
 -17  14   4    2.65    2.00
 -17  14   3    1.10    0.88
 -17  14   3    6.53    2.19
 -17  14   2   14.25    2.16
 -17  14   2   15.28    2.53
 -17  14   1    3.84    1.58
 -17  14   1    4.78    2.36
  17 -14   0   -0.46    1.56
 -17  14   0    0.59    2.07
  17 -14   1    1.80    1.61
 -17  14  -1    6.06    2.11
  17 -14   2   16.15    2.28
 -17  14  -2   15.22    2.61
  17 -14   3    5.99    1.98
 -17  14  -3    5.92    2.15
  17 -14   4    1.36    1.58
 -17  14  -4    0.28    1.67
  17 -14   5    1.02    1.66
 -17  14  -5    0.77    1.76
  17 -14   6    2.26    1.81
 -17  14  -6    1.60    1.85
  17 -14   7    8.42    2.28
 -17  14  -7    9.44    2.43
  17 -14   8    0.12    1.84
 -17  14  -8    2.02    1.97
  17 -14   9    2.42    2.38
 -17  14  -9    1.84    2.08
  17 -14  10    2.44    2.49
 -17  14 -10    3.12    2.16
 -16  13  11   -1.54    2.42
 -16  13  11    1.90    1.96
 -16  13  10   -0.96    1.72
 -16  13  10    2.95    2.56
 -16  13   9    0.71    1.96
 -16  13   9   -2.26    1.62
 -16  13   8    7.11    2.18
 -16  13   8    3.60    1.92
 -16  13   7    2.03    2.24
 -16  13   7    1.58    1.66
 -16  13   6    1.11    1.88
 -16  13   6    3.58    2.00
 -16  13   5   -1.25    1.30
 -16  13   5    0.85    2.13
 -16  13   4   -1.87    2.01
 -16  13   4   -2.87    1.17
 -16  13   3    8.82    2.24
 -16  13   2    1.03    1.47
 -16  13   2    0.55    1.84
  16 -13  -1    0.98    1.48
 -16  13   1    3.22    1.94
 -16  13   1    1.50    1.37
  16 -13   0    3.86    1.56
 -16  13   0    3.21    1.56
 -16  13   0    2.14    1.92
  16 -13   1    1.17    1.56
 -16  13  -1    3.27    1.96
  16 -13   2    0.90    1.37
 -16  13  -2   -1.84    1.68
  16 -13   3    7.04    1.97
 -16  13  -3   13.63    2.51
  16 -13   4   -0.15    1.46
 -16  13  -4   -2.90    1.46
  16 -13   5   -1.84    1.39
 -16  13  -5    0.26    1.69
  16 -13   6    0.45    1.60
 -16  13  -6    3.86    1.91
  16 -13   7    2.88    1.90
 -16  13  -7   -0.91    1.67
  16 -13   8    5.94    2.39
 -16  13  -8    6.15    2.51
  16 -13   9    0.31    1.85
 -16  13  -9    0.85    1.89
  16 -13  10    3.00    2.07
 -16  13 -10    4.70    2.22
  16 -13  11    3.30    2.15
 -15  12  11    3.25    2.45
 -15  12  11   -1.22    1.66
 -15  12  10    6.05    2.51
 -15  12  10    2.70    1.91
 -15  12   9    0.76    1.74
 -15  12   9    1.84    1.95
 -15  12   8   -1.86    1.74
 -15  12   8    2.33    1.74
 -15  12   7    1.78    1.86
 -15  12   7    0.93    1.84
 -15  12   6    8.27    1.86
 -15  12   6   11.27    2.52
 -15  12   5    5.61    1.67
 -15  12   5    7.39    2.40
 -15  12   4   20.82    2.46
 -15  12   4   15.22    2.52
 -15  12   3    2.91    1.48
 -15  12   3    1.74    1.91
  15 -12  -2    5.08    1.38
 -15  12   2    4.34    2.06
 -15  12   2    4.29    1.36
  15 -12  -1    2.37    1.43
 -15  12   1    3.55    2.28
 -15  12   1    3.58    1.54
  15 -12   0    4.18    1.52
 -15  12   0    3.44    1.50
 -15  12   0    1.05    1.82
  15 -12   1    2.57    1.54
 -15  12  -1    1.91    1.36
 -15  12  -1   -1.08    1.66
  15 -12   2    2.83    1.61
 -15  12  -2    2.70    1.84
  15 -12   3    7.77    1.76
 -15  12  -3    7.43    2.16
  15 -12   4   20.03    2.43
 -15  12  -4   21.79    2.81
  15 -12   5    9.81    2.21
 -15  12  -5    6.02    2.02
  15 -12   6    7.14    1.92
 -15  12  -6   10.87    2.31
  15 -12   7    0.05    1.96
 -15  12  -7    2.28    1.83
  15 -12   8    3.03    1.89
 -15  12  -8    0.34    1.77
  15 -12   9    2.75    1.95
 -15  12  -9    1.36    1.91
  15 -12  10    2.74    2.09
 -15  12 -10    2.88    2.03
  15 -12  11   -1.44    1.88
 -14  11  12    2.94    2.40
 -14  11  12    2.02    1.91
 -14  11  11    5.67    2.15
 -14  11  11    4.81    2.08
 -14  11  10    1.25    1.76
 -14  11  10    1.35    1.92
 -14  11   9    9.77    2.13
 -14  11   9    9.84    2.62
 -14  11   8    6.27    2.06
 -14  11   8    9.35    2.04
 -14  11   7    3.33    1.90
 -14  11   7    1.17    1.56
 -14  11   6    5.48    2.34
 -14  11   6    2.92    1.56
 -14  11   5   10.86    1.88
 -14  11   5   11.75    2.32
 -14  11   4    1.95    1.82
 -14  11   4    1.22    1.36
  14 -11  -3   18.98    1.77
 -14  11   3   17.21    2.58
 -14  11   3   18.11    2.16
  14 -11  -2    1.20    1.08
 -14  11   2    0.24    1.67
 -14  11   2    2.01    1.35
  14 -11  -1    3.79    1.26
 -14  11   1    2.77    1.30
 -14  11   1    3.13    1.84
  14 -11   0   47.10    2.70
 -14  11   0   43.23    2.49
 -14  11   0   42.93    3.31
  14 -11   1    0.58    1.21
 -14  11  -1    1.09    1.71
 -14  11  -1    1.34    1.28
  14 -11   2    0.48    1.20
 -14  11  -2    0.77    1.14
 -14  11  -2   -1.21    1.53
  14 -11   3   16.47    2.01
 -14  11  -3   14.26    2.40
  14 -11   4    1.51    1.76
 -14  11  -4   -0.35    1.62
  14 -11   5    7.84    1.93
 -14  11  -5   11.97    2.31
  14 -11   6    7.26    2.25
 -14  11  -6    8.61    2.02
  14 -11   7    3.45    2.08
 -14  11  -7    2.40    2.13
  14 -11   8    8.59    2.16
 -14  11  -8   11.83    2.66
  14 -11   9    9.57    2.22
 -14  11  -9    7.81    2.29
  14 -11  10   -3.93    1.63
 -14  11 -10    4.88    2.06
  14 -11  11    5.43    2.29
  14 -11  12    1.77    2.04
 -13  10  13    0.36    2.06
 -13  10  13   -0.87    1.74
 -13  10  12    6.09    2.23
 -13  10  12    3.17    2.03
 -13  10  11    5.12    2.29
 -13  10  11    7.70    2.20
 -13  10  10   13.93    2.41
 -13  10  10   16.28    2.62
 -13  10   9    1.71    2.13
 -13  10   9    4.85    1.88
 -13  10   8    4.47    1.84
 -13  10   8    0.39    1.71
 -13  10   7   16.69    2.25
 -13  10   7   15.61    2.48
 -13  10   6    7.97    2.18
 -13  10   6    7.47    1.80
 -13  10   5    0.02    1.73
 -13  10   5    1.09    1.63
 -13  10   4   12.23    1.93
 -13  10   4   12.59    2.53
  13 -10  -3   12.24    1.32
 -13  10   3   12.33    1.65
 -13  10   3   11.24    2.14
  13 -10  -2   70.17    2.91
 -13  10   2   81.65    4.25
 -13  10   2   52.63    2.94
  13 -10  -1    0.69    1.01
 -13  10   1    1.71    1.10
 -13  10   1    0.29    1.57
  13 -10   0    1.95    1.16
 -13  10   0    0.11    1.08
 -13  10   0    3.07    1.66
  13 -10   1    0.61    0.86
 -13  10  -1    2.00    1.64
 -13  10  -1    0.80    1.05
  13 -10   2   67.28    3.28
 -13  10  -2   67.03    3.86
 -13  10  -2   67.99    3.02
  13 -10   3   13.14    1.81
 -13  10  -3   11.79    2.18
 -13  10  -3   11.46    1.21
  13 -10   4   14.06    1.97
 -13  10  -4   12.97    2.18
  13 -10   5    0.93    1.76
 -13  10  -5    2.37    1.74
  13 -10   6    8.41    2.03
 -13  10  -6    8.36    2.10
  13 -10   7   18.19    2.70
 -13  10  -7   16.15    2.55
  13 -10   8    5.35    2.12
 -13  10  -8    3.10    1.90
  13 -10   9    2.05    1.87
 -13  10  -9   -0.36    1.61
  13 -10  10   14.79    2.59
  13 -10  11    5.07    2.11
  13 -10  12    5.02    2.23
  13 -10  13   -0.79    1.92
 -12   9  13    2.01    2.35
 -12   9  12   -1.38    1.75
 -12   9  11   -1.69    1.66
 -12   9  10   12.62    2.37
 -12   9   9    1.45    2.08
 -12   9   8    1.37    1.80
 -12   9   7   21.34    2.65
 -12   9   6   19.24    2.74
 -12   9   5   18.39    2.64
  12  -9  -4   66.71    2.51
 -12   9   4   64.61    3.45
 -12   9   4   68.02    4.05
  12  -9  -3   16.12    1.30
 -12   9   3   11.64    2.08
 -12   9   3   13.26    1.75
  12  -9  -2   10.87    1.26
 -12   9   2   11.14    2.01
  12  -9  -1   18.91    1.63
 -12   9   1   20.30    2.34
 -12   9   1   23.13    1.81
  12  -9   0    1.09    1.01
 -12   9   0    0.75    0.87
 -12   9   0    2.07    1.49
 -12   9  -1   21.67    1.65
 -12   9  -1   21.68    2.34
  12  -9   2   10.28    1.46
 -12   9  -2    9.36    1.18
 -12   9  -2    7.33    1.76
  12  -9   3   17.72    2.03
 -12   9  -3   17.37    1.26
 -12   9  -3   13.00    2.11
  12  -9   4   61.61    3.32
 -12   9  -4   67.33    3.79
  12  -9   5   13.70    1.96
 -12   9  -5   15.56    2.27
 -12   9  -5   17.43    2.04
  12  -9   6   15.60    2.11
 -12   9  -6   14.88    2.03
 -12   9  -6   10.56    2.13
 -12   9  -7   24.06    2.78
 -12   9  -7   19.46    2.33
  12  -9   8    3.75    1.81
 -12   9  -8    0.66    1.73
 -12   9  -8    2.91    1.62
  12  -9   9    0.93    1.68
 -12   9  -9    3.38    1.78
 -12   9  -9   -0.55    1.47
  12  -9  10   14.61    2.48
 -12   9 -10   16.67    2.42
  12  -9  11   -0.85    1.70
  12  -9  12    4.73    2.40
  12  -9  13    5.87    2.64
 -11   8  14    1.97    2.42
 -11   8  13   -2.84    2.08
 -11   8  12    0.63    2.14
 -11   8  11    3.76    2.26
 -11   8  10   13.51    2.57
 -11   8   9    7.89    2.05
 -11   8   8    2.45    1.83
 -11   8   7   18.79    2.64
 -11   8   6    7.66    1.88
 -11   8   5    7.52    1.84
  11  -8  -4    8.38    0.81
 -11   8   4    7.96    1.82
  11  -8  -3   35.57    1.69
 -11   8   3   35.99    2.72
  11  -8  -2    5.09    0.92
 -11   8   2    7.08    1.68
  11  -8  -1   15.05    1.33
 -11   8   1   14.38    1.39
 -11   8   1   12.55    1.90
  11  -8   0   18.29    1.55
 -11   8   0   19.67    1.55
 -11   8   0   20.99    2.23
 -11   8  -1   14.19    1.94
 -11   8  -1   13.96    1.26
  11  -8   2    5.19    1.14
 -11   8  -2    5.50    0.94
 -11   8  -2    6.17    1.53
 -11   8  -3   37.86    1.57
 -11   8  -3   33.94    2.17
 -11   8  -3   34.60    2.44
 -11   8  -4    7.93    1.40
 -11   8  -4    7.22    1.74
 -11   8  -5    6.51    1.71
 -11   8  -5    6.72    1.49
 -11   8  -6    4.46    1.51
 -11   8  -6    4.49    1.71
 -11   8  -7    9.12    1.85
 -11   8  -7   17.77    2.36
 -11   8  -8   -0.22    1.62
 -11   8  -8    2.64    1.61
 -11   8  -9    8.71    1.92
 -11   8  -9    6.60    1.99
 -11   8 -10   13.61    2.23
 -11   8 -11    4.02    1.79
  11  -8  12    1.72    1.84
 -11   8 -12    1.56    1.75
  11  -8  13    3.39    2.05
  11  -8  14    3.05    2.11
 -10   7  14    0.48    2.40
 -10   7  13    6.25    2.23
 -10   7  12    5.41    2.06
 -10   7  11    9.80    2.19
 -10   7  10    2.28    2.04
 -10   7   9    6.62    2.19
 -10   7   8   14.64    2.24
 -10   7   7   72.48    3.84
 -10   7   6    7.67    1.81
 -10   7   5   42.10    3.05
  10  -7  -4    4.93    0.47
 -10   7   4    5.35    1.57
  10  -7  -3   66.49    2.39
 -10   7   3   67.75    3.48
  10  -7  -2   17.62    1.17
 -10   7   2   17.79    1.99
  10  -7  -1   76.20    2.89
 -10   7   1   78.16    3.05
 -10   7   1   75.25    3.67
  10  -7   0  122.58    4.27
 -10   7   0  127.13    5.03
 -10   7   0  116.31    4.22
 -10   7  -1   81.76    3.76
 -10   7  -1   76.88    3.15
 -10   7  -1   78.72    2.91
 -10   7  -2   18.24    1.54
 -10   7  -2   17.93    1.97
 -10   7  -2   17.04    1.17
 -10   7  -3   69.56    3.15
 -10   7  -3   69.42    3.53
 -10   7  -4    6.67    1.54
 -10   7  -4    4.00    1.34
 -10   7  -5   41.05    2.71
 -10   7  -5   42.87    2.83
 -10   7  -6    6.45    1.65
 -10   7  -6    5.45    1.53
 -10   7  -7   74.09    3.80
 -10   7  -7   74.71    4.03
 -10   7  -8   17.63    2.23
 -10   7  -8   15.20    2.26
 -10   7  -9    3.95    1.64
 -10   7 -10    5.97    1.85
 -10   7 -11    6.05    1.86
 -10   7 -12    3.86    1.82
 -10   7 -13    4.37    1.98
  10  -7  14    2.66    1.98
 -10   7 -14   -0.61    1.70
  -9   6  15    0.07    2.42
  -9   6  14   14.15    2.93
  -9   6  13    0.44    2.19
  -9   6  12    0.54    2.18
  -9   6  11    3.48    1.90
  -9   6  10    1.69    1.79
  -9   6   9   -0.67    1.62
  -9   6   8   38.94    2.91
  -9   6   7    4.40    1.60
  -9   6   6  134.07    5.44
  -9   6   5   35.39    2.77
  -9   6   4    2.09    1.32
   9  -6  -3    1.34    0.50
  -9   6   3    2.78    1.32
   9  -6  -2    4.91    0.69
  -9   6   2    4.48    1.39
   9  -6  -1    4.32    0.77
  -9   6   1    4.01    1.31
  -9   6   0  243.74    8.26
  -9   6   0  239.21    7.45
  -9   6   0  230.23    7.47
  -9   6  -1    4.93    0.69
  -9   6  -1    3.23    1.24
  -9   6  -1    3.89    0.93
  -9   6  -2    5.44    1.33
  -9   6  -2    6.10    0.74
  -9   6  -2    4.35    1.05
  -9   6  -3    3.22    1.25
  -9   6  -3    0.36    0.84
  -9   6  -4    5.41    1.35
  -9   6  -4    4.07    1.06
  -9   6  -5   43.41    2.81
  -9   6  -5   36.27    2.33
  -9   6  -6  139.38    5.38
  -9   6  -6  138.47    5.65
  -9   6  -7    5.42    1.62
  -9   6  -7    5.27    1.57
  -9   6  -8   38.29    2.76
  -9   6  -8   38.36    2.90
  -9   6  -9    0.30    1.41
  -9   6 -10    2.43    1.63
  -9   6 -11    2.58    1.66
  -9   6 -12    4.12    1.82
  -9   6 -13    2.33    1.80
  -9   6 -14   11.36    2.35
   9  -6  15    0.36    1.81
  -9   6 -15    4.73    2.05
  -8   5  15    3.02    2.56
  -8   5  14   -0.23    1.95
  -8   5  13   20.35    2.89
  -8   5  12    7.16    2.40
  -8   5  11   11.55    2.54
  -8   5  10    1.80    1.77
  -8   5   9   22.88    2.57
  -8   5   8   50.30    3.40
  -8   5   7  103.53    4.70
  -8   5   6    1.70    1.28
  -8   5   5  161.59    6.08
  -8   5   4   65.45    3.17
   8  -5  -3   69.94    2.21
  -8   5   3   69.47    3.27
   8  -5  -2   19.14    0.98
  -8   5   2   23.28    1.98
  -8   5   1  167.02    5.08
  -8   5   1  153.13    5.80
  -8   5   0  262.49    8.82
  -8   5   0  262.87    8.10
  -8   5  -1  155.97    4.89
  -8   5  -1  152.64    5.10
  -8   5  -1  156.11    5.67
  -8   5  -2   19.30    0.93
  -8   5  -2   16.96    1.28
  -8   5  -2   19.97    1.79
  -8   5  -3   75.02    3.02
  -8   5  -3   71.06    3.33
  -8   5  -4   53.52    2.63
  -8   5  -4   60.96    2.96
  -8   5  -5  164.86    5.82
  -8   5  -5  158.46    6.03
  -8   5  -6   -0.67    1.04
  -8   5  -6    2.29    1.16
  -8   5  -7   97.79    4.25
  -8   5  -7   96.78    4.43
  -8   5  -8   50.05    3.06
  -8   5  -8   54.12    3.17
  -8   5  -9   25.12    2.47
  -8   5 -10    1.61    1.55
  -8   5 -11    8.41    1.94
  -8   5 -12    3.49    1.92
  -8   5 -13   14.96    2.61
  -8   5 -14    3.99    1.85
  -8   5 -15    2.64    1.89
  -7   4  15    0.24    1.99
  -7   4  14    2.32    1.99
  -7   4  13   16.24    2.90
  -7   4  12    1.30    2.09
  -7   4  11    5.17    1.95
  -7   4  10   14.50    2.29
  -7   4   9    4.38    1.71
  -7   4   8    7.17    1.95
  -7   4   8    6.19    0.78
  -7   4   7   30.32    1.19
  -7   4   7   28.18    2.47
  -7   4   6   15.74    1.83
  -7   4   5   81.09    3.60
  -7   4   4    5.38    1.25
  -7   4   3   37.37    2.21
   7  -4  -2    7.54    0.58
  -7   4   2    8.40    1.35
  -7   4   1  175.77    5.38
  -7   4   1  174.16    6.17
  -7   4   0   30.61    1.42
  -7   4   0   29.96    1.95
  -7   4  -1  182.63    5.83
  -7   4  -1  181.77    5.60
  -7   4  -1  183.51    6.35
  -7   4  -2    7.46    0.49
  -7   4  -2    7.15    0.92
  -7   4  -2    9.04    1.27
  -7   4  -3   40.35    1.97
  -7   4  -3   38.96    2.21
  -7   4  -4    2.80    1.02
  -7   4  -4    5.35    1.02
  -7   4  -5   70.67    3.13
  -7   4  -5   73.73    3.29
  -7   4  -6   14.17    1.64
  -7   4  -6   16.94    1.78
  -7   4  -7   31.41    2.23
  -7   4  -7   28.64    2.40
  -7   4  -8    4.84    1.43
  -7   4  -9    5.72    1.62
  -7   4 -10    9.22    1.87
  -7   4 -11    5.62    1.75
  -7   4 -12    0.09    1.44
  -7   4 -13   14.94    2.31
  -7   4 -14    2.43    2.00
  -7   4 -15    0.12    1.69
  -6   3  15   -2.40    1.80
  -6   3  14    5.81    2.16
  -6   3  13    5.92    2.12
  -6   3  12    6.56    1.97
  -6   3  11   36.46    3.37
  -6   3  10    1.65    1.69
  -6   3  10    3.50    1.06
  -6   3   9   23.42    1.50
  -6   3   9   22.91    2.62
  -6   3   8   20.08    1.25
  -6   3   8   20.84    2.19
  -6   3   7   62.53    2.20
  -6   3   7   58.34    3.32
  -6   3   6  187.74    5.63
  -6   3   6  187.15    6.73
  -6   3   5   82.97    3.60
  -6   3   4  161.80    5.78
  -6   3   3  142.47    5.12
  -6   3   2    0.01    0.29
  -6   3   2   -0.11    0.93
  -6   3   1  389.02   11.18
  -6   3   1  370.33   12.02
  -6   3   0    1.11    0.96
  -6   3   0    2.63    0.62
  -6   3  -1  386.27   11.44
  -6   3  -1  375.19   12.02
  -6   3  -2    1.02    0.69
  -6   3  -2   -0.61    0.80
  -6   3  -3  146.22    5.22
  -6   3  -3  147.67    4.99
   6  -3   4  158.32    4.79
  -6   3  -4  166.02    5.48
  -6   3  -4  155.03    5.62
  -6   3  -5   79.65    3.34
  -6   3  -5   82.75    3.43
  -6   3  -6  190.77    6.65
  -6   3  -6  193.51    6.82
  -6   3  -7   61.62    3.03
  -6   3  -8   20.58    2.03
  -6   3  -9   22.67    2.25
  -6   3 -10    2.69    1.49
  -6   3 -11   30.44    2.91
  -6   3 -12    6.05    1.72
  -6   3 -13    6.45    1.89
  -6   3 -14    6.09    2.11
  -6   3 -15   -0.14    1.84
  -5   2  16    3.93    2.60
  -5   2  15   -0.57    2.23
  -5   2  14    0.69    2.17
  -5   2  13    4.01    1.96
  -5   2  12    7.43    2.06
  -5   2  11   10.08    1.54
  -5   2  11   12.10    2.52
  -5   2  10   31.46    3.05
  -5   2  10   31.03    1.98
  -5   2   9   23.26    2.40
  -5   2   9   19.85    1.56
  -5   2   8   20.59    2.12
  -5   2   8   18.10    1.33
  -5   2   7   37.17    2.43
  -5   2   7   36.13    1.61
  -5   2   6    1.93    0.56
  -5   2   6    2.21    1.11
  -5   2   5    2.01    0.45
  -5   2   5    1.55    1.03
  -5   2   4  149.36    4.33
  -5   2   4  139.87    5.18
  -5   2   3  179.50    6.13
  -5   2   2  217.79    6.33
  -5   2   2  215.58    7.11
  -5   2   1   30.18    1.19
  -5   2   1   30.40    1.89
  -5   2   0   43.65    2.18
  -5   2   0   40.85    1.64
  -5   2  -1   23.68    1.62
  -5   2  -1   22.54    1.19
  -5   2  -2  199.86    6.66
  -5   2  -2  205.15    6.39
   5  -2   3  183.92    5.53
  -5   2  -3  184.07    6.22
  -5   2  -3  190.41    6.04
   5  -2   4  146.35    4.43
  -5   2  -4  142.87    5.05
  -5   2  -4  140.33    4.92
  -5   2  -5    4.82    1.07
  -5   2  -5    3.14    0.93
  -5   2  -6    3.45    1.01
  -5   2  -6    1.40    0.87
  -5   2  -7   38.67    2.31
  -5   2  -8   16.90    1.85
  -5   2  -9   15.39    1.89
  -5   2 -10   31.91    2.81
  -5   2 -11   14.64    2.29
  -5   2 -12    5.35    1.88
  -5   2 -13    4.63    1.87
  -5   2 -14    0.09    1.72
  -5   2 -15    0.15    1.49
  -5   2 -16    1.13    1.68
  -4   1  16    0.98    2.01
  -4   1  15    2.31    1.97
  -4   1  14    0.09    2.09
  -4   1  13    2.48    1.84
  -4   1  12   25.88    2.33
  -4   1  12   24.93    2.85
  -4   1  11   49.85    2.83
  -4   1  11   48.02    3.47
  -4   1  10   19.62    2.49
  -4   1  10   26.24    1.96
  -4   1   9   95.37    3.60
  -4   1   9   86.90    4.30
  -4   1   8   72.02    3.66
  -4   1   8   78.11    3.00
  -4   1   7   26.03    2.17
  -4   1   7   25.15    1.41
  -4   1   6    6.51    1.29
  -4   1   6    5.54    0.78
  -4   1   5  124.04    3.94
  -4   1   5  125.98    4.66
  -4   1   4  181.03    5.44
  -4   1   4  180.20    6.17
  -4   1   3  740.34   22.82
  -4   1   3  763.01   21.72
  -4   1   2  207.85    6.59
  -4   1   2  195.24    5.92
  -4   1   1  148.50    4.53
  -4   1   1  152.27    5.06
  -4   1   0   15.41    1.20
  -4   1   0   13.40    0.78
  -4   1  -1  148.81    5.03
  -4   1  -1  154.32    4.77
   4  -1   2  197.08    6.06
  -4   1  -2  209.97    6.38
  -4   1  -2  203.26    6.54
   4  -1   3  717.80   20.80
  -4   1  -3  704.43   20.87
  -4   1  -3  697.29   21.36
   4  -1   4  182.34    5.64
  -4   1  -4  179.91    6.04
  -4   1  -4  185.66    6.00
  -4   1  -5  126.00    4.52
  -4   1  -5  129.03    4.53
  -4   1  -6    5.74    1.10
  -4   1  -7   22.51    1.86
  -4   1  -8   78.27    3.52
  -4   1  -9   85.69    3.99
  -4   1 -10   22.68    2.24
  -4   1 -11   48.39    3.29
  -4   1 -12   26.58    2.61
  -4   1 -13    3.75    1.82
   4  -1  14   -0.04    1.36
  -4   1 -14    1.50    1.42
  -4   1 -15    1.31    1.53
  -4   1 -16    0.34    1.80
  -3   0  16    4.34    2.18
  -3   0  15    2.32    2.38
  -3   0  14    2.06    1.97
  -3   0  13   10.33    1.82
  -3   0  13   10.93    2.58
  -3   0  12   -1.06    1.41
  -3   0  12   -1.83    1.62
  -3   0  11    0.85    1.42
  -3   0  11    5.68    2.20
  -3   0  10   63.69    3.04
  -3   0  10   65.18    3.70
  -3   0   9   38.68    2.26
  -3   0   9   40.30    2.80
  -3   0   8    1.03    0.85
  -3   0   8    0.47    1.24
  -3   0   7   46.56    2.68
  -3   0   7   51.06    2.15
  -3   0   6   73.87    3.28
  -3   0   6   71.60    2.68
  -3   0   5    6.39    1.15
  -3   0   5    6.29    0.75
  -3   0   4  240.70    7.72
  -3   0   4  228.13    7.04
  -3   0   3  243.53    7.17
  -3   0   3  235.79    7.74
  -3   0   2   46.27    2.09
  -3   0   2   49.87    1.78
  -3   0   1   34.23    1.28
  -3   0   1   33.40    1.52
  -3   0   0    0.03    0.49
  -3   0   0    0.00    0.30
  -3   0  -1   32.41    1.22
  -3   0  -1   22.88    1.17
   3   0   2   47.27    1.68
  -3   0  -2   46.58    1.87
   3   0   3  235.19    7.22
  -3   0  -3  240.67    7.42
   3   0   4  235.67    7.20
  -3   0  -4  229.73    7.38
   3   0   5    5.68    0.76
  -3   0  -5    6.13    0.97
  -3   0  -6   75.74    3.11
  -3   0  -7   45.32    2.35
  -3   0  -8    1.09    0.96
  -3   0  -9   35.56    2.36
  -3   0 -10   68.80    3.62
  -3   0 -11    2.49    1.60
  -3   0 -12    0.83    1.56
  -3   0 -13   10.91    1.92
   3   0  14    3.44    1.44
  -3   0 -14    4.03    1.63
   3   0  15    1.12    1.63
  -3   0 -15    1.05    1.46
  -3   0 -16    0.53    1.78
  -2  -1  16    3.57    2.54
  -2  -1  15    2.10    1.97
  -2  -1  14   -2.23    1.49
  -2  -1  14   -3.13    1.55
  -2  -1  13   22.37    2.40
  -2  -1  13   19.14    2.90
  -2  -1  12   -2.69    1.55
  -2  -1  12   -1.11    1.38
  -2  -1  11   19.67    2.18
  -2  -1  10   33.85    2.37
  -2  -1   9    2.46    1.13
  -2  -1   8   14.31    1.45
  -2  -1   7  113.22    4.04
  -2  -1   6    1.33    0.78
  -2  -1   5    5.66    0.79
  -2  -1   4   33.87    1.49
  -2  -1   3   56.87    2.41
  -2  -1   3   53.77    2.02
  -2  -1   2  453.56   13.28
  -2  -1   2  451.37   13.80
  -2  -1   1   85.46    2.82
  -2  -1   1   87.84    2.94
  -2  -1   0  103.84    3.31
   2   1   1   93.58    3.18
  -2  -1  -1   99.00    3.17
  -2  -1  -1  103.05    3.23
   2   1   2  450.62   14.22
  -2  -1  -2  490.17   14.15
  -2  -1  -2  492.64   14.31
   2   1   3   53.07    1.82
  -2  -1  -3   38.98    1.73
  -2  -1  -3   41.88    1.90
   2   1   4   35.63    1.54
  -2  -1  -4   33.30    1.70
   2   1   5    6.04    0.81
  -2  -1  -5    4.28    0.98
  -2  -1  -6   -0.63    0.70
  -2  -1  -7  114.87    4.29
  -2  -1  -8   17.67    1.78
  -2  -1  -9    2.32    1.11
  -2  -1 -10   34.38    2.41
  -2  -1 -11   14.69    2.06
  -2  -1 -12    1.49    1.30
   2   1  13   19.67    2.33
  -2  -1 -13   19.07    2.25
   2   1  14    0.71    1.36
  -2  -1 -14   -0.30    1.53
   2   1  15    1.11    1.62
  -2  -1 -15    1.97    1.66
   2   1  16    0.12    1.72
  -2  -1 -16    0.88    1.70
  -1  -2  16    1.57    2.03
  -1  -2  15    1.94    2.20
  -1  -2  15   -1.58    1.71
  -1  -2  14   -2.09    1.55
  -1  -2  13   23.21    2.56
  -1  -2  12    0.44    1.49
  -1  -2  11   19.01    2.23
  -1  -2  10   32.79    2.44
  -1  -2   9    4.44    1.28
  -1  -2   8   18.61    1.66
  -1  -2   7  112.40    4.12
  -1  -2   6    0.41    0.78
  -1  -2   5    3.55    0.73
  -1  -2   4   34.81    1.64
  -1  -2   3   41.29    1.71
  -1  -2   2  467.96   13.79
  -1  -2   1  107.22    3.50
   1   2   0  101.84    3.27
  -1  -2   0  101.27    3.25
  -1  -2   0   95.60    3.14
   1   2   1  103.27    3.16
  -1  -2  -1   88.35    3.09
  -1  -2  -1   89.97    2.89
   1   2   2  462.89   13.61
  -1  -2  -2  449.75   13.46
  -1  -2  -2  448.56   13.46
   1   2   3   40.21    1.90
  -1  -2  -3   54.52    2.09
   1   2   4   36.78    1.65
  -1  -2  -4   32.16    1.65
   1   2   5    5.20    0.82
  -1  -2  -5    5.56    0.90
   1   2   6    1.49    0.90
  -1  -2  -6    1.67    0.75
  -1  -2  -7  116.11    4.29
  -1  -2  -8   12.27    1.43
  -1  -2  -9    1.17    1.19
  -1  -2 -10   29.47    2.18
  -1  -2 -11   19.75    2.22
   1   2  12    0.67    1.52
  -1  -2 -12    1.46    1.45
   1   2  13   21.46    2.32
  -1  -2 -13   20.47    2.35
   1   2  14   -1.23    1.60
  -1  -2 -14    0.34    1.29
   1   2  15    0.76    1.45
   1   2  15    3.81    1.91
  -1  -2 -15   -0.71    1.48
   1   2  16    0.86    1.89
  -1  -2 -16    0.48    1.35
   0  -3  16    7.19    2.32
   0  -3  15   -1.38    1.81
   0  -3  14    3.72    1.71
   0  -3  13    8.73    2.07
   0  -3  12   -0.02    1.61
   0  -3  11    2.70    1.67
   0  -3  10   64.35    3.42
   0  -3   9   41.45    2.44
   0  -3   8    2.41    1.15
   0  -3   7   48.66    2.36
   0  -3   6   70.90    2.87
   0  -3   5    6.35    0.92
   0  -3   4  222.95    7.02
   0  -3   3  231.42    7.18
   0  -3   2   50.13    2.00
   0  -3   1   35.09    1.51
   0   3   0    0.61    0.48
   0  -3   0    0.42    0.48
   0   3   1   35.20    1.51
   0  -3  -1   32.12    1.49
   0   3   2   49.45    1.96
   0  -3  -2   46.61    1.95
   0   3   3  225.43    7.29
   0  -3  -3  238.17    7.23
   0   3   4  223.51    7.23
   0  -3  -4  227.44    7.10
   0   3   5    6.31    0.94
   0  -3  -5    6.87    0.89
   0   3   6   72.32    2.95
   0  -3  -6   68.65    2.82
   0   3   7   49.57    2.41
   0  -3  -7   45.15    2.24
   0   3   8   -1.39    0.89
   0  -3  -8    1.68    1.01
   0   3   9   39.68    2.41
   0  -3  -9   34.41    2.15
   0   3  10   59.66    3.38
   0  -3 -10   63.81    3.20
   0   3  11    1.49    1.37
   0  -3 -11    0.82    1.34
   0   3  12    0.72    1.46
   0   3  12   -0.40    1.52
   0  -3 -12   -0.18    1.08
   0   3  13    8.52    1.80
   0   3  13    9.84    1.98
   0  -3 -13    8.73    1.77
   0   3  14    5.86    1.91
   0   3  14    5.47    1.72
   0  -3 -14    7.18    1.79
   0   3  15    0.50    1.75
   0  -3 -15    2.28    1.40
   0   3  16    1.00    1.67
   1  -4  16    1.75    2.05
   1  -4  15    1.40    1.74
   1  -4  14   -0.99    1.84
   1  -4  13    2.36    1.88
   1  -4  12   31.03    2.93
   1  -4  11   46.32    3.27
   1  -4  10   23.85    2.42
   1  -4   9   88.96    4.03
   1  -4   8   81.48    3.53
   1  -4   7   24.85    1.92
   1  -4   6    5.43    1.14
   1  -4   5  130.18    4.54
   1  -4   4  179.40    5.86
   1  -4   3  700.01   20.66
   1  -4   2  211.84    6.66
   1  -4   1  156.09    5.05
  -1   4   0   14.78    1.14
   1  -4   0   15.13    1.15
  -1   4   1  153.25    4.95
  -1   4   1  150.90    4.59
   1  -4  -1  144.67    4.87
  -1   4   2  197.40    5.93
  -1   4   2  196.35    6.31
   1  -4  -2  195.83    6.25
  -1   4   3  706.88   21.59
  -1   4   3  728.55   21.39
   1  -4  -3  724.44   21.22
  -1   4   4  185.29    5.71
  -1   4   4  188.07    6.09
   1  -4  -4  172.78    5.84
  -1   4   5  127.92    4.61
  -1   4   5  131.17    4.31
  -1   4   6    6.65    1.11
  -1   4   6    6.13    0.91
   1  -4  -6    2.70    0.62
  -1   4   7   25.54    1.68
  -1   4   7   25.14    1.82
  -1   4   8   81.14    3.57
  -1   4   8   80.54    3.40
  -1   4   9   82.93    3.55
  -1   4   9   78.23    3.68
  -1   4  10   23.38    2.13
  -1   4  10   18.81    2.10
  -1   4  11   44.02    2.99
  -1   4  11   48.78    2.99
  -1   4  12   24.60    2.56
  -1   4  12   29.70    2.78
  -1   4  13    4.04    1.77
  -1   4  13    1.66    1.47
   1  -4 -13    1.56    1.15
  -1   4  14   -0.98    1.60
  -1   4  14    0.59    1.46
   1  -4 -14    0.90    1.40
  -1   4  15    2.43    1.70
  -1   4  16    0.08    1.55
   2  -5  15    1.60    1.75
   2  -5  14    1.70    2.03
   2  -5  13    1.63    1.92
   2  -5  12    5.68    1.77
   2  -5  11   13.24    2.10
   2  -5  10   34.82    2.80
   2  -5   9   15.87    1.94
   2  -5   8   20.25    1.95
   2  -5   7   37.27    2.22
   2  -5   6    3.14    1.01
   2  -5   5    4.45    0.98
   2  -5   4  136.19    4.71
   2  -5   3  182.72    5.98
   2  -5   2  203.07    6.50
  -2   5  -1   29.37    1.44
  -2   5  -1   26.80    1.67
   2  -5   1   25.18    1.59
  -2   5   0   40.20    2.01
  -2   5   0   40.33    1.69
   2  -5   0   43.60    2.11
  -2   5   1   23.71    1.17
  -2   5   1   26.50    1.60
   2  -5  -1   29.41    1.80
  -2   5   2  194.17    6.40
  -2   5   2  196.42    6.07
   2  -5  -2  200.86    6.35
  -2   5   3  190.20    5.86
  -2   5   3  184.93    6.17
  -2   5   4  144.72    5.05
  -2   5   4  145.00    4.69
  -2   5   5    3.00    0.76
  -2   5   5    2.78    1.01
   2  -5  -5    2.32    0.68
  -2   5   6    1.50    0.82
  -2   5   6    2.11    1.02
   2  -5  -6    1.63    0.76
  -2   5   7   36.68    1.93
  -2   5   7   38.28    2.27
   2  -5  -7   35.65    1.97
  -2   5   8   18.72    1.87
  -2   5   8   17.35    1.67
   2  -5  -8   17.43    1.58
  -2   5   9   18.30    2.01
  -2   5   9   20.20    1.95
   2  -5  -9   21.46    1.87
  -2   5  10   31.57    2.45
  -2   5  10   28.64    2.57
   2  -5 -10   33.86    2.22
  -2   5  11    8.42    1.84
  -2   5  11    9.80    1.86
   2  -5 -11    8.25    1.57
  -2   5  12    5.68    1.71
  -2   5  12    6.13    1.75
   2  -5 -12    7.01    1.48
  -2   5  13    3.68    1.63
  -2   5  13    3.18    1.65
   2  -5 -13    3.54    1.40
  -2   5  14   -0.31    1.50
   2  -5 -14   -0.12    1.28
  -2   5  15   -0.46    1.57
   3  -6  15    0.55    1.78
   3  -6  14    7.10    2.11
   3  -6  13    3.63    1.81
   3  -6  12    4.74    2.04
   3  -6  11   30.06    3.00
   3  -6  10    1.67    1.55
   3  -6   9   25.84    2.38
   3  -6   8   19.09    1.99
   3  -6   7   64.51    3.11
   3  -6   6  194.43    6.69
   3  -6   5   80.23    3.32
   3  -6   4  152.01    5.24
   3  -6   3  147.42    5.06
  -3   6  -2   -0.09    0.71
   3  -6   2    1.91    0.87
  -3   6  -1  370.83   11.55
  -3   6  -1  370.58   11.61
   3  -6   1  376.53   11.39
  -3   6   0    2.23    0.71
  -3   6   0    2.75    0.91
   3  -6   0    3.16    1.07
  -3   6   1  381.81   11.72
  -3   6   1  379.53   11.51
   3  -6  -1  369.32   11.48
  -3   6   2    0.71    0.59
  -3   6   2   -0.43    0.54
   3  -6  -2   -0.17    0.63
  -3   6   3  145.26    5.02
  -3   6   3  142.10    4.66
  -3   6   4  162.21    5.26
  -3   6   4  160.44    5.62
   3  -6  -4  162.38    5.40
  -3   6   5   84.25    3.41
  -3   6   5   82.70    3.06
   3  -6  -5   80.51    3.16
  -3   6   6  197.41    6.75
  -3   6   6  188.57    6.33
   3  -6  -6  189.07    6.30
  -3   6   7   63.32    3.10
  -3   6   7   63.55    2.78
   3  -6  -7   61.78    2.75
  -3   6   8   18.48    1.96
  -3   6   8   21.34    1.82
   3  -6  -8   21.93    1.76
  -3   6   9   21.63    2.24
  -3   6   9   24.27    2.03
   3  -6  -9   23.50    1.92
  -3   6  10    2.04    1.39
  -3   6  10    2.80    1.50
   3  -6 -10   -0.05    1.06
  -3   6  11   26.64    2.53
  -3   6  11   24.71    2.55
   3  -6 -11   30.13    2.20
  -3   6  12    4.80    1.83
  -3   6  12    4.14    1.86
   3  -6 -12    4.85    1.42
  -3   6  13    9.92    2.23
   3  -6 -13    4.60    1.51
  -3   6  14    5.78    1.88
  -3   6  15   -1.46    1.54
   4  -7  15    3.79    2.11
   4  -7  14    0.22    1.76
   4  -7  13   12.77    2.62
   4  -7  12   -0.55    1.55
   4  -7  11    5.62    1.81
   4  -7  10   10.62    2.01
   4  -7   9    2.78    1.50
   4  -7   8    5.56    1.51
   4  -7   7   30.63    2.28
   4  -7   6   15.30    1.67
   4  -7   5   72.35    3.20
   4  -7   4    4.14    1.06
  -4   7  -3   37.81    2.01
   4  -7   3   35.55    1.99
  -4   7  -2   10.17    1.13
  -4   7  -2    7.53    1.09
   4  -7   2    8.69    1.15
  -4   7  -1  166.45    5.88
  -4   7  -1  175.14    5.82
   4  -7   1  176.67    5.77
  -4   7   0   31.66    1.54
  -4   7   0   30.01    1.79
   4  -7   0   27.02    1.71
  -4   7   1  176.95    5.72
  -4   7   1  177.35    5.94
   4  -7  -1  171.17    5.81
  -4   7   2    8.94    1.15
  -4   7   2    8.74    0.95
  -4   7   3   43.79    2.15
  -4   7   3   40.05    1.82
   4  -7  -3   37.13    2.00
  -4   7   4    3.48    1.04
  -4   7   4    4.08    0.89
   4  -7  -4    5.34    1.08
  -4   7   5   73.38    2.95
  -4   7   5   71.59    3.27
   4  -7  -5   78.81    3.10
  -4   7   6   16.02    1.47
  -4   7   6   13.98    1.68
   4  -7  -6   17.05    1.41
  -4   7   7   32.92    2.01
  -4   7   7   28.48    2.23
   4  -7  -7   30.30    1.79
  -4   7   8    7.15    1.34
  -4   7   8    8.14    1.56
   4  -7  -8    7.07    1.24
  -4   7   9    2.99    1.22
  -4   7   9    7.69    1.61
   4  -7  -9    3.79    1.11
  -4   7  10    8.23    1.81
  -4   7  10   11.90    1.98
   4  -7 -10   11.51    1.58
  -4   7  11    4.79    1.61
  -4   7  11    3.85    1.73
   4  -7 -11    4.61    1.24
  -4   7  12   -0.17    1.43
  -4   7  12   -0.96    1.41
   4  -7 -12   -0.73    1.12
  -4   7  13    8.19    2.06
  -4   7  14    1.81    1.73
  -4   7  15    3.24    1.92
   5  -8  15    3.44    2.46
   5  -8  14    1.64    1.91
   5  -8  13   21.51    2.82
   5  -8  12    4.21    1.91
   5  -8  11    8.64    2.08
   5  -8  10   -1.16    1.57
   5  -8   9   25.90    2.66
   5  -8   8   52.95    3.19
   5  -8   7   96.39    4.25
   5  -8   6    1.85    1.21
   5  -8   5  153.40    5.59
  -5   8  -4   56.76    2.73
   5  -8   4   50.59    2.64
  -5   8  -3   73.69    3.33
   5  -8   3   76.82    3.22
  -5   8  -2   21.42    1.51
   5  -8   2   17.89    1.59
  -5   8  -1  159.56    5.51
  -5   8  -1  163.81    5.60
   5  -8   1  152.73    5.42
  -5   8   0  269.84    8.72
  -5   8   0  267.61    8.57
   5  -8   0  260.08    8.48
  -5   8   1  148.70    5.14
  -5   8   1  151.00    5.35
   5  -8  -1  158.51    5.27
  -5   8   2   20.85    1.63
  -5   8   2   17.73    1.30
  -5   8   3   69.41    3.08
  -5   8   3   69.70    2.83
   5  -8  -3   72.49    3.00
  -5   8   4   53.57    2.72
  -5   8   4   54.98    2.47
   5  -8  -4   60.64    2.71
  -5   8   5  165.33    5.98
  -5   8   5  155.15    5.54
   5  -8  -5  166.16    5.57
  -5   8   6    0.93    1.15
  -5   8   6    1.57    1.06
   5  -8  -6    0.42    0.85
  -5   8   7   96.85    3.93
  -5   8   7  100.23    4.38
   5  -8  -7   98.62    3.76
  -5   8   8   52.48    2.65
  -5   8   8   51.94    3.11
   5  -8  -8   45.53    2.45
  -5   8   9   19.60    2.32
  -5   8   9   23.34    2.16
   5  -8  -9   21.29    1.84
  -5   8  10    0.57    1.54
  -5   8  10    0.94    1.55
   5  -8 -10    2.12    1.16
  -5   8  11    9.24    2.01
  -5   8  11   12.05    2.03
   5  -8 -11   12.42    1.58
  -5   8  12    4.65    1.78
  -5   8  13   15.12    2.40
  -5   8  14    1.37    1.76
  -5   8  15    2.05    1.86
   6  -9  15   -1.20    1.83
   6  -9  14   11.00    2.86
   6  -9  13    5.37    2.07
   6  -9  12    5.33    1.97
   6  -9  11    0.26    1.96
   6  -9  10    2.72    1.75
   6  -9   9   -1.00    1.51
   6  -9   8   36.66    2.82
   6  -9   7    6.79    1.64
   6  -9   6  136.03    5.35
   6  -9   5   32.03    2.26
  -6   9  -4    2.58    1.15
   6  -9   4    5.55    1.32
  -6   9  -3    2.38    1.10
   6  -9   3    1.58    1.06
  -6   9  -2    4.15    1.19
   6  -9   2    6.62    1.26
  -6   9  -1    5.22    1.14
  -6   9  -1    6.05    1.20
   6  -9   1    4.74    1.12
  -6   9   0  230.00    7.85
  -6   9   0  240.48    7.99
   6  -9   0  245.50    7.87
  -6   9   1    6.67    1.20
  -6   9   1    4.10    0.89
   6  -9  -1    6.28    1.32
  -6   9   2    5.81    1.18
  -6   9   2    3.80    0.97
   6  -9  -2    1.72    0.81
  -6   9   3    3.14    1.12
  -6   9   3    0.94    0.84
   6  -9  -3    2.10    1.09
  -6   9   4    4.86    1.12
  -6   9   4    4.97    1.09
   6  -9  -4    6.20    1.24
  -6   9   5   34.05    2.03
  -6   9   5   36.94    2.41
   6  -9  -5   34.52    2.05
  -6   9   6  142.17    5.66
  -6   9   6  146.35    5.30
   6  -9  -6  146.46    5.20
  -6   9   7    5.89    1.62
  -6   9   7    6.01    1.45
   6  -9  -7    8.00    1.25
  -6   9   8   40.61    2.61
  -6   9   8   38.61    2.89
   6  -9  -8   37.86    2.21
  -6   9   9    0.66    1.51
  -6   9   9   -0.38    1.52
   6  -9  -9    1.38    1.06
  -6   9  10    1.10    1.59
  -6   9  10   -0.88    1.32
   6  -9 -10    0.74    0.98
  -6   9  11    2.99    1.73
  -6   9  11    6.90    1.67
  -6   9  12    3.09    1.83
  -6   9  13    2.43    1.78
  -6   9  14   12.03    2.40
  -6   9  15   -0.31    1.84
   7 -10  14    2.19    2.36
   7 -10  13    4.45    2.12
   7 -10  12    2.43    1.93
   7 -10  11    8.38    2.12
   7 -10  10    5.38    1.92
   7 -10   9    3.70    1.81
   7 -10   8   19.80    2.42
   7 -10   7   69.51    3.72
   7 -10   6    3.91    1.56
  -7  10  -5   39.69    2.62
   7 -10   5   40.41    2.63
  -7  10  -4    6.96    1.44
   7 -10   4    6.54    1.48
  -7  10  -3   64.63    3.19
   7 -10   3   70.07    3.24
  -7  10  -2   21.13    1.87
   7 -10   2   20.71    2.04
  -7  10  -1   76.03    3.35
  -7  10  -1   84.09    3.57
   7 -10   1   74.40    3.35
  -7  10   0  120.81    4.53
  -7  10   0  114.54    4.60
   7 -10   0  123.38    4.56
  -7  10   1   78.03    3.24
  -7  10   1   76.04    3.41
   7 -10  -1   79.61    3.44
  -7  10   2   17.76    1.75
  -7  10   2   18.21    1.61
   7 -10  -2   15.88    1.66
  -7  10   3   71.44    3.30
  -7  10   3   65.51    2.99
   7 -10  -3   70.48    3.22
  -7  10   4    4.92    1.37
  -7  10   4    5.38    1.21
   7 -10  -4    5.94    1.35
  -7  10   5   40.91    2.46
  -7  10   5   46.75    2.42
   7 -10  -5   37.24    2.42
  -7  10   6    5.14    1.38
  -7  10   6    6.11    1.62
   7 -10  -6    7.03    1.36
  -7  10   7   74.41    3.85
  -7  10   7   71.84    3.38
   7 -10  -7   71.12    3.16
  -7  10   8   19.43    2.12
  -7  10   8   13.95    2.17
   7 -10  -8   18.70    1.72
  -7  10   9    4.17    1.57
  -7  10   9    3.82    1.83
   7 -10  -9    5.75    1.20
  -7  10  10    2.65    1.71
  -7  10  10    3.82    1.70
  -7  10  11    7.94    2.00
  -7  10  12    4.29    1.96
  -7  10  13    7.10    2.19
  -7  10  14    0.31    1.88
   8 -11  14    1.45    2.55
   8 -11  13    2.83    2.06
   8 -11  12   -0.48    2.13
   8 -11  11    7.34    2.12
   8 -11  10   13.39    2.32
   8 -11   9    4.88    1.89
   8 -11   8    2.97    1.75
   8 -11   7    9.64    1.94
   8 -11   6    4.85    1.69
  -8  11  -5    5.62    1.54
   8 -11   5    6.18    1.64
  -8  11  -4    7.82    1.65
   8 -11   4    7.71    1.66
  -8  11  -3   37.01    2.46
   8 -11   3   40.23    2.80
  -8  11  -2    5.27    1.45
  -8  11  -2    5.44    1.29
   8 -11   2    7.29    1.48
  -8  11  -1   12.56    1.53
  -8  11  -1   14.45    1.74
   8 -11   1   15.10    1.74
  -8  11   0   19.77    2.04
  -8  11   0   21.03    1.95
   8 -11   0   19.98    1.90
  -8  11   1   16.26    1.94
  -8  11   1   14.36    1.54
   8 -11  -1   14.48    1.62
  -8  11   2    3.82    1.32
  -8  11   2    4.95    1.10
   8 -11  -2    6.17    1.45
  -8  11   3   32.82    2.37
  -8  11   3   35.55    2.26
   8 -11  -3   39.12    2.43
  -8  11   4    8.29    1.42
  -8  11   4    8.39    1.65
   8 -11  -4   11.06    1.59
  -8  11   5    6.28    1.46
  -8  11   5    7.05    1.63
   8 -11  -5    3.57    1.39
  -8  11   6    5.10    1.68
  -8  11   6    7.78    1.57
   8 -11  -6    6.17    1.42
  -8  11   7   13.33    1.87
  -8  11   7    8.42    1.67
   8 -11  -7   12.02    1.56
  -8  11   8    3.11    1.75
  -8  11   8    6.82    1.75
   8 -11  -8    4.35    1.17
  -8  11   9    7.14    1.81
  -8  11   9    8.51    1.99
  -8  11  10   13.83    2.14
  -8  11  10    9.64    2.08
  -8  11  11    2.41    1.82
  -8  11  12    1.52    1.83
  -8  11  13   -0.04    1.82
  -8  11  14    2.85    2.33
   9 -12  13    4.64    2.59
   9 -12  12    2.53    2.04
   9 -12  11   -0.01    1.87
   9 -12  10   15.50    2.49
   9 -12   9    1.52    1.70
   9 -12   8   -0.27    1.59
   9 -12   7   21.83    2.55
  -9  12  -6   12.60    2.05
   9 -12   6   17.41    2.48
  -9  12  -5   17.46    2.24
   9 -12   5   16.70    2.20
  -9  12  -4   59.98    3.41
   9 -12   4   59.51    3.38
  -9  12  -3   13.11    1.84
   9 -12   3   12.40    1.87
  -9  12  -2    9.47    1.60
  -9  12  -2   10.72    1.63
   9 -12   2    9.20    1.69
  -9  12  -1   19.89    1.99
   9 -12   1   22.29    2.23
  -9  12   0   -0.72    1.01
  -9  12   0   -0.28    1.38
   9 -12   0   -0.57    1.39
  -9  12   1   22.35    2.14
  -9  12   1   25.72    2.37
   9 -12  -1   18.51    1.98
  -9  12   2    8.27    1.56
  -9  12   2   11.15    1.96
   9 -12  -2    8.65    1.67
  -9  12   3   17.99    1.89
  -9  12   3   15.04    1.93
   9 -12  -3   13.05    1.80
  -9  12   4   67.48    3.26
  -9  12   4   62.76    3.50
   9 -12  -4   62.20    3.20
  -9  12   5   17.54    2.18
  -9  12   5   18.87    2.02
   9 -12  -5   19.61    2.07
  -9  12   6   18.46    2.37
  -9  12   6   16.58    2.00
   9 -12  -6   17.74    1.98
  -9  12   7   17.98    2.39
  -9  12   7   25.91    2.42
   9 -12  -7   23.09    2.08
  -9  12   8    0.79    1.70
  -9  12   8    2.12    1.72
  -9  12   9    3.03    1.75
  -9  12   9   -0.86    1.60
  -9  12  10   15.00    2.46
  -9  12  11    0.18    1.72
  -9  12  12    4.22    2.01
  -9  12  13    3.45    2.01
  10 -13  13    1.98    2.25
  10 -13  12    4.20    2.20
  10 -13  11    2.23    1.96
  10 -13  10   14.92    2.74
  10 -13   9    1.12    1.76
  10 -13   8    1.28    1.77
  10 -13   7   14.25    2.34
 -10  13  -6   11.44    2.34
  10 -13   6   12.42    2.21
 -10  13  -5    2.76    1.60
  10 -13   5    2.63    1.68
 -10  13  -4   11.69    1.96
  10 -13   4   11.60    2.04
 -10  13  -3   11.56    1.88
 -10  13  -3   11.78    1.88
  10 -13   3   13.50    1.99
 -10  13  -2   73.11    3.85
 -10  13  -2   68.55    3.79
  10 -13   2   72.87    3.89
 -10  13  -1    2.34    1.31
 -10  13  -1   -0.12    0.50
  10 -13   1    3.26    1.56
 -10  13   0    0.93    1.24
 -10  13   0    1.51    1.40
  10 -13   0    1.70    1.66
 -10  13   1    0.41    1.43
 -10  13   1    0.16    1.36
  10 -13  -1   -1.57    0.76
 -10  13   2   72.43    3.70
 -10  13   2   70.93    3.60
  10 -13  -2   73.61    3.71
 -10  13   3   10.99    2.09
 -10  13   3    9.09    1.56
  10 -13  -3   11.33    1.88
 -10  13   4   14.74    1.98
 -10  13   4   12.70    2.02
  10 -13  -4   16.26    2.08
 -10  13   5    3.07    1.64
 -10  13   5    2.14    1.46
  10 -13  -5    2.49    1.56
 -10  13   6    9.81    1.87
 -10  13   6    7.13    1.97
  10 -13  -6    9.86    1.76
 -10  13   7   15.02    2.05
 -10  13   7   13.99    2.31
 -10  13   8    5.14    1.80
 -10  13   8    1.92    1.72
 -10  13   9    0.71    1.73
 -10  13  10   14.30    2.47
 -10  13  11    3.46    2.04
 -10  13  12    5.45    2.16
 -10  13  13    1.74    1.97
  11 -14  12   -1.85    2.01
  11 -14  11    2.60    2.15
  11 -14  10   -1.55    1.75
  11 -14   9    6.06    2.14
  11 -14   8    6.78    2.14
  11 -14   7    0.54    1.73
 -11  14  -6    6.15    1.88
  11 -14   6    4.66    1.98
 -11  14  -5   10.11    2.09
  11 -14   5    8.15    2.08
 -11  14  -4    1.12    1.49
  11 -14   4    2.77    2.10
 -11  14  -3   16.37    2.19
 -11  14  -3   17.93    2.28
  11 -14   3   17.35    2.33
 -11  14  -2    1.06    1.69
 -11  14  -2    3.06    1.51
  11 -14   2    0.04    1.50
 -11  14  -1   -0.57    1.16
 -11  14  -1    2.18    1.43
  11 -14   1    3.24    1.68
 -11  14   0   43.67    3.04
 -11  14   0   46.61    2.96
  11 -14   0   48.71    3.12
 -11  14   1    3.35    1.82
 -11  14   1    5.71    1.72
 -11  14   2    1.16    1.49
 -11  14   2    1.49    1.57
  11 -14  -2    3.39    1.69
 -11  14   3   18.90    2.24
 -11  14   3   18.69    2.37
  11 -14  -3   18.43    2.22
 -11  14   4    4.24    1.68
 -11  14   4    1.60    1.64
  11 -14  -4    0.99    1.71
 -11  14   5   13.77    2.27
 -11  14   5   10.86    1.91
  11 -14  -5   11.35    2.00
 -11  14   6    6.66    1.96
 -11  14   6    8.40    1.96
 -11  14   7    3.25    1.65
 -11  14   7    4.57    1.93
 -11  14   8    8.45    2.04
 -11  14   8   11.58    2.32
 -11  14   9   10.31    2.25
 -11  14  10    1.41    1.83
 -11  14  11    5.96    2.19
 -11  14  12   -1.13    1.82
  12 -15  11    0.74    2.17
  12 -15  10    2.22    2.09
  12 -15   9   -0.40    1.85
  12 -15   8   -0.64    1.79
  12 -15   7   -0.92    1.66
 -12  15  -6    7.52    2.18
  12 -15   6    7.58    2.07
 -12  15  -5    9.99    2.13
  12 -15   5    5.10    1.96
 -12  15  -4   16.82    2.40
  12 -15   4   22.17    2.90
 -12  15  -3    3.83    1.83
 -12  15  -3    5.11    1.78
  12 -15   3    4.53    1.85
 -12  15  -2    6.34    2.03
 -12  15  -2    2.69    1.91
  12 -15   2    4.61    2.11
 -12  15  -1    4.98    1.66
 -12  15  -1    2.57    1.87
  12 -15   1    4.88    2.11
 -12  15   0    4.40    1.65
 -12  15   0    3.86    1.93
  12 -15   0    4.67    2.07
 -12  15   1    3.85    1.75
 -12  15   1    1.45    1.75
  12 -15  -1   -0.90    0.56
 -12  15   2    6.29    1.94
 -12  15   2    6.48    2.15
  12 -15  -2    3.14    1.89
 -12  15   3    6.50    1.92
 -12  15   3    1.97    1.68
  12 -15  -3    6.61    1.91
 -12  15   4   18.22    2.37
 -12  15   4   21.89    2.61
  12 -15  -4   20.81    2.36
 -12  15   5   11.10    2.16
 -12  15   5    7.91    1.90
 -12  15   6    9.91    1.94
 -12  15   7    0.54    1.70
 -12  15   7    2.81    1.74
 -12  15   8    1.31    1.80
 -12  15   9    1.64    1.93
 -12  15  10    1.20    2.08
 -12  15  11    2.06    2.06
  13 -16  11    0.39    2.59
  13 -16  10    3.04    2.25
  13 -16   9    1.69    2.09
  13 -16   8    3.73    2.12
 -13  16  -7    1.49    1.68
  13 -16   7    1.94    1.91
 -13  16  -6    1.26    1.67
  13 -16   6    2.39    2.23
 -13  16  -5    1.37    1.63
  13 -16   5    0.80    1.83
 -13  16  -4    2.06    1.61
  13 -16   4    2.46    2.13
 -13  16  -3    9.03    2.01
 -13  16  -3    9.78    2.00
  13 -16   3    7.81    2.06
 -13  16  -2    3.58    1.68
 -13  16  -2    2.91    1.89
  13 -16   2    2.63    1.79
 -13  16  -1    3.13    1.64
 -13  16  -1    3.78    1.73
  13 -16   1    3.38    1.82
 -13  16   0    4.18    1.62
 -13  16   0    1.60    1.45
  13 -16   0    2.94    2.06
 -13  16   1    0.27    1.58
 -13  16   1    1.81    1.81
  13 -16  -1   -1.04    1.23
 -13  16   2    0.82    1.92
 -13  16   2    3.13    1.84
  13 -16  -2    3.65    1.92
 -13  16   3    8.00    2.04
 -13  16   3    7.68    1.76
  13 -16  -3    4.98    1.84
 -13  16   4    0.45    1.37
 -13  16   4    0.88    1.69
  13 -16  -4   -3.59    1.59
 -13  16   5   -1.27    1.56
 -13  16   5    0.33    1.59
 -13  16   6    0.43    1.60
 -13  16   6   -1.15    1.64
 -13  16   7    2.17    1.93
 -13  16   7    2.11    1.71
 -13  16   8    2.15    1.96
 -13  16   9   -0.41    2.31
 -13  16  10   -0.81    1.88
 -13  16  11    4.12    2.29
  14 -17  10    5.08    2.47
  14 -17   9    0.12    2.03
  14 -17   8   -0.73    1.94
 -14  17  -7    6.96    2.15
  14 -17   7    5.69    2.31
 -14  17  -6    3.18    1.88
  14 -17   6    4.53    2.06
 -14  17  -5    1.99    1.79
  14 -17   5    1.65    1.92
 -14  17  -4    3.41    1.74
  14 -17   4    1.69    2.16
 -14  17  -3    7.29    1.91
 -14  17  -3    5.04    1.86
  14 -17   3    1.45    1.84
 -14  17  -2   12.12    2.18
 -14  17  -2   12.01    2.39
  14 -17   2   13.33    2.38
 -14  17  -1    2.58    1.65
 -14  17  -1    2.12    1.99
  14 -17   1    3.18    2.17
 -14  17   0   -0.17    0.60
 -14  17   0    0.20    1.78
  14 -17   0   -1.62    1.53
 -14  17   1    2.10    1.59
 -14  17   1    5.65    1.91
  14 -17  -1    3.09    1.89
 -14  17   2   13.58    2.35
 -14  17   2   11.02    2.03
  14 -17  -2   14.06    2.38
 -14  17   3    5.40    2.04
 -14  17   3    6.45    1.97
  14 -17  -3    8.26    2.17
 -14  17   4    0.80    1.74
 -14  17   4    0.24    1.65
 -14  17   5    1.05    1.80
 -14  17   5    4.10    1.61
 -14  17   6    2.58    2.24
 -14  17   6    3.89    1.87
 -14  17   7    8.31    2.34
 -14  17   8   -1.18    1.90
 -14  17   9   -0.82    1.90
 -14  17  10    2.19    2.16
  15 -18   8    0.78    2.18
 -15  18  -7    1.39    1.81
  15 -18   7    0.91    2.18
 -15  18  -6   -0.40    1.64
  15 -18   6    0.96    2.10
 -15  18  -5    5.13    2.08
  15 -18   5    2.22    2.42
 -15  18  -4    7.53    2.04
  15 -18   4    7.42    2.27
 -15  18  -3   -1.28    1.52
  15 -18   3    1.09    1.91
 -15  18  -2    1.76    1.62
  15 -18   2    2.64    1.98
 -15  18  -1    1.54    1.69
 -15  18  -1    1.30    2.05
  15 -18   1    1.57    1.91
 -15  18   0    3.79    2.03
 -15  18   0    2.23    1.72
  15 -18   0    4.74    2.21
 -15  18   1    3.46    2.17
 -15  18   1    0.38    1.82
  15 -18  -1    2.70    2.09
 -15  18   2    6.91    1.91
 -15  18   2    3.32    2.29
  15 -18  -2    5.81    2.13
 -15  18   3    1.11    1.79
 -15  18   3    3.05    1.73
 -15  18   4    9.14    2.20
 -15  18   4   10.85    2.63
 -15  18   5    2.81    2.06
 -15  18   5    4.85    2.06
 -15  18   6    3.35    1.91
 -15  18   6   -2.26    1.76
 -15  18   7   -0.90    2.18
 -15  18   8    2.10    2.14
 -16  19  -7    0.25    1.79
  16 -19   7    3.87    2.67
 -16  19  -6   -0.33    1.74
  16 -19   6    2.02    2.16
 -16  19  -5    0.87    2.18
  16 -19   5   -0.78    1.90
 -16  19  -4    1.84    1.84
  16 -19   4    0.99    2.00
 -16  19  -3   10.59    2.27
  16 -19   3   10.83    2.57
 -16  19  -2    1.63    1.77
  16 -19   2    5.84    2.21
 -16  19  -1    0.24    1.98
  16 -19   1   -0.57    1.97
 -16  19   0    8.87    2.43
 -16  19   0    6.20    2.38
  16 -19   0    2.32    1.85
 -16  19   1    3.81    2.19
 -16  19   1    1.63    1.68
  16 -19  -1    1.77    2.22
 -16  19   2   -0.13    1.83
 -16  19   2    0.84    1.70
 -16  19   3   10.55    2.76
 -16  19   3   12.89    2.51
 -16  19   4   -1.21    1.85
 -16  19   4    0.20    1.56
 -16  19   5    0.04    1.81
 -16  19   5   -1.73    1.80
 -16  19   6    1.61    2.09
 -16  19   7   -2.13    1.84
 -17  20  -5    1.01    1.91
  17 -20   5   -1.74    1.94
 -17  20  -4    1.48    1.87
  17 -20   4   -0.08    2.54
 -17  20  -3    0.60    1.83
  17 -20   3   -0.98    2.41
 -17  20  -2    1.16    1.76
  17 -20   2    3.31    2.25
 -17  20  -1   -0.19    1.66
  17 -20   1   -1.62    1.93
 -17  20   0    5.39    2.29
 -17  20   1   -2.06    1.89
 -17  20   1   -0.76    0.69
 -17  20   2    2.01    2.44
 -17  20   2   -0.19    1.61
 -17  20   3   -0.70    1.95
 -17  20   3   -0.17    2.31
 -17  20   4    1.40    2.00
 -17  20   4    1.93    2.01
 -17  20   5   -2.57    2.21
 -18  21  -3   -0.73    2.17
 -18  21  -2    1.01    1.87
  18 -21   2   -1.82    2.53
 -18  21  -1   -0.79    1.69
  18 -21   1   -0.47    2.45
 -18  21   0    1.64    1.89
 -18  21   1   -0.43    1.68
 -18  21   2    1.08    2.40
 -18  21   2    1.81    1.86
 -18  21   3    1.31    2.12
 -21  17   4    1.42    2.13
 -21  17   3    0.10    2.00
 -21  17   2   -1.16    1.88
 -21  17   1    0.97    2.42
 -21  17   0   -0.54    1.98
 -21  17  -1    2.22    2.20
 -21  17  -2    7.08    2.47
  21 -17   3    0.39    2.02
 -21  17  -3   -0.03    1.94
  21 -17   4   -1.39    2.08
 -21  17  -4   -1.49    1.90
 -20  16   6    3.47    2.26
 -20  16   6    1.40    1.74
 -20  16   5   -0.69    1.61
 -20  16   5   -0.86    1.96
 -20  16   4    0.73    2.01
 -20  16   4   -0.01    1.42
 -20  16   3    3.62    2.53
 -20  16   2   -1.22    1.89
 -20  16   1   -0.52    1.92
 -20  16   0    3.23    2.20
 -20  16  -1    2.90    2.18
  20 -16   2   -0.88    1.78
 -20  16  -2    1.07    2.10
  20 -16   3    0.46    2.03
 -20  16  -3   -0.83    1.91
  20 -16   4    1.56    2.14
 -20  16  -4    5.17    2.24
  20 -16   5   -0.51    1.72
 -20  16  -5   -2.60    1.68
  20 -16   6   -0.93    2.23
 -20  16  -6   -3.70    1.70
 -19  15   8    3.79    2.29
 -19  15   8    0.14    1.75
 -19  15   7    2.28    2.17
 -19  15   7   -1.61    1.54
 -19  15   6    0.41    2.40
 -19  15   6    1.73    1.69
 -19  15   5   -2.82    1.37
 -19  15   5    0.01    1.91
 -19  15   4   13.61    2.75
 -19  15   3    6.51    2.32
 -19  15   3    3.80    1.83
 -19  15   2    3.59    2.16
 -19  15   1    3.16    2.12
 -19  15   0    1.40    1.95
  19 -15   1    2.22    1.80
 -19  15  -1    0.33    1.85
  19 -15   2   -0.96    1.24
 -19  15  -2    6.59    2.31
  19 -15   3    2.92    2.01
 -19  15  -3    2.81    2.11
  19 -15   4   14.49    2.66
 -19  15  -4   12.07    2.71
  19 -15   5    0.01    2.02
 -19  15  -5   -1.05    1.78
  19 -15   6   -1.93    1.99
 -19  15  -6   -0.55    1.78
  19 -15   7    2.22    2.34
 -19  15  -7    1.42    2.00
  19 -15   8    0.30    2.40
 -19  15  -8    3.87    2.26
 -18  14   9    7.16    2.72
 -18  14   9    6.07    2.51
 -18  14   8    2.92    2.17
 -18  14   8   -0.31    1.77
 -18  14   7    4.25    1.96
 -18  14   7    4.96    2.30
 -18  14   6    7.50    2.42
 -18  14   6    8.53    2.29
 -18  14   5    5.88    1.86
 -18  14   5    6.78    2.31
 -18  14   4    2.11    1.70
 -18  14   4   -1.10    1.81
 -18  14   3   17.37    2.38
 -18  14   3   21.30    3.01
 -18  14   2   -0.61    2.26
 -18  14   2    1.16    1.52
 -18  14   1    1.23    1.89
  18 -14   0   13.26    2.15
 -18  14   0    7.09    2.24
  18 -14   1    0.55    1.60
 -18  14  -1    0.61    1.88
  18 -14   2   -0.62    0.53
 -18  14  -2    1.23    1.95
  18 -14   3   22.11    2.68
 -18  14  -3   19.19    2.94
  18 -14   4    2.93    1.97
 -18  14  -4   -1.17    1.73
  18 -14   5    7.95    2.33
 -18  14  -5    4.02    2.14
  18 -14   6    4.43    1.98
 -18  14  -6    5.78    2.48
  18 -14   7    1.89    1.84
 -18  14  -7    1.47    1.91
  18 -14   8    3.58    2.03
 -18  14  -8    1.69    2.02
  18 -14   9    4.78    2.63
 -18  14  -9    5.42    2.84
 -17  13  10   12.56    2.54
 -17  13  10    8.09    2.85
 -17  13   9    2.07    2.14
 -17  13   9    3.73    1.88
 -17  13   8    2.69    2.39
 -17  13   8    1.76    1.75
 -17  13   7    4.06    2.18
 -17  13   7    6.41    1.94
 -17  13   6   -2.10    1.67
 -17  13   6    4.22    2.06
 -17  13   5    0.75    1.95
 -17  13   5    1.68    1.50
 -17  13   4    0.88    1.61
 -17  13   4    3.30    2.02
 -17  13   3    3.34    1.58
 -17  13   3    3.56    2.01
 -17  13   2   14.01    2.55
 -17  13   2   17.21    2.14
 -17  13   1    9.80    1.78
 -17  13   1    8.54    2.28
  17 -13   0    1.02    1.55
 -17  13   0    1.38    1.86
  17 -13   1   10.84    1.91
 -17  13  -1    6.08    2.08
  17 -13   2    8.21    1.52
 -17  13  -2   16.66    2.63
  17 -13   3    5.81    1.95
 -17  13  -3    3.81    2.03
  17 -13   4    6.11    1.96
 -17  13  -4    0.76    1.77
  17 -13   5    2.15    1.66
 -17  13  -5    2.66    1.86
  17 -13   6    1.65    1.69
 -17  13  -6   -0.14    1.72
  17 -13   7    5.81    2.04
 -17  13  -7    5.75    2.20
  17 -13   8    3.19    2.04
 -17  13  -8    1.92    1.97
  17 -13   9    4.76    2.11
 -17  13  -9    5.98    2.72
  17 -13  10   17.63    2.95
 -17  13 -10    9.15    2.59
 -16  12  11    4.80    2.31
 -16  12  11    2.45    1.93
 -16  12  10    3.89    1.99
 -16  12  10    6.08    2.69
 -16  12   9    1.12    2.00
 -16  12   9    5.85    2.04
 -16  12   8   -1.67    1.89
 -16  12   8    3.39    1.75
 -16  12   7    3.92    1.75
 -16  12   6   -0.28    1.79
 -16  12   6   -0.46    1.68
 -16  12   5    2.87    2.02
 -16  12   5    5.67    1.87
 -16  12   4    1.46    1.63
 -16  12   4    1.62    2.21
 -16  12   3    3.68    1.13
 -16  12   3   11.25    2.39
 -16  12   2    6.98    2.15
 -16  12   2    6.34    1.63
  16 -12  -1    2.88    1.45
 -16  12   1   -0.04    1.91
 -16  12   1    2.33    1.37
  16 -12   0    1.81    1.41
 -16  12   0    2.63    1.95
 -16  12   0    2.39    1.37
  16 -12   1    4.13    1.63
 -16  12  -1    2.48    1.90
  16 -12   2    5.52    1.68
 -16  12  -2    6.02    2.10
  16 -12   3   10.61    2.14
 -16  12  -3   11.80    2.48
  16 -12   4    3.20    1.58
 -16  12  -4   -1.68    1.59
  16 -12   5    5.00    1.96
 -16  12  -5    5.81    2.03
  16 -12   6    0.68    1.59
 -16  12  -6   -0.24    1.68
  16 -12   7    4.20    1.88
 -16  12  -7    0.97    1.75
  16 -12   8    0.45    1.73
 -16  12  -8    1.39    1.88
  16 -12   9    1.24    1.96
 -16  12  -9    7.43    2.40
  16 -12  10   -0.87    1.94
 -16  12 -10    1.50    1.97
  16 -12  11    3.85    2.64
 -15  11  12    5.31    2.15
 -15  11  12    0.65    2.52
 -15  11  11    2.08    1.93
 -15  11  11    4.26    2.50
 -15  11  10    5.73    2.57
 -15  11  10    4.70    1.95
 -15  11   9    3.42    2.05
 -15  11   9    3.32    1.84
 -15  11   8    7.60    2.21
 -15  11   8    5.85    1.88
 -15  11   7    2.97    1.95
 -15  11   7    1.72    1.85
 -15  11   6   -0.30    1.76
 -15  11   6    1.14    1.44
 -15  11   5   -0.57    1.84
 -15  11   5   -0.52    1.33
 -15  11   4   43.62    3.68
 -15  11   4   39.32    2.79
 -15  11   3   11.33    2.35
  15 -11  -2    0.20    1.08
 -15  11   2    0.81    1.38
 -15  11   2    2.17    2.23
  15 -11  -1    4.61    1.42
 -15  11   1    4.65    2.07
 -15  11   1    7.77    1.58
  15 -11   0   30.88    2.45
 -15  11   0   31.11    2.27
 -15  11   0   27.41    3.05
  15 -11   1    5.30    1.60
 -15  11  -1    8.18    2.38
 -15  11  -1    3.53    1.28
  15 -11   2    0.44    1.47
 -15  11  -2    2.11    1.78
  15 -11   3   12.24    1.93
 -15  11  -3   15.60    2.60
  15 -11   4   47.77    3.16
 -15  11  -4   41.10    3.72
  15 -11   5    2.15    1.61
 -15  11  -5    2.48    1.79
  15 -11   6   -0.24    1.56
 -15  11  -6    4.88    1.90
  15 -11   7    3.32    2.08
 -15  11  -7    2.39    1.81
  15 -11   8    7.50    2.16
 -15  11  -8    8.74    2.26
  15 -11   9    2.38    1.93
 -15  11  -9    2.14    1.92
  15 -11  10    5.78    2.24
 -15  11 -10    6.81    2.43
  15 -11  11    0.14    1.97
  15 -11  12    3.76    2.13
 -14  10  12    3.23    2.15
 -14  10  11    6.65    2.33
 -14  10  10    7.90    2.33
 -14  10   9   12.43    2.72
 -14  10   8    0.23    1.77
 -14  10   7   10.11    2.55
 -14  10   6   -0.65    1.38
 -14  10   6    0.45    1.89
 -14  10   5   22.64    2.51
 -14  10   5   27.54    3.26
 -14  10   4   42.65    2.76
 -14  10   4   40.31    3.68
 -14  10   3   27.49    2.91
 -14  10   3   24.83    2.13
  14 -10  -2   10.29    1.45
 -14  10   2   13.40    2.30
 -14  10   2   12.61    1.76
  14 -10  -1   43.26    2.47
 -14  10   1   44.02    2.51
 -14  10   1   47.14    3.43
  14 -10   0   -1.24    1.22
 -14  10   0   -1.80    1.01
 -14  10   0    0.25    1.68
  14 -10   1   47.62    2.77
 -14  10  -1   44.58    2.46
 -14  10  -1   51.45    3.50
  14 -10   2   13.18    1.74
 -14  10  -2   10.33    1.39
 -14  10  -2   12.40    2.23
  14 -10   3   24.94    2.51
 -14  10  -3   35.50    3.26
  14 -10   4   41.52    2.94
 -14  10  -4   45.21    3.47
  14 -10   5   28.03    2.63
 -14  10  -5   22.51    2.84
  14 -10   6    1.62    1.65
 -14  10  -6    2.62    1.61
 -14  10  -6   -0.09    1.93
  14 -10   7   10.30    2.08
 -14  10  -7    8.71    2.22
 -14  10  -7   14.01    2.18
  14 -10   8    2.49    2.01
 -14  10  -8    1.09    1.76
 -14  10  -8    1.05    1.69
  14 -10   9   12.04    2.34
 -14  10  -9   14.62    2.31
 -14  10  -9   15.68    2.67
  14 -10  10   12.93    2.51
 -14  10 -10   11.41    2.72
  14 -10  11    4.08    2.05
  14 -10  12    1.34    1.99
 -13   9  13    0.40    1.95
 -13   9  12   -1.93    2.20
 -13   9  11   13.25    2.81
 -13   9  10    1.13    2.21
 -13   9   9   20.46    2.77
 -13   9   8   -1.52    1.68
 -13   9   7    0.25    1.78
 -13   9   6   46.72    3.52
 -13   9   5   21.44    2.73
 -13   9   4    8.77    2.12
  13  -9  -3   77.30    2.98
 -13   9   3   81.96    3.61
 -13   9   3   78.80    4.26
  13  -9  -2   43.89    2.19
 -13   9   2   39.49    2.47
 -13   9   2   45.61    3.26
  13  -9  -1   16.24    1.60
 -13   9   1   18.95    1.74
 -13   9   1   16.79    2.38
  13  -9   0    3.07    1.11
 -13   9   0    1.45    1.61
 -13   9   0    2.68    1.05
  13  -9   1   12.18    1.64
 -13   9  -1   20.27    1.55
 -13   9  -1   16.31    2.35
  13  -9   2   40.49    2.60
 -13   9  -2   39.24    2.04
 -13   9  -2   40.74    3.07
  13  -9   3   75.93    3.66
 -13   9  -3   82.72    4.34
 -13   9  -3   81.08    3.67
 -13   9  -4    8.74    1.84
 -13   9  -4   13.61    2.26
 -13   9  -5   28.74    2.54
 -13   9  -5   25.02    2.82
 -13   9  -6   55.48    3.70
 -13   9  -6   48.84    3.21
 -13   9  -7    0.48    1.63
 -13   9  -7   -1.50    1.39
 -13   9  -8    1.72    1.69
 -13   9  -8    3.57    1.90
 -13   9  -9   20.88    2.88
 -13   9  -9   23.69    2.65
 -13   9 -10    1.37    1.78
 -13   9 -10    4.83    2.10
  13  -9  11    9.46    2.33
 -13   9 -11   11.91    2.33
  13  -9  12    1.91    1.93
 -13   9 -12    0.55    1.82
  13  -9  13    3.73    2.10
 -12   8  13    2.45    2.09
 -12   8  12   -0.41    2.31
 -12   8  11    3.26    2.36
 -12   8  10    8.78    2.19
 -12   8   9   16.07    2.79
 -12   8   8    3.83    1.97
 -12   8   7   35.71    3.25
 -12   8   6    6.89    2.04
 -12   8   5    6.74    2.02
  12  -8  -4   26.27    1.21
 -12   8   4   25.54    2.94
  12  -8  -3   21.34    1.31
 -12   8   3   21.19    2.46
  12  -8  -2   34.05    1.77
 -12   8   2   29.75    2.00
 -12   8   2   37.41    2.84
  12  -8  -1   55.32    2.49
 -12   8   1   51.52    3.30
 -12   8   1   57.67    2.59
  12  -8   0    1.79    0.97
 -12   8   0    2.10    0.85
 -12   8   0    0.51    1.45
 -12   8  -1   59.72    2.48
 -12   8  -1   56.11    3.42
 -12   8  -2   30.81    2.05
 -12   8  -2   35.94    1.76
 -12   8  -2   35.20    2.74
 -12   8  -3   24.63    1.16
 -12   8  -3   23.91    2.02
 -12   8  -3   27.67    2.69
 -12   8  -4   24.05    2.18
 -12   8  -4   27.34    2.71
 -12   8  -5    7.41    1.87
 -12   8  -5    9.34    1.67
 -12   8  -6    7.44    2.15
 -12   8  -6    9.12    1.76
 -12   8  -7   42.41    3.51
 -12   8  -7   34.82    2.97
 -12   8  -8    4.23    1.64
 -12   8  -8    2.50    1.80
 -12   8  -9   17.95    2.62
 -12   8  -9   11.45    2.33
 -12   8 -10    8.98    2.08
 -12   8 -11    2.25    1.78
 -12   8 -12    2.59    1.82
  12  -8  13    5.87    2.21
 -12   8 -13    3.95    1.96
 -11   7  14    0.20    2.41
 -11   7  13    2.41    2.40
 -11   7  12    6.28    2.51
 -11   7  11    1.36    1.88
 -11   7  10   19.87    2.65
 -11   7   9   -0.77    1.70
 -11   7   8   23.22    2.71
 -11   7   7    4.59    1.88
 -11   7   6   18.91    2.40
 -11   7   5   -1.23    1.48
 -11   7   4    9.09    1.86
  11  -7  -3    5.12    0.72
 -11   7   3    3.92    1.58
  11  -7  -2   14.28    1.15
 -11   7   2   17.76    2.13
  11  -7  -1   11.86    1.16
 -11   7   1   11.59    1.67
  11  -7   0  204.56    6.77
 -11   7   0  216.45    7.75
 -11   7   0  208.70    6.78
 -11   7   0  206.13    6.77
 -11   7  -1    9.79    1.32
 -11   7  -1   10.32    1.62
 -11   7  -1   11.42    1.06
 -11   7  -2   17.60    2.10
 -11   7  -2   14.77    1.48
 -11   7  -2   14.74    1.07
 -11   7  -3    5.89    1.56
 -11   7  -3    4.03    1.09
 -11   7  -4    7.29    1.41
 -11   7  -4    9.81    1.87
 -11   7  -5    2.55    1.43
 -11   7  -5    1.27    1.24
 -11   7  -6   18.98    2.38
 -11   7  -6   19.94    2.17
 -11   7  -7    3.76    1.58
 -11   7  -7    3.69    1.67
 -11   7  -8   25.66    2.95
 -11   7  -8   28.69    2.70
 -11   7  -9    1.30    1.60
 -11   7  -9   -1.36    1.50
 -11   7 -10   20.01    2.67
 -11   7 -11   -1.70    1.49
 -11   7 -12    6.43    2.00
 -11   7 -13    2.21    2.18
 -11   7 -14    4.66    2.12
 -10   6  14    0.04    2.08
 -10   6  13   16.46    3.10
 -10   6  12    1.24    1.89
 -10   6  11   -0.15    1.77
 -10   6  10   -1.58    1.65
 -10   6   9   11.69    2.29
 -10   6   8   19.73    2.46
 -10   6   7  109.56    4.97
 -10   6   6   39.52    2.86
 -10   6   5   60.58    3.37
 -10   6   4    3.10    1.47
  10  -6  -3   27.28    1.17
 -10   6   3   26.07    2.42
  10  -6  -2    6.81    0.79
 -10   6   2    7.47    1.63
 -10   6   1  161.43    6.09
 -10   6   1  155.58    5.12
 -10   6   0   80.14    3.04
 -10   6   0   78.97    3.77
 -10   6  -1  159.79    5.41
 -10   6  -1  160.42    6.11
 -10   6  -1  158.26    5.13
 -10   6  -2    7.46    0.75
 -10   6  -2    5.41    1.08
 -10   6  -2    6.35    1.49
 -10   6  -3   28.10    2.43
 -10   6  -3   27.72    1.87
 -10   6  -4    2.22    1.35
 -10   6  -4    2.48    1.06
 -10   6  -5   64.26    3.46
 -10   6  -5   66.38    3.22
 -10   6  -6   39.10    2.70
 -10   6  -6   44.25    2.91
 -10   6  -7  122.02    5.41
 -10   6  -7  113.05    4.97
 -10   6  -8   21.27    2.39
 -10   6  -8   21.73    2.76
 -10   6  -9   11.18    2.02
 -10   6  -9    9.26    1.99
 -10   6 -10   -0.74    1.41
 -10   6 -11    3.34    1.74
 -10   6 -12   -0.15    1.60
 -10   6 -13   13.00    2.45
 -10   6 -14    4.62    2.00
  -9   5  15    6.36    2.89
  -9   5  14    6.12    2.38
  -9   5  13   17.43    2.84
  -9   5  12    0.74    1.89
  -9   5  11    1.71    1.82
  -9   5  10    5.39    1.96
  -9   5   9   13.69    2.59
  -9   5   8   13.50    2.22
  -9   5   7  142.57    5.84
  -9   5   6   80.13    3.87
  -9   5   5   62.78    3.33
  -9   5   4   23.22    2.18
   9  -5  -3   19.35    0.86
  -9   5   3   26.02    2.21
   9  -5  -2   42.08    1.61
  -9   5   2   37.35    2.52
  -9   5   1  191.52    6.85
  -9   5   1  187.04    5.92
  -9   5   0   54.20    2.25
  -9   5   0   54.64    2.91
  -9   5  -1  193.35    6.82
  -9   5  -1  183.27    6.11
  -9   5  -1  188.49    5.88
  -9   5  -2   41.86    1.51
  -9   5  -2   42.23    2.05
  -9   5  -2   40.53    2.52
  -9   5  -3   25.73    2.16
  -9   5  -3   20.08    1.65
  -9   5  -4   22.65    2.12
  -9   5  -4   22.80    1.84
  -9   5  -5   62.68    3.26
  -9   5  -5   62.09    3.04
  -9   5  -6   89.02    3.90
  -9   5  -6   83.08    4.01
   9  -5   7  145.90    4.64
  -9   5  -7  153.65    5.88
  -9   5  -7  153.53    6.09
  -9   5  -8   14.09    2.09
  -9   5  -8   16.41    2.08
  -9   5  -9   14.04    2.11
  -9   5 -10    2.51    1.63
  -9   5 -11    2.49    1.59
  -9   5 -12    1.08    1.64
  -9   5 -13   14.41    2.47
  -9   5 -14    8.29    2.39
  -9   5 -15    4.78    2.05
  -8   4  15   -0.39    2.01
  -8   4  14   15.57    2.81
  -8   4  13    1.65    1.99
  -8   4  12    9.03    2.27
  -8   4  11    0.27    1.76
  -8   4  10   -1.76    1.66
  -8   4   9    2.14    2.05
  -8   4   8   75.92    3.99
  -8   4   7   29.59    2.61
  -8   4   6   78.86    3.78
  -8   4   5   32.28    2.32
  -8   4   4   58.01    3.00
   8  -4  -3    2.40    0.31
  -8   4   3    3.08    1.23
  -8   4   2   15.69    0.84
  -8   4   2   13.42    1.62
  -8   4   1    0.91    1.09
  -8   4   1   -0.55    0.46
  -8   4   0  668.62   20.84
  -8   4   0  674.76   19.77
  -8   4  -1   -1.25    0.62
  -8   4  -1   -0.85    0.92
  -8   4  -2   14.66    1.30
  -8   4  -2   14.93    1.60
  -8   4  -2   14.04    0.63
  -8   4  -3    2.39    1.08
  -8   4  -3    3.32    0.93
  -8   4  -4   59.72    2.82
  -8   4  -4   66.49    3.12
  -8   4  -5   30.21    2.06
  -8   4  -5   31.60    2.16
   8  -4   6   80.29    2.64
  -8   4  -6   82.97    3.77
  -8   4  -6   84.88    3.67
   8  -4   7   30.06    1.41
  -8   4  -7   32.75    2.45
  -8   4  -7   31.00    2.35
   8  -4   8   72.94    2.77
  -8   4  -8   71.70    3.68
  -8   4  -8   72.26    3.71
   8  -4   9    1.43    0.87
  -8   4  -9    2.36    1.48
  -8   4 -10   -1.00    1.43
  -8   4 -11   -0.56    1.39
  -8   4 -12    6.29    1.85
  -8   4 -13    1.16    1.64
  -8   4 -14   14.78    2.46
  -8   4 -15   -1.94    1.60
  -7   3  15    4.62    2.69
  -7   3  14    4.20    2.50
  -7   3  13   13.57    2.83
  -7   3  12   -2.29    1.98
  -7   3  11    3.70    1.93
  -7   3  10   10.31    2.23
  -7   3   9    4.77    2.08
  -7   3   9    4.95    0.99
  -7   3   8    6.60    0.85
  -7   3   8    8.58    1.88
  -7   3   7   34.06    2.51
  -7   3   7   30.85    1.32
  -7   3   6   14.92    0.65
  -7   3   6   17.08    1.93
  -7   3   5   72.89    3.40
  -7   3   4    2.28    1.19
  -7   3   3   40.98    1.27
  -7   3   3   39.66    2.31
  -7   3   2    8.32    0.61
  -7   3   2   10.77    1.42
  -7   3   1  187.77    5.66
  -7   3   1  180.04    6.43
  -7   3   0   30.58    1.41
  -7   3   0   27.91    1.94
  -7   3  -1  175.28    6.19
  -7   3  -1  179.38    5.70
  -7   3  -2    8.40    1.00
  -7   3  -2    8.54    1.25
  -7   3  -3   35.73    2.07
  -7   3  -3   36.37    1.88
  -7   3  -4    5.58    1.14
  -7   3  -4    5.82    1.06
   7  -3   5   70.90    2.38
  -7   3  -5   75.66    3.24
  -7   3  -5   81.05    3.36
   7  -3   6   14.28    0.92
  -7   3  -6   15.09    1.65
  -7   3  -6   13.90    1.62
   7  -3   7   27.33    1.47
  -7   3  -7   33.62    2.40
  -7   3  -7   30.23    2.23
   7  -3   8    7.09    1.01
  -7   3  -8    7.23    1.55
   7  -3   9    5.31    1.04
  -7   3  -9    5.83    1.54
   7  -3  10    8.69    1.36
  -7   3 -10   12.56    2.08
  -7   3 -11    6.02    1.81
  -7   3 -12   -0.86    1.40
  -7   3 -13    9.62    2.06
  -7   3 -14    3.77    1.78
  -7   3 -15    3.94    1.89
  -6   2  15    1.74    2.11
  -6   2  14    4.20    2.51
  -6   2  13    2.40    2.22
  -6   2  12   -0.04    1.70
  -6   2  11   25.55    3.09
  -6   2  10   16.81    1.53
  -6   2  10   15.08    2.37
  -6   2   9   23.55    1.57
  -6   2   9   24.88    2.56
  -6   2   8    0.75    0.76
  -6   2   8    2.28    1.47
  -6   2   7    8.86    0.88
  -6   2   7    8.61    1.65
  -6   2   6  147.86    4.57
  -6   2   6  145.84    5.60
  -6   2   5   19.72    0.95
  -6   2   5   22.08    1.94
  -6   2   4    9.15    1.39
  -6   2   4    9.79    0.50
  -6   2   3  238.36    6.99
  -6   2   3  241.72    8.03
  -6   2   2  281.57    9.27
  -6   2   2  286.97    8.37
  -6   2   1   10.73    0.77
  -6   2   1   10.79    1.37
  -6   2   0   -0.54    0.52
  -6   2   0   -0.60    0.93
  -6   2  -1   10.66    0.94
  -6   2  -1   12.12    1.34
  -6   2  -2  262.74    8.59
  -6   2  -2  261.98    8.18
  -6   2  -3  240.96    7.68
  -6   2  -3  241.84    7.96
   6  -2   4    9.29    0.62
  -6   2  -4   10.86    1.21
  -6   2  -4   10.22    1.21
   6  -2   5   18.78    0.97
  -6   2  -5   17.75    1.68
  -6   2  -5   16.07    1.53
   6  -2   6  146.23    4.73
  -6   2  -6  143.80    5.43
  -6   2  -6  146.90    5.35
   6  -2   7   10.03    1.03
  -6   2  -7    8.31    1.35
  -6   2  -7    8.22    1.42
   6  -2   8    2.54    0.87
  -6   2  -8    1.23    1.19
   6  -2   9   23.24    1.74
  -6   2  -9   28.14    2.48
   6  -2  10   15.98    1.68
  -6   2 -10   17.01    2.14
   6  -2  11   22.41    1.96
  -6   2 -11   24.72    2.56
   6  -2  12    1.03    1.26
  -6   2 -12    2.71    1.81
  -6   2 -13    1.38    1.80
  -6   2 -14    4.40    1.81
  -6   2 -15   -0.16    1.57
  -5   1  15    5.00    2.55
  -5   1  14   -0.40    1.77
  -5   1  13    1.97    1.95
  -5   1  12    7.02    2.13
  -5   1  11   29.16    2.18
  -5   1  11   26.32    2.95
  -5   1  10   40.37    2.28
  -5   1  10   40.44    3.31
  -5   1   9   54.09    2.48
  -5   1   9   56.59    3.62
  -5   1   8   14.49    1.98
  -5   1   8   14.27    1.28
  -5   1   7   88.69    3.12
  -5   1   7   86.28    3.96
  -5   1   6    6.04    0.79
  -5   1   6    6.16    1.39
  -5   1   5   99.47    4.07
  -5   1   5  102.92    3.31
  -5   1   4  316.73   10.36
  -5   1   4  322.57    9.46
  -5   1   3  347.89   11.23
  -5   1   3  356.85   10.34
  -5   1   2  156.88    5.42
  -5   1   2  155.00    4.72
  -5   1   1  247.92    8.06
  -5   1   1  248.42    7.43
  -5   1   0    8.41    0.84
  -5   1   0    8.56    1.33
  -5   1  -1  248.39    7.56
  -5   1  -1  242.46    7.96
  -5   1  -2  168.81    5.42
  -5   1  -2  164.93    5.61
   5  -1   3  353.96   10.47
  -5   1  -3  344.00   10.78
  -5   1  -3  355.14   11.07
   5  -1   4  304.42    9.12
  -5   1  -4  299.66    9.67
  -5   1  -4  303.20    9.53
   5  -1   5  101.14    3.42
  -5   1  -5  104.88    3.90
  -5   1  -5  100.72    3.87
   5  -1   6    6.61    0.85
  -5   1  -6    5.44    1.11
  -5   1  -6    4.47    1.12
   5  -1   7   82.95    3.08
  -5   1  -7   80.42    3.55
   5  -1   8   16.08    1.44
  -5   1  -8   16.53    1.86
   5  -1   9   52.18    2.56
  -5   1  -9   53.96    3.04
   5  -1  10   41.38    2.49
  -5   1 -10   38.80    3.01
   5  -1  11   30.32    2.25
  -5   1 -11   31.00    2.75
   5  -1  12    7.66    1.64
  -5   1 -12    6.96    1.95
   5  -1  13    4.28    1.45
  -5   1 -13    6.06    1.74
  -5   1 -14   -0.02    1.73
  -5   1 -15    1.75    1.65
  -4   0  16   15.96    2.98
  -4   0  15    0.50    2.32
  -4   0  14   -2.67    1.68
  -4   0  13    1.47    1.85
  -4   0  12   62.12    3.27
  -4   0  12   67.74    4.43
  -4   0  11    6.45    2.09
  -4   0  11    8.78    1.58
  -4   0  10   22.84    1.92
  -4   0  10   22.23    2.65
  -4   0   9    5.05    1.13
  -4   0   9    4.90    1.74
  -4   0   8  186.57    6.20
  -4   0   8  191.81    7.11
  -4   0   7   52.03    2.20
  -4   0   7   50.77    2.90
  -4   0   6    0.03    1.07
  -4   0   6   -0.48    0.65
  -4   0   5   43.06    2.36
  -4   0   5   44.17    1.80
  -4   0   4  843.86   26.30
  -4   0   4  885.42   25.15
  -4   0   3   11.05    0.88
  -4   0   3    8.90    1.21
  -4   0   2   40.43    2.04
  -4   0   2   40.86    1.65
  -4   0   1  335.41   10.13
  -4   0   1  348.07   10.70
  -4   0   0    7.02    1.08
  -4   0   0    6.63    0.79
  -4   0  -1  343.96   10.73
  -4   0  -1  346.26   10.38
   4   0   2   40.97    1.57
  -4   0  -2   40.40    1.84
   4   0   3    8.22    0.75
  -4   0  -3   10.65    1.11
   4   0   4  864.72   25.36
  -4   0  -4  849.15   25.33
   4   0   5   43.81    1.84
  -4   0  -5   43.56    2.18
   4   0   6   -0.92    0.61
  -4   0  -6    0.04    0.98
   4   0   7   53.54    2.32
  -4   0  -7   49.49    2.60
   4   0   8  190.01    6.39
  -4   0  -8  185.94    6.68
   4   0   9    3.85    1.16
  -4   0  -9    4.29    1.41
   4   0  10   21.75    2.00
  -4   0 -10   25.00    2.46
   4   0  11    7.09    1.52
  -4   0 -11    8.05    1.78
   4   0  12   62.65    3.37
  -4   0 -12   63.65    3.61
   4   0  13    4.40    1.33
  -4   0 -13    3.54    1.59
   4   0  14   -0.92    1.36
  -4   0 -14    1.42    1.72
  -4   0 -15   -0.02    1.67
  -4   0 -16    9.16    2.33
  -3  -1  16   -0.76    1.99
  -3  -1  15    2.91    2.44
  -3  -1  14   -0.44    1.83
  -3  -1  13   -0.38    1.75
  -3  -1  13    0.39    1.46
  -3  -1  12   26.64    2.43
  -3  -1  12   27.11    3.02
  -3  -1  11   43.03    3.36
  -3  -1  11   46.33    2.79
  -3  -1  10   16.23    2.40
  -3  -1  10   27.32    2.13
  -3  -1   9   91.60    3.71
  -3  -1   9   92.41    4.56
  -3  -1   8   81.34    3.21
  -3  -1   8   76.82    3.83
  -3  -1   7   25.18    2.21
  -3  -1   7   21.67    1.46
  -3  -1   6    4.10    1.25
  -3  -1   6    4.57    0.90
  -3  -1   5  135.55    4.94
  -3  -1   5  129.40    4.31
  -3  -1   4  182.95    5.75
  -3  -1   4  185.67    6.32
  -3  -1   3  734.85   21.17
  -3  -1   3  714.16   22.03
  -3  -1   2  213.47    6.52
  -3  -1   2  210.25    6.86
  -3  -1   1  156.44    5.10
  -3  -1   1  150.95    4.85
  -3  -1   0   12.93    0.97
  -3  -1   0   11.48    0.86
  -3  -1  -1  122.50    4.34
  -3  -1  -1  145.34    4.37
   3   1   2  209.27    6.28
  -3  -1  -2  195.44    6.33
  -3  -1  -2  197.13    6.31
   3   1   3  721.31   21.77
  -3  -1  -3  732.98   21.96
  -3  -1  -3  745.89   21.66
   3   1   4  186.97    5.91
  -3  -1  -4  185.24    5.99
  -3  -1  -4  185.89    6.11
   3   1   5  131.30    4.37
  -3  -1  -5  126.23    4.55
   3   1   6    6.17    0.95
  -3  -1  -6    6.49    1.10
   3   1   7   25.48    1.64
  -3  -1  -7   23.11    1.87
   3   1   8   83.10    3.35
  -3  -1  -8   75.77    3.46
   3   1   9   89.57    3.71
  -3  -1  -9   90.92    3.97
   3   1  10   23.42    2.12
  -3  -1 -10   24.32    2.31
   3   1  11   44.10    2.67
  -3  -1 -11   45.64    3.13
   3   1  12   24.10    2.36
  -3  -1 -12   26.30    2.53
   3   1  13    3.40    1.60
  -3  -1 -13    2.85    1.73
   3   1  14    0.41    1.55
  -3  -1 -14    1.83    1.46
   3   1  15    4.30    1.80
  -3  -1 -15    3.32    1.60
  -3  -1 -16   -2.22    1.26
  -2  -2  16    0.52    2.01
  -2  -2  15   -1.26    2.15
  -2  -2  14   -2.73    1.49
  -2  -2  14    2.48    2.31
  -2  -2  13    0.34    1.58
  -2  -2  13   -0.12    1.71
  -2  -2  12   10.70    1.99
  -2  -2  11    1.00    1.42
  -2  -2  10  190.33    6.78
  -2  -2   9   14.79    1.71
  -2  -2   8   35.94    2.09
  -2  -2   7    0.22    0.86
  -2  -2   6    0.30    0.64
  -2  -2   5   28.09    1.52
  -2  -2   4    0.42    0.70
  -2  -2   3  101.63    3.49
  -2  -2   2  307.41    9.62
  -2  -2   2  306.29    9.29
  -2  -2   1   17.43    1.27
  -2  -2   1   18.06    1.07
  -2  -2   0   32.49    1.36
   2   2   1   17.78    1.08
  -2  -2  -1   16.93    0.93
  -2  -2  -1   16.83    1.12
   2   2   2  298.38    9.22
  -2  -2  -2  295.16    9.18
  -2  -2  -2  304.61    9.06
   2   2   3   94.69    3.38
  -2  -2  -3   98.86    3.19
  -2  -2  -3  100.10    3.51
   2   2   4   -0.21    0.66
  -2  -2  -4   -0.82    0.66
   2   2   5   32.26    1.59
  -2  -2  -5   27.96    1.77
   2   2   6   -0.54    0.81
  -2  -2  -6   -0.05    0.77
   2   2   7   -1.04    0.71
  -2  -2  -7    0.22    0.82
   2   2   8   32.75    2.10
  -2  -2  -8   31.93    2.08
   2   2   9   12.16    1.66
  -2  -2  -9   12.86    1.62
   2   2  10  167.90    6.18
  -2  -2 -10  166.63    6.26
   2   2  11    0.55    1.47
  -2  -2 -11   -1.16    1.15
   2   2  12    9.70    1.93
  -2  -2 -12    9.70    1.93
   2   2  13    0.00    1.47
  -2  -2 -13    1.57    1.37
   2   2  14   -0.59    1.60
  -2  -2 -14   -0.82    1.25
   2   2  15    0.72    1.68
  -2  -2 -15   -0.22    1.56
   2   2  16    0.44    1.50
  -2  -2 -16    0.29    1.40
  -1  -3  16    0.95    2.32
  -1  -3  15    2.14    1.94
  -1  -3  15    2.60    2.05
  -1  -3  14    3.61    1.83
  -1  -3  13    5.92    1.85
  -1  -3  12   25.41    2.58
  -1  -3  11   47.65    3.09
  -1  -3  10   23.02    2.23
  -1  -3   9   84.84    3.65
  -1  -3   8   76.25    3.33
  -1  -3   7   25.48    1.77
  -1  -3   6    5.38    1.03
  -1  -3   5  121.98    4.24
  -1  -3   4  177.28    5.75
  -1  -3   3  737.89   21.69
  -1  -3   2  210.41    6.62
  -1  -3   1  149.36    4.88
   1   3   0   14.61    1.10
  -1  -3   0   13.53    1.14
   1   3   1  144.79    4.97
  -1  -3  -1  155.58    4.64
  -1  -3  -1  153.43    4.97
   1   3   2  197.87    6.52
  -1  -3  -2  208.58    6.10
  -1  -3  -2  207.68    6.53
   1   3   3  708.29   21.36
  -1  -3  -3  719.50   21.11
   1   3   4  175.82    5.93
  -1  -3  -4  188.45    5.98
   1   3   5  122.17    4.39
  -1  -3  -5  128.60    4.43
   1   3   6    5.43    1.03
  -1  -3  -6    8.17    1.23
   1   3   7   23.69    1.65
  -1  -3  -7   21.11    1.62
   1   3   8   74.05    3.30
  -1  -3  -8   76.43    3.32
   1   3   9   87.57    3.93
  -1  -3  -9   89.67    3.90
   1   3  10   23.07    2.18
  -1  -3 -10   27.60    2.29
   1   3  11   38.66    2.75
  -1  -3 -11   46.75    2.82
   1   3  12   26.68    2.53
  -1  -3 -12   26.76    2.62
   1   3  13    0.99    1.35
  -1  -3 -13    3.03    1.36
   1   3  14   -2.02    1.67
  -1  -3 -14    1.59    1.52
   1   3  15    0.77    1.87
  -1  -3 -15    2.52    1.71
   1   3  16   -1.50    1.84
  -1  -3 -16    0.02    1.60
   0  -4  15   -1.58    1.78
   0  -4  14   -0.53    1.49
   0  -4  13    3.43    1.83
   0  -4  12   62.85    3.56
   0  -4  11    8.23    1.79
   0  -4  10   21.72    2.18
   0  -4   9    5.24    1.58
   0  -4   8  185.77    6.47
   0  -4   7   54.48    2.69
   0  -4   6   -0.44    0.76
   0  -4   5   42.80    2.04
   0  -4   4  831.94   24.52
   0  -4   3    9.05    1.06
   0  -4   2   45.42    2.06
   0  -4   1  350.40   10.69
   0   4   0    7.35    1.13
   0  -4   0    6.62    1.20
   0   4   1  339.80   10.48
   0  -4  -1  335.47   10.36
   0   4   2   38.93    1.88
   0  -4  -2   38.50    1.97
   0   4   3    8.21    1.02
   0   4   3    8.92    0.50
   0  -4  -3    7.35    1.03
   0   4   4  869.20   25.55
   0   4   4  841.42   25.79
   0  -4  -4  871.27   25.40
   0   4   5   42.29    1.72
   0   4   5   43.25    2.12
   0  -4  -5   42.89    2.04
   0   4   6    1.32    0.91
   0  -4  -6   -0.69    0.66
   0   4   7   57.85    2.72
   0  -4  -7   52.86    2.56
   0   4   8  187.04    6.67
   0  -4  -8  189.24    6.56
   0   4   9    5.55    1.43
   0  -4  -9    6.85    1.39
   0   4  10   21.57    2.04
   0   4  10   22.28    2.22
   0  -4 -10   23.63    2.11
   0   4  11    7.07    1.66
   0   4  11    8.09    1.77
   0  -4 -11    6.48    1.47
   0   4  12   64.54    3.43
   0   4  12   57.71    3.66
   0  -4 -12   61.86    3.43
   0   4  13    0.56    1.71
   0   4  13    0.57    1.63
   0  -4 -13    2.05    1.27
   0   4  14   -0.01    1.40
   0  -4 -14    0.85    1.43
   0   4  15    0.83    1.84
   0  -4 -15   -0.92    1.32
   0   4  16    9.60    2.20
   1  -5  15    4.53    2.22
   1  -5  14   -3.53    1.73
   1  -5  13    5.80    1.80
   1  -5  12    4.33    1.93
   1  -5  11   30.27    2.70
   1  -5  10   43.10    3.06
   1  -5   9   57.02    3.08
   1  -5   8   13.40    1.76
   1  -5   7   82.74    3.50
   1  -5   6    4.24    1.06
   1  -5   5   99.73    3.76
   1  -5   4  285.29    8.97
   1  -5   3  342.70   10.57
   1  -5   2  172.70    5.70
  -1   5  -1  237.33    7.73
   1  -5   1  243.18    7.62
  -1   5   0    8.59    1.24
   1  -5   0   10.34    1.30
  -1   5   1  237.51    7.84
  -1   5   1  254.18    7.44
   1  -5  -1  239.77    7.75
  -1   5   2  163.55    5.47
  -1   5   2  166.94    4.93
   1  -5  -2  154.05    5.41
  -1   5   3  334.18   10.25
  -1   5   3  344.75   10.76
   1  -5  -3  352.78   10.61
  -1   5   4  290.63    9.59
  -1   5   4  297.47    9.14
   1  -5  -4  317.64    9.49
  -1   5   5  101.78    3.91
  -1   5   5  103.29    3.44
   1  -5  -5   99.37    3.79
  -1   5   6    5.56    0.86
  -1   5   6    6.23    1.18
   1  -5  -6    6.01    1.09
  -1   5   7   89.44    3.73
  -1   5   7   86.98    3.28
   1  -5  -7   83.39    3.49
  -1   5   8   15.05    1.50
  -1   5   8   15.23    1.74
   1  -5  -8   17.27    1.69
  -1   5   9   53.64    2.67
  -1   5   9   53.51    2.94
   1  -5  -9   40.67    2.48
  -1   5  10   41.88    2.64
  -1   5  10   38.32    2.73
  -1   5  11   31.47    2.71
  -1   5  11   31.88    2.59
  -1   5  12    5.66    1.61
  -1   5  12    7.36    1.78
  -1   5  13    1.98    1.54
   1  -5 -13    0.52    0.67
  -1   5  14    1.38    1.84
   1  -5 -14   -0.81    1.19
  -1   5  15    3.77    1.78
   2  -6  15    0.41    1.73
   2  -6  14    1.89    1.75
   2  -6  13   -0.70    1.85
   2  -6  12   -0.95    1.71
   2  -6  11   25.70    2.65
   2  -6  10   17.44    2.21
   2  -6   9   25.88    2.36
   2  -6   8    2.58    1.27
   2  -6   7    7.86    1.37
   2  -6   6  142.17    5.16
   2  -6   5   15.82    1.54
   2  -6   4    9.56    1.18
   2  -6   3  237.07    7.64
   2  -6   2  248.78    7.93
  -2   6  -1   10.66    1.28
   2  -6   1   12.75    1.31
  -2   6   0    0.34    0.58
  -2   6   0    0.71    0.89
   2  -6   0    1.97    0.96
  -2   6   1   10.54    1.28
  -2   6   1   12.79    0.86
   2  -6  -1   12.75    1.37
  -2   6   2  262.47    8.62
  -2   6   2  262.79    8.19
   2  -6  -2  283.95    8.60
  -2   6   3  236.27    7.69
  -2   6   3  233.56    7.18
   2  -6  -3  234.80    7.58
  -2   6   4    9.66    1.22
  -2   6   4   10.75    0.84
   2  -6  -4    9.98    1.13
  -2   6   5   14.57    1.12
  -2   6   5   13.41    1.50
  -2   6   6  146.17    5.44
  -2   6   6  148.85    4.94
  -2   6   7    9.40    1.19
  -2   6   7   13.32    1.65
  -2   6   8    1.08    1.25
  -2   6   8    2.10    1.04
   2  -6  -8    0.62    0.84
  -2   6   9   25.75    2.01
  -2   6   9   20.94    2.23
   2  -6  -9   27.54    2.01
  -2   6  10   15.21    1.79
  -2   6  10   16.68    2.17
   2  -6 -10   19.64    1.99
  -2   6  11   20.12    2.37
   2  -6 -11   23.16    2.16
  -2   6  12    0.23    1.51
  -2   6  12    2.23    1.50
   2  -6 -12    2.40    1.30
  -2   6  13    1.57    1.56
   2  -6 -13    1.87    1.31
  -2   6  14    4.49    1.79
   2  -6 -14    4.32    1.53
  -2   6  15   -0.57    1.65
   3  -7  15    2.70    2.00
   3  -7  14    2.12    1.85
   3  -7  12    0.63    1.89
   3  -7  11    7.63    1.93
   3  -7  10   10.58    1.99
   3  -7   9    3.79    1.50
   3  -7   8    9.05    1.65
   3  -7   7   31.22    2.48
   3  -7   6   16.16    1.71
   3  -7   5   73.76    3.24
   3  -7   4    6.23    1.16
   3  -7   3   36.84    2.06
   3  -7   2   10.90    1.28
  -3   7  -1  187.98    5.96
  -3   7  -1  175.07    6.09
   3  -7   1  169.50    5.95
  -3   7   0   29.31    1.85
  -3   7   0   27.67    1.46
   3  -7   0   27.70    1.80
  -3   7   1  173.17    5.90
  -3   7   1  171.87    5.52
   3  -7  -1  167.74    5.75
  -3   7   2    9.88    0.84
  -3   7   2    7.53    1.21
   3  -7  -2   11.71    1.31
  -3   7   3   37.84    2.05
  -3   7   3   36.80    1.58
   3  -7  -3   40.89    2.05
  -3   7   4    6.40    0.80
  -3   7   4    5.25    1.12
  -3   7   5   74.06    2.81
  -3   7   5   77.48    3.34
  -3   7   6   15.64    1.76
  -3   7   6   14.82    1.26
   3  -7  -6   19.12    1.64
  -3   7   7   29.78    1.83
  -3   7   7   30.21    2.27
   3  -7  -7   33.99    2.02
  -3   7   8    5.33    1.56
  -3   7   8    7.68    1.31
   3  -7  -8    5.26    1.22
  -3   7   9    3.31    1.53
  -3   7   9    5.50    1.37
   3  -7  -9    3.55    1.23
  -3   7  10    8.24    1.87
  -3   7  10   14.58    1.85
   3  -7 -10   11.48    1.59
  -3   7  11    3.06    1.89
  -3   7  11    4.02    1.45
   3  -7 -11    5.37    1.51
  -3   7  12   -1.39    1.36
   3  -7 -12   -1.08    1.03
  -3   7  13   12.41    2.27
   3  -7 -13   15.37    2.00
  -3   7  14    0.28    1.63
  -3   7  15    2.25    2.20
   4  -8  15   -2.76    1.67
   4  -8  14   15.70    2.61
   4  -8  13   -0.51    1.70
   4  -8  12    5.46    1.94
   4  -8  11    1.09    1.63
   4  -8  10    1.29    1.68
   4  -8   9    4.54    1.73
   4  -8   8   69.43    3.62
   4  -8   7   31.28    2.38
   4  -8   6   76.65    3.53
   4  -8   5   27.69    2.06
   4  -8   4   59.05    2.82
   4  -8   3    2.89    1.10
  -4   8  -2   11.28    1.34
  -4   8  -2   14.90    1.47
   4  -8   2   14.10    1.45
  -4   8  -1   -0.84    0.86
  -4   8  -1   -0.18    0.64
   4  -8   1    0.29    0.92
  -4   8   0  663.73   20.49
  -4   8   0  675.63   20.34
   4  -8   0  669.51   20.11
  -4   8   1   -0.14    0.90
  -4   8   1    0.16    0.59
   4  -8  -1    0.22    1.04
  -4   8   2   15.70    1.43
  -4   8   2   13.80    1.10
   4  -8  -2   13.38    1.42
  -4   8   3    3.77    0.77
  -4   8   3    2.93    0.86
   4  -8  -3    1.32    0.67
  -4   8   4   54.76    2.69
  -4   8   4   56.46    2.17
   4  -8  -4   41.98    2.41
  -4   8   5   34.40    2.24
  -4   8   5   32.34    1.78
   4  -8  -5   31.22    1.99
  -4   8   6   79.66    3.13
  -4   8   6   82.83    3.74
   4  -8  -6   79.95    3.45
  -4   8   7   28.66    1.94
  -4   8   7   31.05    2.39
   4  -8  -7   30.31    2.01
  -4   8   8   68.40    3.64
  -4   8   8   69.25    3.11
   4  -8  -8   74.73    3.25
  -4   8   9    3.00    1.36
  -4   8   9    2.09    1.60
   4  -8  -9    2.83    1.26
  -4   8  10    1.59    1.64
  -4   8  10    0.72    1.40
   4  -8 -10    0.60    1.10
  -4   8  11    0.08    1.54
   4  -8 -11    1.00    1.07
  -4   8  12    9.12    1.98
   4  -8 -12    8.55    1.57
  -4   8  13   -0.32    1.56
  -4   8  14   10.66    2.34
  -4   8  15    0.38    2.16
   5  -9  15    5.24    2.29
   5  -9  14    9.07    2.69
   5  -9  13   17.51    2.98
   5  -9  12    1.96    1.78
   5  -9  11    1.28    1.67
   5  -9  10    5.44    2.16
   5  -9   9   14.75    2.21
   5  -9   8    9.79    1.91
   5  -9   7  149.54    5.85
   5  -9   6   87.81    3.96
   5  -9   5   70.15    3.38
   5  -9   4   19.76    1.85
  -5   9  -3   21.81    1.83
   5  -9   3   21.95    1.90
  -5   9  -2   40.67    2.31
  -5   9  -2   39.56    2.32
   5  -9   2   38.80    2.27
  -5   9  -1  184.01    6.55
  -5   9  -1  183.80    6.37
   5  -9   1  189.64    6.42
  -5   9   0   56.44    2.46
  -5   9   0   50.91    2.67
   5  -9   0   52.93    2.62
  -5   9   1  181.37    6.13
  -5   9   1  184.55    6.45
   5  -9  -1  185.76    6.32
  -5   9   2   38.09    2.31
  -5   9   2   41.88    2.00
   5  -9  -2   41.60    2.41
  -5   9   3   21.72    1.86
  -5   9   3   21.82    1.45
  -5   9   4   20.71    1.45
  -5   9   4   22.11    1.97
   5  -9  -4   19.25    1.80
  -5   9   5   62.71    2.67
  -5   9   5   63.16    3.18
   5  -9  -5   61.53    2.96
  -5   9   6   85.60    3.96
  -5   9   6   84.70    3.46
   5  -9  -6   90.12    3.74
  -5   9   7  150.91    5.37
  -5   9   7  151.45    5.98
   5  -9  -7  148.95    5.47
  -5   9   8    8.47    1.81
  -5   9   8   12.70    1.63
   5  -9  -8   15.99    1.68
  -5   9   9   17.12    1.90
  -5   9   9   16.37    2.27
   5  -9  -9   16.45    1.75
  -5   9  10    3.25    1.75
  -5   9  10    3.63    1.49
   5  -9 -10    3.58    1.29
  -5   9  11   -0.02    1.54
   5  -9 -11    2.89    1.23
  -5   9  12    0.92    1.64
  -5   9  13   19.11    2.70
  -5   9  14    7.47    2.42
  -5   9  15    4.46    2.06
   6 -10  14    2.48    2.08
   6 -10  13   13.36    2.59
   6 -10  12    4.09    2.27
   6 -10  11    0.98    1.68
   6 -10  10    0.40    1.63
   6 -10   9   13.02    2.18
   6 -10   8   22.55    2.46
   6 -10   7  113.45    4.96
   6 -10   6   43.47    2.86
   6 -10   5   64.41    3.33
  -6  10  -4    1.73    1.15
   6 -10   4    2.54    1.26
  -6  10  -3   26.77    2.02
   6 -10   3   30.98    2.21
  -6  10  -2    7.89    1.38
  -6  10  -2   11.33    1.54
   6 -10   2    6.39    1.36
  -6  10  -1  158.21    5.80
  -6  10  -1  151.48    5.53
   6 -10   1  156.44    5.66
  -6  10   0   73.16    3.45
  -6  10   0   80.54    3.30
   6 -10   0   79.56    3.42
  -6  10   1  153.31    5.52
  -6  10   1  163.99    5.87
   6 -10  -1  159.98    5.78
  -6  10   2    6.01    1.05
  -6  10   2    8.17    1.43
   6 -10  -2    5.75    1.23
  -6  10   3   27.67    1.77
  -6  10   3   29.44    2.11
  -6  10   4    1.86    1.27
  -6  10   4    0.91    0.93
   6 -10  -4    2.78    1.23
  -6  10   5   66.97    2.83
  -6  10   5   65.72    3.37
   6 -10  -5   62.08    3.12
  -6  10   6   45.42    2.89
  -6  10   6   41.70    2.34
   6 -10  -6   41.45    2.48
  -6  10   7  108.64    4.99
  -6  10   7  116.25    4.47
   6 -10  -7  118.15    4.60
  -6  10   8   19.38    2.47
  -6  10   8   22.60    2.04
   6 -10  -8   23.05    2.03
  -6  10   9   14.34    1.86
  -6  10   9   12.75    2.18
   6 -10  -9   12.85    1.70
  -6  10  10    1.47    1.61
   6 -10 -10   -0.85    1.02
  -6  10  11   -0.66    1.56
  -6  10  12    0.25    1.66
  -6  10  13   10.54    2.27
  -6  10  14    1.26    1.86
   7 -11  14    0.04    2.12
   7 -11  13   -0.79    1.90
   7 -11  12    3.52    2.05
   7 -11  11    3.43    1.88
   7 -11  10   19.46    2.81
   7 -11   9    2.14    1.73
   7 -11   8   25.79    2.72
   7 -11   7    2.15    1.68
   7 -11   6   19.48    2.26
   7 -11   5    3.29    1.50
  -7  11  -4    8.15    1.55
   7 -11   4    9.17    1.65
  -7  11  -3    6.38    1.40
   7 -11   3    4.75    1.43
  -7  11  -2   16.63    1.71
  -7  11  -2   18.02    1.99
   7 -11   2   13.78    1.78
  -7  11  -1   12.25    1.48
  -7  11  -1   12.17    1.70
   7 -11   1    9.63    1.74
  -7  11   0  210.23    7.36
  -7  11   0  209.53    7.54
   7 -11   0  224.98    7.52
  -7  11   1    8.93    1.36
  -7  11   1   11.38    1.67
   7 -11  -1   13.81    1.83
  -7  11   2   15.42    1.44
  -7  11   2   15.05    1.93
   7 -11  -2   11.35    1.54
  -7  11   3    5.30    1.44
  -7  11   3    4.95    1.13
   7 -11  -3    6.76    1.51
  -7  11   4    5.80    1.52
  -7  11   4    6.84    1.27
   7 -11  -4    8.10    1.54
  -7  11   5    3.98    1.25
  -7  11   5    3.12    1.49
   7 -11  -5    1.27    1.39
  -7  11   6   17.20    2.22
  -7  11   6   19.44    1.78
   7 -11  -6   18.16    1.96
  -7  11   7    6.85    1.85
  -7  11   7    5.83    1.49
   7 -11  -7    7.99    1.53
  -7  11   8   25.45    2.74
  -7  11   8   31.82    2.44
   7 -11  -8   31.68    2.45
  -7  11   9   -1.22    1.52
  -7  11   9    0.56    1.27
   7 -11  -9   -0.08    1.09
  -7  11  10   25.39    2.84
  -7  11  11    1.08    1.74
  -7  11  12   10.87    2.30
  -7  11  13    2.15    1.89
  -7  11  14    6.47    2.21
   8 -12  13    2.81    2.13
   8 -12  12    1.93    2.35
   8 -12  11    2.25    1.96
   8 -12  10   10.22    2.33
   8 -12   9   11.29    2.21
   8 -12   8    2.63    1.82
   8 -12   7   37.59    3.20
   8 -12   6    7.28    2.13
  -8  12  -5    6.76    1.66
   8 -12   5    8.44    1.86
  -8  12  -4   20.58    2.24
   8 -12   4   24.77    2.56
  -8  12  -3   20.70    2.12
   8 -12   3   22.44    2.26
  -8  12  -2   27.18    2.39
  -8  12  -2   35.92    2.36
   8 -12   2   36.99    2.57
  -8  12  -1   57.19    3.19
  -8  12  -1   56.51    2.93
   8 -12   1   63.11    3.23
  -8  12   0    2.64    1.55
  -8  12   0   -0.44    1.11
   8 -12   0    1.82    1.34
  -8  12   1   62.52    3.01
  -8  12   1   62.23    3.39
   8 -12  -1   53.12    3.03
  -8  12   2   34.77    2.73
  -8  12   2   35.23    2.26
  -8  12   3   25.66    1.97
  -8  12   3   25.16    2.37
   8 -12  -3   27.09    2.35
  -8  12   4   26.60    2.40
  -8  12   4   25.60    2.05
   8 -12  -4   23.10    2.25
  -8  12   5   10.07    1.58
  -8  12   5    9.54    1.92
   8 -12  -5    8.71    1.70
  -8  12   6    7.76    1.91
  -8  12   6    8.06    1.61
   8 -12  -6   10.47    1.79
  -8  12   7   34.52    3.10
  -8  12   7   36.95    2.62
   8 -12  -7   36.42    2.65
  -8  12   8    2.35    1.48
  -8  12   8    3.48    1.78
   8 -12  -8    5.50    1.42
  -8  12   9   13.64    2.33
  -8  12  10    8.84    2.16
  -8  12  11    2.99    1.83
  -8  12  12    2.06    1.87
  -8  12  13    2.52    1.96
   9 -13  13    0.22    2.10
   9 -13  12    2.30    2.07
   9 -13  11    7.65    2.32
   9 -13  10   -1.23    1.77
   9 -13   9   16.94    2.57
   9 -13   8   -0.87    1.66
   9 -13   7   -0.83    1.69
   9 -13   6   49.88    3.42
  -9  13  -5   25.70    2.66
   9 -13   5   28.15    2.79
  -9  13  -4   10.75    1.93
   9 -13   4    9.95    1.99
  -9  13  -3   79.43    4.15
   9 -13   3   85.94    4.13
  -9  13  -2   37.37    2.82
   9 -13   2   44.24    2.93
  -9  13  -1   19.68    1.99
  -9  13  -1   20.37    2.44
   9 -13   1   17.61    2.13
  -9  13   0    3.93    1.74
  -9  13   0    1.14    1.11
   9 -13   0    1.90    1.68
  -9  13   1   16.74    1.96
  -9  13   1   16.08    2.09
   9 -13  -1   22.42    2.37
  -9  13   2   37.95    2.84
  -9  13   2   47.55    2.74
  -9  13   3   75.65    3.63
  -9  13   3   81.85    4.09
   9 -13  -3   88.67    4.07
  -9  13   4    8.12    1.54
  -9  13   4    9.42    1.87
   9 -13  -4    9.95    1.87
  -9  13   5   21.67    2.08
  -9  13   5   25.61    2.65
   9 -13  -5   28.86    2.48
  -9  13   6   51.42    3.54
  -9  13   6   53.98    3.03
   9 -13  -6   57.97    3.31
  -9  13   7   -1.60    1.57
  -9  13   7    0.70    1.35
   9 -13  -7    0.42    1.39
  -9  13   8    0.44    1.32
  -9  13   8    2.54    1.73
  -9  13   9   18.79    2.62
  -9  13  10   -0.84    1.76
  -9  13  11    5.92    2.09
  -9  13  12    2.52    1.97
  -9  13  13    0.03    1.92
  10 -14  12    1.61    2.15
  10 -14  11    2.31    2.21
  10 -14  10   11.64    2.54
  10 -14   9   12.69    2.48
  10 -14   8    1.58    1.81
  10 -14   7   11.70    2.57
  10 -14   6   -0.33    1.67
 -10  14  -5   26.28    2.74
  10 -14   5   20.61    2.59
 -10  14  -4   45.37    3.25
  10 -14   4   51.92    3.46
 -10  14  -3   27.52    2.61
  10 -14   3   27.62    2.68
 -10  14  -2   13.30    2.14
  10 -14   2   10.86    2.07
 -10  14  -1   44.30    3.06
 -10  14  -1   49.66    3.23
  10 -14   1   49.63    3.23
 -10  14   0   -0.09    1.43
 -10  14   0    0.56    1.23
  10 -14   0   -1.40    1.44
 -10  14   1   52.68    3.32
 -10  14   1   54.19    3.16
  10 -14  -1   49.37    3.43
 -10  14   2   13.74    1.95
 -10  14   2   14.95    2.14
 -10  14   3   32.26    2.58
 -10  14   3   30.24    2.80
  10 -14  -3   33.39    2.82
 -10  14   4   43.38    3.25
 -10  14   4   44.76    2.82
  10 -14  -4   44.57    3.23
 -10  14   5   25.48    2.35
 -10  14   5   24.03    2.69
  10 -14  -5   28.50    2.62
 -10  14   6   -0.18    1.69
 -10  14   6    3.12    1.58
  10 -14  -6    0.85    1.59
 -10  14   7    9.76    2.20
 -10  14   7   14.15    2.01
 -10  14   8   -0.67    1.63
 -10  14   9   12.92    2.40
 -10  14  10   13.29    2.51
 -10  14  11    6.57    2.18
 -10  14  12    2.24    2.05
  11 -15  12    4.13    2.40
  11 -15  11   -2.32    2.30
  11 -15  10    4.66    2.20
  11 -15   9    1.75    1.98
  11 -15   8    6.14    2.16
  11 -15   7    3.58    1.96
 -11  15  -6    0.47    1.51
  11 -15   6    1.08    1.80
 -11  15  -5    0.71    1.57
  11 -15   5    1.93    1.89
 -11  15  -4   46.80    3.37
  11 -15   4   44.28    3.70
 -11  15  -3   12.84    2.09
  11 -15   3   12.08    2.27
 -11  15  -2    0.24    1.42
 -11  15  -2    1.09    1.78
  11 -15   2    1.02    1.72
 -11  15  -1    7.78    2.07
 -11  15  -1    7.72    1.94
  11 -15   1    4.67    1.88
 -11  15   0   27.56    2.50
 -11  15   0   31.01    3.04
  11 -15   0   27.76    2.90
 -11  15   1    5.23    1.54
 -11  15   1    3.60    1.78
  11 -15  -1    6.53    2.08
 -11  15   2    3.10    1.42
 -11  15   2   -0.77    1.52
  11 -15  -2    1.46    1.66
 -11  15   3   13.67    2.46
 -11  15   3   10.02    1.98
  11 -15  -3   12.37    2.19
 -11  15   4   48.25    3.06
 -11  15   4   46.02    3.78
  11 -15  -4   45.33    3.22
 -11  15   5    1.19    1.76
 -11  15   5   -0.27    1.39
  11 -15  -5   -2.37    1.57
 -11  15   6    0.32    1.58
 -11  15   6   -0.45    1.61
 -11  15   7    6.32    2.07
 -11  15   7    5.13    1.82
 -11  15   8   10.97    2.39
 -11  15   9    0.92    1.87
 -11  15  10    2.33    1.98
 -11  15  11    1.10    2.10
 -11  15  12    3.68    2.20
  12 -16  11    6.63    2.51
  12 -16  10   -1.00    1.98
  12 -16   9    5.88    2.24
  12 -16   8    1.49    1.96
  12 -16   7    3.07    2.03
 -12  16  -6    0.03    1.49
  12 -16   6    0.93    1.83
 -12  16  -5    4.71    1.83
  12 -16   5    3.51    2.22
 -12  16  -4   -0.55    1.48
  12 -16   4    0.13    1.72
 -12  16  -3   11.93    2.14
  12 -16   3   13.64    2.65
 -12  16  -2    7.92    2.20
 -12  16  -2    5.03    1.76
  12 -16   2    7.63    2.16
 -12  16  -1    0.14    0.95
 -12  16  -1    1.58    1.48
  12 -16   1    1.00    1.83
 -12  16   0    1.01    1.41
 -12  16   0    3.38    1.78
  12 -16   0   -3.53    1.86
 -12  16   1    3.81    1.79
 -12  16   1    5.24    1.85
  12 -16  -1    5.06    2.08
 -12  16   2    8.22    1.95
 -12  16   2   10.28    2.38
  12 -16  -2    9.14    2.14
 -12  16   3   12.92    2.53
 -12  16   3   12.22    2.09
  12 -16  -3   11.45    2.21
 -12  16   4    1.76    1.58
 -12  16   4    0.94    1.75
  12 -16  -4   -0.23    1.81
 -12  16   5    3.73    1.93
 -12  16   5    5.53    1.70
 -12  16   6   -0.78    1.65
 -12  16   6    0.16    1.47
 -12  16   7    5.96    2.12
 -12  16   8   -0.09    1.88
 -12  16   9    6.12    2.27
 -12  16  10    1.62    2.08
 -12  16  11    3.52    2.17
  13 -17  10    8.59    2.95
  13 -17   9    0.95    2.05
  13 -17   8   -0.08    2.36
  13 -17   7    2.98    2.17
 -13  17  -6   -1.19    1.56
  13 -17   6   -0.14    1.94
 -13  17  -5    3.50    1.73
  13 -17   5    2.27    1.91
 -13  17  -4    1.40    1.68
  13 -17   4    1.95    1.86
 -13  17  -3    0.17    1.47
  13 -17   3    4.72    2.00
 -13  17  -2   15.66    2.59
 -13  17  -2   19.97    2.45
  13 -17   2   17.12    2.78
 -13  17  -1    7.07    1.80
  13 -17   1    6.07    2.08
 -13  17   0    1.48    1.51
 -13  17   0    0.91    1.99
  13 -17   0    0.55    2.09
 -13  17   1   12.82    2.21
 -13  17   1    8.44    2.35
  13 -17  -1    4.81    1.85
 -13  17   2   16.21    2.70
 -13  17   2   16.99    2.36
  13 -17  -2   10.18    2.27
 -13  17   3    3.57    1.88
 -13  17   3    6.10    1.85
  13 -17  -3    1.38    1.83
 -13  17   4    2.41    1.69
 -13  17   4    0.13    1.71
  13 -17  -4    1.20    1.86
 -13  17   5    2.06    1.61
 -13  17   5    4.12    2.01
 -13  17   6   -0.61    1.83
 -13  17   7    3.02    2.04
 -13  17   8    0.62    1.97
 -13  17   9   -2.12    1.87
 -13  17  10    9.08    2.64
  14 -18   9    6.15    2.85
  14 -18   8   -0.49    2.08
  14 -18   7    3.32    2.20
 -14  18  -6    2.35    1.89
  14 -18   6    8.21    2.66
 -14  18  -5    5.82    2.04
  14 -18   5    7.32    2.30
 -14  18  -4    0.15    1.69
  14 -18   4   -1.01    2.17
 -14  18  -3   19.72    2.59
  14 -18   3   18.06    2.79
 -14  18  -2    2.38    1.63
 -14  18  -2    4.31    2.07
  14 -18   2   -0.54    1.82
 -14  18  -1    3.03    1.63
 -14  18  -1    1.58    1.89
  14 -18   1    0.33    1.88
 -14  18   0   11.03    2.50
 -14  18   0   11.76    2.29
  14 -18   0   15.24    2.79
 -14  18   1    0.39    1.75
 -14  18   1    3.68    1.91
  14 -18  -1   -2.44    0.70
 -14  18   2    0.80    2.13
 -14  18   2    1.59    1.51
  14 -18  -2    0.15    2.10
 -14  18   3   20.72    2.47
 -14  18   3   17.93    2.68
  14 -18  -3   19.57    2.66
 -14  18   4    3.63    1.78
 -14  18   4    0.68    2.20
 -14  18   5    6.56    1.91
 -14  18   5    6.86    2.21
 -14  18   6    0.46    1.95
 -14  18   7   -2.87    1.79
 -14  18   8   -1.25    1.88
 -14  18   9    8.05    2.84
  15 -19   8    4.71    2.52
  15 -19   7    0.82    2.13
 -15  19  -6    1.54    2.20
  15 -19   6    1.78    2.49
 -15  19  -5    0.14    1.74
  15 -19   5    0.99    2.03
 -15  19  -4   16.27    2.76
  15 -19   4   15.81    3.09
 -15  19  -3    3.23    2.09
  15 -19   3    3.00    2.54
 -15  19  -2    1.27    1.72
 -15  19  -2    3.43    2.15
  15 -19   2    2.88    2.54
 -15  19  -1    2.94    1.93
 -15  19  -1    1.36    1.66
  15 -19   1    3.72    2.45
 -15  19   0    2.78    1.74
 -15  19   0    0.10    1.59
  15 -19   0    0.48    2.30
 -15  19   1    3.06    1.96
 -15  19   1    3.00    1.95
  15 -19  -1   -1.02    0.83
 -15  19   2    1.18    1.87
 -15  19   2    3.25    2.36
  15 -19  -2    1.06    2.11
 -15  19   3    8.44    2.01
 -15  19   3    2.72    2.08
 -15  19   4   12.33    2.57
 -15  19   4   11.91    2.40
 -15  19   5   -1.08    2.27
 -15  19   6    2.89    2.17
 -15  19   7    0.66    2.14
 -15  19   8    4.95    2.43
 -16  20  -6    3.87    2.13
  16 -20   6   -2.29    1.93
 -16  20  -5   -1.41    1.69
  16 -20   5   -1.07    2.07
 -16  20  -4    2.56    2.00
  16 -20   4    0.55    2.65
 -16  20  -3    2.83    2.15
  16 -20   3    3.27    2.68
 -16  20  -2    0.00    1.71
  16 -20   2    0.62    2.57
 -16  20  -1   -0.70    1.99
  16 -20   1    1.66    2.45
 -16  20   0    0.09    1.53
 -16  20   0    0.41    0.89
  16 -20   0    4.98    2.49
 -16  20   1   -0.02    1.96
 -16  20   1    0.82    1.97
  16 -20  -1   -0.51    1.99
 -16  20   2    2.03    2.00
 -16  20   2    4.91    2.11
 -16  20   3   -0.56    2.35
 -16  20   3   -0.28    1.56
 -16  20   4   -0.02    2.41
 -16  20   4    3.03    1.72
 -16  20   5    2.03    2.11
 -16  20   6   -1.27    2.41
 -17  21  -4   -0.63    1.85
  17 -21   4    5.78    2.92
 -17  21  -3    5.26    2.36
  17 -21   3   -0.41    2.69
 -17  21  -2   -0.81    2.07
  17 -21   2    4.24    2.77
 -17  21  -1    2.56    1.86
  17 -21   1    0.32    2.20
 -17  21   0   -0.58    1.65
  17 -21   0   -1.79    2.43
 -17  21   1    0.46    1.67
 -17  21   1    0.86    2.28
 -17  21   2    0.34    1.69
 -17  21   2    0.22    2.36
 -17  21   3    2.16    2.15
 -17  21   3    0.81    1.97
 -17  21   4    0.45    2.08
 -22  17   0    4.55    2.32
 -22  17  -1   -2.44    2.56
 -21  16   5    3.44    2.37
 -21  16   4    0.74    2.14
 -21  16   3    0.33    2.01
 -21  16   2    6.09    2.44
 -21  16   1    2.08    2.15
 -21  16   0    3.14    2.50
 -21  16  -1   -2.01    2.25
 -21  16  -2    3.28    2.67
  21 -16   3    0.93    1.78
 -21  16  -3   -0.06    2.07
  21 -16   4   -1.89    1.91
 -21  16  -4    0.13    2.02
  21 -16   5    1.97    1.94
 -21  16  -5    1.13    2.50
 -20  15   7    0.13    2.10
 -20  15   7    2.84    1.85
 -20  15   6    8.60    2.88
 -20  15   6    0.25    1.63
 -20  15   5   -0.07    2.07
 -20  15   5    0.65    1.89
 -20  15   4    0.84    2.05
 -20  15   4    0.20    1.74
 -20  15   3    9.31    2.52
 -20  15   2   -1.73    1.90
 -20  15   1    0.90    2.03
 -20  15   0    3.19    2.11
 -20  15  -1    0.25    1.97
  20 -15   2   -2.08    1.67
 -20  15  -2    1.20    2.11
  20 -15   3   10.16    2.39
 -20  15  -3    9.54    2.59
  20 -15   4    1.59    2.04
 -20  15  -4    1.03    2.04
  20 -15   5    4.10    2.17
 -20  15  -5    1.47    1.99
  20 -15   6    1.30    2.21
 -20  15  -6   -0.03    1.93
  20 -15   7    1.15    1.93
 -20  15  -7   -1.91    1.79
 -19  14   8    1.07    2.61
 -19  14   8   -0.02    2.04
 -19  14   7    5.30    2.02
 -19  14   7    7.03    2.71
 -19  14   6    0.58    1.61
 -19  14   6    1.13    2.09
 -19  14   5    7.39    2.39
 -19  14   5    5.72    2.13
 -19  14   4   13.99    2.76
 -19  14   3    6.44    1.86
 -19  14   3    6.17    2.35
 -19  14   2    4.84    2.22
 -19  14   1    9.01    2.46
 -19  14   0    3.23    2.09
  19 -14   1    7.15    1.89
 -19  14  -1    4.77    2.18
  19 -14   2    0.47    1.66
 -19  14  -2    0.26    1.94
  19 -14   3    5.67    2.07
 -19  14  -3    9.92    2.53
  19 -14   4    7.69    2.08
 -19  14  -4   11.58    2.56
  19 -14   5    5.43    2.03
 -19  14  -5    5.32    2.21
  19 -14   6   -0.10    1.73
 -19  14  -6    0.96    1.98
  19 -14   7    2.49    2.01
 -19  14  -7    3.58    2.24
  19 -14   8    0.41    1.93
 -19  14  -8   -1.84    1.81
 -18  13   9    0.76    2.03
 -18  13   9    1.18    1.82
 -18  13   8    1.78    1.77
 -18  13   8    2.28    2.52
 -18  13   7    3.15    2.03
 -18  13   7    1.61    2.12
 -18  13   6    2.48    2.06
 -18  13   6    3.32    2.00
 -18  13   5   -0.03    1.43
 -18  13   5    3.40    2.17
 -18  13   4    9.10    2.46
 -18  13   4    6.40    1.47
 -18  13   3    6.04    2.28
 -18  13   3    1.07    1.56
 -18  13   2    8.02    1.76
 -18  13   2    7.30    2.30
 -18  13   1    0.77    1.84
  18 -13   0    7.84    1.75
 -18  13   0    7.92    2.26
  18 -13   1    0.22    1.48
 -18  13  -1    0.51    1.82
  18 -13   2    2.82    1.14
 -18  13  -2   16.28    2.74
  18 -13   3    2.94    1.83
 -18  13  -3    4.38    2.13
  18 -13   4   10.40    2.09
 -18  13  -4    8.28    2.37
  18 -13   5   -0.47    1.83
 -18  13  -5   -0.54    1.74
  18 -13   6    2.30    1.87
 -18  13  -6    3.51    2.11
  18 -13   7    5.49    2.37
 -18  13  -7    6.63    2.32
  18 -13   8   -1.04    1.85
 -18  13  -8    3.15    2.12
  18 -13   9    1.99    2.07
 -18  13  -9    2.70    2.27
 -17  12  10    1.64    1.82
 -17  12  10    0.69    2.06
 -17  12   9    5.38    2.03
 -17  12   9    5.04    2.70
 -17  12   8    3.48    1.82
 -17  12   8    0.92    2.11
 -17  12   7    2.88    2.40
 -17  12   7    4.82    2.09
 -17  12   6   -0.31    1.69
 -17  12   6    1.04    2.00
 -17  12   5    0.53    1.61
 -17  12   5    3.17    1.98
 -17  12   4    1.52    1.60
 -17  12   4    0.11    2.21
 -17  12   3    9.75    2.40
 -17  12   3   13.25    2.04
 -17  12   2   -0.25    1.26
 -17  12   2   -0.13    1.78
 -17  12   1    7.32    2.28
 -17  12   1    8.01    1.57
  17 -12   0    5.58    1.54
 -17  12   0    2.99    2.01
  17 -12   1    7.27    1.74
 -17  12  -1    5.81    2.19
  17 -12   2    0.63    0.54
 -17  12  -2   -1.89    1.64
  17 -12   3   12.71    2.20
 -17  12  -3   14.17    2.62
  17 -12   4    0.27    1.44
 -17  12  -4   -0.19    1.76
  17 -12   5   -0.45    1.43
 -17  12  -5   -1.17    1.67
  17 -12   6    2.44    1.78
 -17  12  -6    0.61    1.80
  17 -12   7    0.82    2.11
 -17  12  -7    1.73    1.91
  17 -12   8    5.26    2.08
 -17  12  -8    2.90    2.36
  17 -12   9    6.82    2.24
 -17  12  -9    2.78    2.18
  17 -12  10   -0.04    1.86
 -17  12 -10    1.04    2.02
 -16  11  11    1.91    1.88
 -16  11  11   -1.28    2.35
 -16  11  10    4.85    2.07
 -16  11  10    7.54    2.47
 -16  11   9    2.65    1.85
 -16  11   9    3.00    2.54
 -16  11   8    1.82    2.42
 -16  11   8    1.39    1.65
 -16  11   7    1.43    2.02
 -16  11   7    0.64    1.45
 -16  11   6    2.01    1.99
 -16  11   6    3.16    1.57
 -16  11   5    3.87    1.79
 -16  11   5    4.86    2.13
 -16  11   4   13.82    2.11
 -16  11   4   14.76    2.58
 -16  11   3    5.45    1.61
 -16  11   3    8.67    2.31
 -16  11   2    9.37    2.33
 -16  11   2    7.58    1.65
  16 -11  -1    1.96    1.32
 -16  11   1    1.35    1.27
 -16  11   1    1.04    1.93
  16 -11   0    0.73    1.27
 -16  11   0    0.39    1.21
 -16  11   0    0.42    1.86
  16 -11   1    2.63    1.54
 -16  11  -1    1.65    1.93
  16 -11   2    4.92    1.31
 -16  11  -2    5.00    2.13
  16 -11   3    8.31    1.95
 -16  11  -3    7.09    2.18
  16 -11   4   11.91    2.00
 -16  11  -4   10.28    2.37
  16 -11   5    2.05    1.64
 -16  11  -5    3.45    1.91
  16 -11   6    0.81    1.59
 -16  11  -6    2.96    1.87
  16 -11   7    3.14    1.75
 -16  11  -7    0.11    1.73
  16 -11   8   -1.13    1.67
 -16  11  -8    2.06    2.24
  16 -11   9    3.18    2.09
 -16  11  -9    1.03    2.03
  16 -11  10    4.86    2.32
 -16  11 -10    5.37    2.31
  16 -11  11    1.85    2.02
 -15  10  12   -0.55    2.42
 -15  10  11    7.89    2.72
 -15  10  10    3.41    2.13
 -15  10   9   10.55    2.78
 -15  10   8    4.33    2.44
 -15  10   7    0.85    1.86
 -15  10   6    7.04    2.22
 -15  10   5   18.04    2.17
 -15  10   5   15.07    2.60
 -15  10   4   -0.31    1.24
 -15  10   4    3.67    2.00
 -15  10   3   39.18    3.50
  15 -10  -2   -0.91    1.05
 -15  10   2   -0.54    1.19
 -15  10   2   -0.68    1.75
  15 -10  -1   10.59    1.55
 -15  10   1   12.44    2.42
 -15  10   1   10.44    1.64
  15 -10   0   43.91    2.60
 -15  10   0   39.74    2.30
 -15  10   0   37.25    3.47
  15 -10   1    9.00    1.68
 -15  10  -1   12.25    1.46
 -15  10  -1   10.13    2.27
  15 -10   2   -1.53    1.30
 -15  10  -2   -1.97    1.60
  15 -10   3   43.55    2.90
 -15  10  -3   45.52    3.57
  15 -10   4    0.96    1.75
 -15  10  -4    1.31    1.89
 -15  10  -4    0.61    1.61
  15 -10   5   15.80    2.20
 -15  10  -5   19.56    2.72
 -15  10  -5   14.61    2.13
 -15  10  -6   10.28    2.29
 -15  10  -6    4.99    1.68
 -15  10  -7    2.34    1.51
 -15  10  -7   -0.19    1.62
 -15  10  -8    1.77    1.80
 -15  10  -8    5.23    1.86
  15 -10   9   14.61    2.53
 -15  10  -9   12.28    2.28
 -15  10  -9   15.71    2.77
  15 -10  10    1.05    1.87
 -15  10 -10    0.30    1.97
 -15  10 -10   -0.98    1.67
  15 -10  11    7.31    2.26
 -15  10 -11    5.84    2.07
  15 -10  12    2.62    2.01
 -14   9  12    4.26    2.28
 -14   9  11    1.40    2.12
 -14   9  10   18.42    2.88
 -14   9   9    2.42    1.96
 -14   9   8    9.52    2.28
 -14   9   7    8.79    2.25
 -14   9   6   17.67    2.67
 -14   9   5    6.02    2.13
 -14   9   4   44.74    3.48
 -14   9   3   29.60    3.03
  14  -9  -2   57.70    2.61
 -14   9   2   57.86    2.98
 -14   9   2   51.94    3.72
  14  -9  -1   10.86    1.39
 -14   9   1   12.03    1.49
 -14   9   1    9.44    2.20
  14  -9   0   17.48    1.76
 -14   9   0   16.92    2.44
 -14   9   0   13.92    1.53
  14  -9   1    9.66    1.61
 -14   9  -1   11.66    2.25
 -14   9  -1   12.06    1.37
  14  -9   2   61.93    3.27
 -14   9  -2   62.34    3.91
 -14   9  -2   60.33    2.64
 -14   9  -2   66.62    3.29
 -14   9  -3   22.81    2.20
 -14   9  -3   29.62    3.08
 -14   9  -4   47.99    3.02
 -14   9  -4   55.26    3.75
 -14   9  -5   -0.04    1.75
 -14   9  -5    1.58    1.70
 -14   9  -6   20.43    2.37
 -14   9  -6   22.73    2.87
 -14   9  -7    7.55    1.89
 -14   9  -7   12.19    2.36
 -14   9  -8    6.47    1.89
 -14   9  -8    8.07    2.11
 -14   9  -9    3.26    1.91
 -14   9  -9    2.76    1.72
 -14   9 -10   19.36    3.15
 -14   9 -10   20.06    2.73
 -14   9 -11    0.67    1.72
 -14   9 -12    1.81    2.22
 -13   8  13    3.10    2.30
 -13   8  12    0.01    2.38
 -13   8  11    2.23    2.46
 -13   8  10   12.74    2.50
 -13   8   9    2.62    1.92
 -13   8   8    1.67    1.93
 -13   8   7   14.97    2.51
 -13   8   6    5.17    2.07
 -13   8   5   20.53    2.66
 -13   8   4   50.48    3.86
  13  -8  -3   20.39    1.38
 -13   8   3   22.72    2.64
  13  -8  -2   20.06    1.49
 -13   8   2   21.03    2.56
  13  -8  -1   25.39    1.77
 -13   8   1   23.20    1.73
 -13   8   1   24.55    2.69
  13  -8   0   11.74    1.45
 -13   8   0    9.97    2.08
 -13   8   0   10.48    1.26
 -13   8  -1   22.65    2.59
 -13   8  -1   22.21    1.52
 -13   8  -1   26.44    2.01
 -13   8  -2   15.83    1.26
 -13   8  -2   18.19    2.43
 -13   8  -2   18.35    1.88
 -13   8  -3   31.79    2.53
 -13   8  -3   25.89    2.80
 -13   8  -4   45.41    3.34
 -13   8  -4   40.89    2.72
 -13   8  -5   21.64    2.26
 -13   8  -5   26.18    2.88
 -13   8  -6    3.75    1.57
 -13   8  -6    3.28    1.79
 -13   8  -7   19.35    2.68
 -13   8  -7   20.67    2.62
 -13   8  -8    4.42    1.69
 -13   8  -8    3.53    1.81
 -13   8  -9    1.60    1.59
 -13   8  -9    0.18    1.70
 -13   8 -10   10.32    2.13
 -13   8 -10   16.32    2.63
 -13   8 -11    4.86    1.98
 -13   8 -12   -0.90    1.65
 -13   8 -13    3.42    1.98
 -12   7  13   -1.02    2.40
 -12   7  12    4.12    2.25
 -12   7  11    3.55    2.40
 -12   7  10    7.66    2.16
 -12   7   9   11.95    2.38
 -12   7   8    7.61    2.14
 -12   7   7   12.10    2.29
 -12   7   6   14.01    2.33
 -12   7   5   15.59    2.36
 -12   7   4    5.32    1.88
  12  -7  -3   53.01    2.07
 -12   7   3   58.19    3.52
  12  -7  -2   -0.25    0.68
 -12   7   2   -0.89    1.42
  12  -7  -1   77.56    2.97
 -12   7   1   70.20    3.69
 -12   7   0   50.91    3.29
 -12   7   0   53.67    2.44
 -12   7   0   51.96    2.33
 -12   7  -1   71.84    2.83
 -12   7  -1   76.02    3.22
 -12   7  -1   77.59    3.98
 -12   7  -2    0.38    1.38
 -12   7  -2   -0.03    0.60
 -12   7  -2   -0.28    1.04
 -12   7  -3   60.02    3.07
 -12   7  -3   57.67    3.45
 -12   7  -4    4.46    1.55
 -12   7  -4    4.06    1.70
 -12   7  -5   17.03    1.98
 -12   7  -5   19.85    2.46
 -12   7  -6    9.29    2.05
 -12   7  -6    8.94    1.79
 -12   7  -7   17.63    2.27
 -12   7  -7   15.48    2.38
 -12   7  -8   10.82    2.01
 -12   7  -8   10.26    2.20
 -12   7  -9   10.67    2.08
 -12   7  -9   11.23    2.24
 -12   7 -10    4.35    1.84
 -12   7 -10    7.90    2.06
 -12   7 -11    2.05    1.75
 -12   7 -12    7.26    2.14
 -12   7 -13    4.19    2.02
 -11   6  14    6.47    2.85
 -11   6  13   13.40    2.81
 -11   6  12   -0.89    1.93
 -11   6  11    0.48    2.25
 -11   6  10    0.13    1.81
 -11   6   9    1.23    1.80
 -11   6   8    7.57    2.39
 -11   6   7   77.08    4.21
 -11   6   6   21.86    2.55
 -11   6   5   20.57    2.46
 -11   6   4    9.04    1.90
  11  -6  -3    2.29    0.56
 -11   6   3    4.91    1.63
  11  -6  -2   20.70    1.23
 -11   6   2   22.89    2.40
 -11   6   1   94.20    3.38
 -11   6   1   91.84    4.35
 -11   6   0   21.43    1.48
 -11   6   0   21.28    2.11
 -11   6  -1   89.27    3.45
 -11   6  -1   91.69    4.23
 -11   6  -1   88.29    3.13
 -11   6  -2   24.16    1.80
 -11   6  -2   22.43    2.31
 -11   6  -2   19.81    1.09
 -11   6  -3    2.29    1.04
 -11   6  -3    2.82    1.38
 -11   6  -4   10.94    1.86
 -11   6  -4    7.64    1.42
 -11   6  -5   20.54    2.33
 -11   6  -5   21.59    2.10
 -11   6  -6   25.27    2.37
 -11   6  -6   25.69    2.58
 -11   6  -7   89.28    4.27
 -11   6  -7   85.93    4.45
 -11   6  -8    2.71    1.60
 -11   6  -8    6.31    1.88
 -11   6  -9    1.03    1.54
 -11   6  -9    0.52    1.57
 -11   6 -10    0.43    1.54
 -11   6 -11    0.61    1.84
 -11   6 -12    2.00    1.69
 -11   6 -13   13.13    2.49
 -11   6 -14    5.15    2.11
 -10   5  14   17.35    2.97
 -10   5  13   -0.66    2.00
 -10   5  12    3.24    2.12
 -10   5  11    6.34    2.15
 -10   5  10    6.55    2.16
 -10   5   9   16.75    2.55
 -10   5   8   76.27    4.42
 -10   5   7   10.07    2.04
 -10   5   6  280.63    9.89
 -10   5   5   47.71    3.01
 -10   5   4   -1.07    1.29
  10  -5  -3   86.54    2.84
 -10   5   3   92.22    4.16
 -10   5   2  141.97    5.73
 -10   5   2  148.53    4.66
 -10   5   1   53.17    2.17
 -10   5   1   54.25    3.07
 -10   5   0  269.85    9.24
 -10   5   0  261.85    8.29
 -10   5  -1   54.13    2.43
 -10   5  -1   53.05    3.05
 -10   5  -2  135.07    4.87
 -10   5  -2  140.18    5.53
 -10   5  -2  138.82    4.30
 -10   5  -3   86.79    3.93
 -10   5  -3   81.22    3.44
 -10   5  -4    0.79    1.24
 -10   5  -4   -0.54    1.06
 -10   5  -5   47.29    2.98
 -10   5  -5   52.32    2.80
 -10   5  -6  317.89   10.46
 -10   5  -6  302.53   10.73
 -10   5  -7    9.81    1.85
 -10   5  -7   15.06    2.26
 -10   5  -8   80.34    4.28
 -10   5  -8   78.88    4.05
 -10   5  -9   18.61    2.37
 -10   5  -9   15.41    2.33
 -10   5 -10    2.53    1.61
 -10   5 -11    6.58    1.92
 -10   5 -12    4.51    1.85
 -10   5 -13    1.44    1.77
 -10   5 -14   15.01    2.62
  -9   4  15    5.56    2.43
  -9   4  14    3.68    2.70
  -9   4  13   14.11    2.74
  -9   4  12    1.87    1.95
  -9   4  11   -2.37    2.07
  -9   4  10    2.28    1.93
  -9   4   9   19.36    2.61
  -9   4   8   14.62    2.24
  -9   4   7  152.35    6.20
  -9   4   6   80.81    3.96
  -9   4   5   65.58    3.41
  -9   4   4   20.24    2.08
  -9   4   3   25.15    2.23
  -9   4   3   21.03    0.92
  -9   4   2   40.80    2.61
  -9   4   2   40.68    1.60
  -9   4   1  189.73    6.02
  -9   4   1  196.90    7.02
  -9   4   0   51.46    2.86
  -9   4   0   52.95    2.18
  -9   4  -1  186.98    6.10
  -9   4  -1  184.87    6.76
  -9   4  -2   38.35    1.97
  -9   4  -2   40.15    2.49
  -9   4  -3   25.91    2.17
  -9   4  -3   24.84    1.70
  -9   4  -4   21.02    1.81
  -9   4  -4   24.95    2.19
  -9   4  -5   63.20    3.33
  -9   4  -5   71.57    3.24
  -9   4  -6   89.67    4.11
  -9   4  -6   90.76    4.13
   9  -4   7  148.90    4.61
  -9   4  -7  146.46    5.92
  -9   4  -7  148.56    5.81
  -9   4  -8   14.45    2.00
  -9   4  -8   14.01    2.06
  -9   4  -9   15.50    2.22
  -9   4 -10    0.15    1.51
  -9   4 -11   -0.17    1.52
  -9   4 -12    3.28    1.78
  -9   4 -13   16.20    2.71
  -9   4 -14    7.01    2.07
  -9   4 -15    5.05    2.03
  -8   3  15    2.29    2.54
  -8   3  14    0.68    2.00
  -8   3  13   21.22    3.28
  -8   3  12    3.23    2.35
  -8   3  11    8.86    2.25
  -8   3  10   -1.36    1.76
  -8   3   9   20.97    2.62
  -8   3   8   55.41    3.47
  -8   3   7   95.62    4.47
  -8   3   6    1.50    1.36
  -8   3   5  155.20    5.94
  -8   3   4   55.85    2.94
  -8   3   3   72.59    2.32
  -8   3   3   74.92    3.43
  -8   3   2   21.23    1.94
  -8   3   2   18.52    0.96
  -8   3   1  152.22    5.74
  -8   3   1  158.47    4.93
  -8   3   0  258.06    7.99
  -8   3   0  261.14    8.76
  -8   3  -1  155.47    5.79
  -8   3  -1  161.75    5.24
  -8   3  -2   19.35    1.46
  -8   3  -2   22.61    1.87
  -8   3  -3   75.48    3.10
  -8   3  -3   71.56    3.29
  -8   3  -4   63.25    2.86
  -8   3  -4   61.21    3.02
  -8   3  -5  169.47    6.27
  -8   3  -5  169.36    6.05
   8  -3   6   -0.26    0.47
  -8   3  -6   -1.09    0.91
  -8   3  -6   -0.85    1.00
   8  -3   7   99.45    3.43
  -8   3  -7  101.22    4.39
  -8   3  -7  107.09    4.59
   8  -3   8   50.44    2.13
  -8   3  -8   49.98    3.04
  -8   3  -8   44.06    2.91
   8  -3   9   24.36    1.64
  -8   3  -9   24.69    2.50
  -8   3 -10    1.45    1.74
  -8   3 -11    9.18    1.95
  -8   3 -12    2.62    1.67
  -8   3 -13   23.05    2.81
  -8   3 -14    2.28    1.71
  -8   3 -15    1.30    1.77
  -7   2  15    0.46    2.55
  -7   2  14    1.76    2.11
  -7   2  13   -1.32    2.25
  -7   2  12    2.57    1.93
  -7   2  11    5.30    2.14
  -7   2  10   14.57    2.49
  -7   2   9   18.19    2.46
  -7   2   9   16.72    1.36
  -7   2   8   25.74    2.63
  -7   2   8   25.50    1.48
  -7   2   7    2.64    0.72
  -7   2   7    3.80    1.52
  -7   2   6   16.15    0.95
  -7   2   6   16.01    1.96
  -7   2   5   12.17    0.70
  -7   2   5   13.18    1.74
  -7   2   4    6.46    0.47
  -7   2   4    7.19    1.46
  -7   2   3   40.66    2.30
  -7   2   3   37.18    1.35
  -7   2   2   43.61    2.37
  -7   2   2   41.22    1.56
  -7   2   1   45.89    2.47
  -7   2   1   48.36    1.85
  -7   2   0  280.15    8.48
  -7   2   0  274.27    9.17
  -7   2  -1   44.92    2.51
  -7   2  -1   49.01    2.09
  -7   2  -2   49.78    2.57
  -7   2  -2   49.62    2.19
  -7   2  -3   35.53    1.90
  -7   2  -3   36.90    2.05
  -7   2  -4    5.69    1.14
  -7   2  -4    4.63    1.03
   7  -2   5   14.04    0.90
  -7   2  -5   15.56    1.67
  -7   2  -5   14.19    1.55
   7  -2   6   15.17    1.00
  -7   2  -6   13.84    1.60
  -7   2  -6   13.73    1.59
   7  -2   7    3.92    0.78
  -7   2  -7    1.57    1.18
  -7   2  -7    2.74    1.33
   7  -2   8   21.77    1.54
  -7   2  -8   24.81    2.30
   7  -2   9   18.79    1.63
  -7   2  -9   13.65    1.99
   7  -2  10   16.94    1.71
  -7   2 -10   16.23    2.23
  -7   2 -11    3.98    1.63
  -7   2 -12    1.29    1.60
  -7   2 -13    2.52    1.66
  -7   2 -14    5.30    2.14
  -7   2 -15   -0.60    1.56
  -6   1  15   -0.39    2.05
  -6   1  14    4.15    2.20
  -6   1  13    1.85    2.32
  -6   1  12    6.02    2.13
  -6   1  11    8.72    2.25
  -6   1  10   91.45    3.64
  -6   1  10   90.36    4.92
  -6   1   9   25.27    1.78
  -6   1   9   29.31    2.84
  -6   1   8   -0.20    0.79
  -6   1   8    0.56    1.51
  -6   1   7   69.74    2.65
  -6   1   7   72.48    3.63
  -6   1   6  108.18    3.60
  -6   1   6  109.29    4.55
  -6   1   5   68.38    3.31
  -6   1   5   71.94    2.48
  -6   1   4  129.67    4.05
  -6   1   4  128.07    4.90
  -6   1   3  181.18    6.32
  -6   1   3  180.30    5.48
  -6   1   2  426.64   13.35
  -6   1   2  419.07   12.43
  -6   1   1  136.36    4.95
  -6   1   1  136.37    4.34
  -6   1   0   13.28    1.45
  -6   1   0   11.96    0.91
  -6   1  -1  126.45    4.65
  -6   1  -1  130.75    4.33
  -6   1  -2  414.73   13.10
  -6   1  -2  420.63   12.67
  -6   1  -3  186.73    6.42
  -6   1  -3  194.85    6.32
   6  -1   4  130.19    4.02
  -6   1  -4  119.95    4.51
  -6   1  -4  123.79    4.60
   6  -1   5   75.15    2.70
  -6   1  -5   76.51    3.24
  -6   1  -5   78.40    3.28
   6  -1   6  105.24    3.66
  -6   1  -6  109.68    4.27
  -6   1  -6  109.14    4.20
   6  -1   7   72.80    2.74
  -6   1  -7   68.27    3.27
  -6   1  -7   66.37    3.19
   6  -1   8    1.02    0.89
  -6   1  -8    1.11    1.19
   6  -1   9   23.50    1.84
  -6   1  -9   21.78    2.25
   6  -1  10   90.42    3.87
  -6   1 -10   93.14    4.43
   6  -1  11    7.05    1.55
  -6   1 -11    7.38    1.82
   6  -1  12    5.18    1.42
  -6   1 -12    2.67    1.56
  -6   1 -13    5.30    2.03
  -6   1 -14    1.79    1.63
  -6   1 -15    2.93    1.72
  -5   0  15    4.05    2.24
  -5   0  14    1.79    2.03
  -5   0  13    2.00    1.96
  -5   0  12    8.89    2.52
  -5   0  11   63.07    3.15
  -5   0  11   58.84    4.21
  -5   0  10    7.11    2.09
  -5   0  10    7.43    1.45
  -5   0   9   63.21    3.73
  -5   0   9   65.89    2.86
  -5   0   8   11.55    1.26
  -5   0   8   14.44    2.09
  -5   0   7    8.91    1.66
  -5   0   7    9.09    1.05
  -5   0   6   37.99    2.47
  -5   0   6   36.65    1.76
  -5   0   5  253.03    7.70
  -5   0   5  249.49    8.54
  -5   0   4    0.05    0.61
  -5   0   4    0.53    0.95
  -5   0   3  426.99   12.61
  -5   0   3  424.78   13.43
  -5   0   2   41.39    2.13
  -5   0   2   38.35    1.66
  -5   0   1  135.86    4.78
  -5   0   1  135.18    4.34
  -5   0   0    0.78    0.89
  -5   0   0    0.17    0.64
  -5   0  -1  130.09    4.31
  -5   0  -1  129.16    4.55
  -5   0  -2   41.15    1.80
  -5   0  -2   29.01    1.66
   5   0   3  424.10   12.80
  -5   0  -3  428.67   13.01
   5   0   4   -0.18    0.54
  -5   0  -4    1.55    0.82
  -5   0  -4    1.31    0.58
   5   0   5  247.41    7.37
  -5   0  -5  206.93    7.61
  -5   0  -5  250.60    7.80
   5   0   6   36.66    1.69
  -5   0  -6   36.39    2.17
  -5   0  -6   32.96    1.93
   5   0   7    9.52    1.17
  -5   0  -7    8.28    1.39
   5   0   8   11.95    1.35
  -5   0  -8   12.88    1.69
   5   0   9   60.16    2.94
  -5   0  -9   60.12    3.27
   5   0  10    6.44    1.41
  -5   0 -10    5.79    1.64
   5   0  11   54.83    3.01
  -5   0 -11   51.74    3.31
   5   0  12    9.91    1.71
  -5   0 -12    9.06    1.87
   5   0  13    1.33    1.47
  -5   0 -13    0.39    1.43
  -5   0 -14    0.23    1.56
  -5   0 -15    3.41    1.75
  -4  -1  15    4.04    2.21
  -4  -1  14    2.93    2.06
  -4  -1  13    3.06    2.02
  -4  -1  12    8.34    2.28
  -4  -1  12    6.51    1.70
  -4  -1  11   30.17    3.20
  -4  -1  11   32.22    2.50
  -4  -1  10   40.85    3.24
  -4  -1  10   40.27    2.53
  -4  -1   9   60.97    3.54
  -4  -1   9   50.05    2.68
  -4  -1   8   16.81    2.13
  -4  -1   8   16.50    1.53
  -4  -1   7   94.09    4.16
  -4  -1   7   87.64    3.34
  -4  -1   6    4.78    0.94
  -4  -1   6    6.38    1.44
  -4  -1   5  103.73    3.59
  -4  -1   5  102.64    4.20
  -4  -1   4  303.87    9.17
  -4  -1   4  298.22    9.82
  -4  -1   3  350.38   11.07
  -4  -1   3  345.95   10.47
  -4  -1   2  164.85    5.25
  -4  -1   2  165.52    5.63
  -4  -1   1  254.22    7.81
  -4  -1   1  253.81    8.15
  -4  -1   0    7.19    0.95
  -4  -1   0   10.62    1.32
  -4  -1  -1  239.94    7.47
   4   1   2  169.45    5.20
  -4  -1  -2  161.00    5.31
  -4  -1  -2  153.30    5.29
   4   1   3  340.88   10.74
  -4  -1  -3  353.90   10.87
  -4  -1  -3  362.60   10.91
   4   1   4  296.03    9.44
  -4  -1  -4  311.64    9.59
  -4  -1  -4  311.70    9.64
   4   1   5   99.04    3.53
  -4  -1  -5  101.08    3.85
  -4  -1  -5  100.63    3.65
   4   1   6    5.96    0.96
  -4  -1  -6    6.98    1.21
   4   1   7   91.91    3.52
  -4  -1  -7   91.09    3.84
   4   1   8   16.64    1.62
  -4  -1  -8   17.13    1.86
   4   1   9   55.91    2.86
  -4  -1  -9   57.60    3.24
   4   1  10   33.68    2.27
  -4  -1 -10   42.67    2.78
   4   1  11   33.84    2.54
  -4  -1 -11   30.33    2.92
   4   1  12    6.27    1.64
  -4  -1 -12    7.87    1.75
   4   1  13    4.71    1.66
  -4  -1 -13    5.07    1.87
   4   1  14    1.02    1.52
  -4  -1 -14   -0.34    1.36
  -4  -1 -15    4.99    1.85
  -3  -2  16    3.08    2.63
  -3  -2  15    1.79    2.12
  -3  -2  14   -0.39    1.93
  -3  -2  13    2.77    1.63
  -3  -2  13    2.55    1.89
  -3  -2  12    5.94    2.37
  -3  -2  12    6.78    1.84
  -3  -2  11    7.88    2.44
  -3  -2  11    8.48    1.72
  -3  -2  10   38.80    3.23
  -3  -2  10   31.17    2.36
  -3  -2   9   18.56    1.81
  -3  -2   9   21.59    2.42
  -3  -2   8   17.73    2.17
  -3  -2   8   20.85    1.73
  -3  -2   7   36.73    1.98
  -3  -2   7   39.46    2.58
  -3  -2   6    3.56    0.90
  -3  -2   6    0.22    1.11
  -3  -2   5    4.11    1.18
  -3  -2   5    2.69    0.80
  -3  -2   4  138.30    5.15
  -3  -2   4  146.37    4.73
  -3  -2   3  193.07    6.60
  -3  -2   3  199.09    6.25
  -3  -2   2  204.82    6.67
  -3  -2   2  201.84    6.40
  -3  -2   1   23.12    1.61
  -3  -2   1   22.09    1.55
  -3  -2   0   42.90    2.00
   3   2   1   25.36    1.54
  -3  -2  -1   27.63    1.50
  -3  -2  -1   24.65    1.55
   3   2   2  203.75    6.65
  -3  -2  -2  209.01    6.56
  -3  -2  -2  215.44    6.71
   3   2   3  186.27    6.02
  -3  -2  -3  190.24    5.90
  -3  -2  -3  182.56    6.11
   3   2   4  142.40    4.76
  -3  -2  -4  141.26    4.92
  -3  -2  -4  142.29    4.63
   3   2   5    4.56    0.88
  -3  -2  -5    3.20    0.90
   3   2   6    2.52    0.88
  -3  -2  -6    0.88    0.88
   3   2   7   37.70    2.05
  -3  -2  -7   33.50    2.15
   3   2   8   16.99    1.73
  -3  -2  -8   17.82    1.82
   3   2   9   17.28    1.75
  -3  -2  -9   18.49    1.93
   3   2  10   31.54    2.52
  -3  -2 -10   31.97    2.73
   3   2  11    8.57    1.78
  -3  -2 -11    9.34    1.77
   3   2  12    7.84    1.62
  -3  -2 -12    4.76    1.52
   3   2  13    3.64    1.63
  -3  -2 -13    3.00    1.48
   3   2  14    0.51    1.39
  -3  -2 -14    0.83    1.61
   3   2  15   -1.11    1.64
  -3  -2 -15    1.74    1.81
  -3  -2 -16    2.45    1.61
  -2  -3  16    0.03    2.43
  -2  -3  15    4.50    2.19
  -2  -3  14    3.32    2.06
  -2  -3  14    1.26    1.77
  -2  -3  13    3.56    1.78
  -2  -3  13    1.49    2.15
  -2  -3  12    6.06    1.78
  -2  -3  11   12.57    1.98
  -2  -3  10   31.77    2.28
  -2  -3   9   19.89    1.95
  -2  -3   8   19.36    1.77
  -2  -3   7   37.21    2.11
  -2  -3   6    0.25    0.74
  -2  -3   5    1.47    0.74
  -2  -3   4  143.97    4.85
  -2  -3   3  185.81    5.99
  -2  -3   2  216.56    6.87
  -2  -3   1   28.26    1.75
  -2  -3   1   27.99    1.46
  -2  -3   0   39.90    1.70
  -2  -3   0   41.62    2.16
   2   3   1   31.65    1.62
  -2  -3  -1   23.12    1.66
  -2  -3  -1   24.87    1.29
   2   3   2  208.47    6.51
  -2  -3  -2  203.16    6.50
  -2  -3  -2  192.95    6.14
   2   3   3  184.57    6.05
  -2  -3  -3  184.94    6.11
  -2  -3  -3  187.51    5.70
   2   3   4  144.86    4.83
  -2  -3  -4  137.65    4.89
   2   3   5    2.82    0.82
  -2  -3  -5    3.60    0.96
   2   3   6    0.52    0.79
  -2  -3  -6    2.93    0.93
   2   3   7   34.38    2.11
  -2  -3  -7   35.49    2.13
   2   3   8   17.32    1.81
  -2  -3  -8   18.65    1.81
   2   3   9   20.79    2.07
  -2  -3  -9   14.62    1.78
   2   3  10   33.07    2.38
  -2  -3 -10   29.69    2.66
   2   3  11   11.85    2.01
  -2  -3 -11   10.82    1.95
   2   3  12    6.11    1.76
  -2  -3 -12    5.76    1.59
  -2  -3 -13    4.66    1.72
   2   3  14    2.70    1.81
  -2  -3 -14    2.60    1.67
   2   3  15    0.08    1.82
  -2  -3 -15    1.99    1.69
  -2  -3 -16    1.42    1.71
  -1  -4  15    3.68    2.07
  -1  -4  15    1.63    2.06
  -1  -4  14   -1.92    1.71
  -1  -4  13    5.84    1.91
  -1  -4  12    4.89    1.59
  -1  -4  11   31.56    2.70
  -1  -4  10   38.17    2.76
  -1  -4   9   55.89    3.06
  -1  -4   8   16.86    1.67
  -1  -4   7   87.48    3.61
  -1  -4   6    5.21    1.14
  -1  -4   5   93.48    3.52
  -1  -4   4  309.15    9.62
  -1  -4   3  355.37   10.90
  -1  -4   2  161.05    5.38
  -1  -4   1  242.85    7.69
   1   4   0    9.38    1.25
  -1  -4   0    8.25    1.29
   1   4   1  250.58    7.93
  -1  -4  -1  244.67    7.86
  -1  -4  -1  245.14    7.49
   1   4   2  149.85    5.23
  -1  -4  -2  159.75    5.25
   1   4   3  356.01   10.94
  -1  -4  -3  344.11   10.84
   1   4   4  304.88    9.40
  -1  -4  -4  286.27    9.30
   1   4   5   96.59    3.68
  -1  -4  -5   98.04    3.74
   1   4   6    5.91    1.08
  -1  -4  -6    3.52    0.99
   1   4   7   85.39    3.71
  -1  -4  -7   90.42    3.66
   1   4   8   16.27    1.84
  -1  -4  -8   15.70    1.67
   1   4   9   57.92    3.04
  -1  -4  -9   52.20    2.88
   1   4  10   44.79    3.02
  -1  -4 -10   41.42    2.85
   1   4  11   26.35    2.51
  -1  -4 -11   31.22    2.59
   1   4  12    7.81    1.73
   1   4  12    7.32    1.59
  -1  -4 -12    6.61    1.74
   1   4  13    4.50    1.89
  -1  -4 -13    5.46    1.74
   1   4  14   -1.03    1.69
  -1  -4 -14    1.66    1.36
   1   4  15    5.96    1.89
  -1  -4 -15    7.01    1.95
   0  -5  15    4.64    2.22
   0  -5  14    0.40    1.58
   0  -5  13   -1.20    1.70
   0  -5  12    8.98    1.84
   0  -5  11   56.01    3.51
   0  -5  10    7.19    1.63
   0  -5   9   60.76    3.16
   0  -5   8   11.99    1.72
   0  -5   7    9.78    1.39
   0  -5   6   35.12    2.04
   0  -5   5  250.85    8.11
   0  -5   4    0.38    0.80
   0  -5   3  424.68   12.97
   0  -5   2   38.96    2.01
   0  -5   1  137.91    4.80
   0   5   0   -0.18    0.87
   0  -5   0    1.17    1.03
   0   5   1  132.33    4.71
   0  -5  -1  134.06    4.70
   0   5   2   40.09    2.07
   0  -5  -2   40.63    2.12
   0   5   3  422.20   13.06
   0  -5  -3  418.49   12.89
   0   5   4    0.66    0.79
   0   5   4    0.75    0.34
   0  -5  -4    1.18    0.77
   0   5   5  242.01    7.47
   0   5   5  249.65    8.08
   0  -5  -5  239.51    7.92
   0   5   6   36.20    2.10
   0   5   6   35.63    1.63
   0  -5  -6   34.19    2.01
   0   5   7    8.57    1.41
   0   5   7    8.24    1.04
   0  -5  -7   10.42    1.47
   0   5   8   10.55    1.24
   0   5   8   10.11    1.55
   0  -5  -8   11.66    1.61
   0   5   9   59.37    3.23
   0   5   9   59.85    2.81
   0  -5  -9   61.54    3.21
   0   5  10    6.52    1.46
   0   5  10    8.37    1.73
   0  -5 -10    7.08    1.61
   0   5  11   50.32    3.23
   0   5  11   50.00    2.88
   0  -5 -11   55.28    3.05
   0   5  12    8.57    1.86
   0  -5 -12    5.70    1.66
   0   5  13   -0.29    1.44
   0  -5 -13    1.73    1.44
   0   5  14    4.41    2.03
   0  -5 -14    1.61    1.56
   0   5  15    7.49    1.99
   0  -5 -15    5.23    1.76
   1  -6  15   -0.77    2.00
   1  -6  14    3.43    1.87
   1  -6  13    4.93    1.82
   1  -6  12    4.45    1.69
   1  -6  11    8.04    1.85
   1  -6  10   95.17    4.38
   1  -6   9   24.32    2.46
   1  -6   8    1.41    1.41
   1  -6   7   70.12    3.26
   1  -6   6  104.80    4.11
   1  -6   5   80.02    3.34
   1  -6   4  122.36    4.53
   1  -6   3  188.42    6.30
   1  -6   2  423.11   12.97
  -1   6  -1  130.67    4.78
   1  -6   1  135.02    4.73
  -1   6   0   12.65    1.45
   1  -6   0   15.78    1.48
  -1   6   1  135.40    4.75
   1  -6  -1  130.23    4.73
  -1   6   2  425.93   13.00
   1  -6  -2  405.50   12.80
  -1   6   3  188.92    5.69
  -1   6   3  197.33    6.47
   1  -6  -3  183.31    6.37
  -1   6   4  116.45    3.71
  -1   6   4  113.77    4.35
   1  -6  -4  131.26    4.46
  -1   6   5   76.57    2.59
  -1   6   5   77.56    3.26
   1  -6  -5   70.25    3.12
  -1   6   6  110.38    4.37
  -1   6   6  110.12    3.75
   1  -6  -6  112.00    4.25
  -1   6   7   70.98    3.33
  -1   6   7   66.17    2.71
   1  -6  -7   75.06    3.24
  -1   6   8    1.87    0.91
  -1   6   8    1.35    1.23
   1  -6  -8   -0.74    0.86
  -1   6   9   18.76    2.15
  -1   6   9   23.91    1.83
   1  -6  -9   22.21    2.13
  -1   6  10   90.06    4.38
  -1   6  10   93.10    3.90
   1  -6 -10   92.49    4.17
  -1   6  11   11.19    2.05
  -1   6  11    8.38    1.63
   1  -6 -11    7.69    1.64
  -1   6  12    6.01    1.78
   1  -6 -12    3.08    1.07
  -1   6  13    4.31    1.74
  -1   6  14    0.37    1.60
   1  -6 -14    0.98    0.73
  -1   6  15    0.92    1.61
   2  -7  15   -0.89    1.77
   2  -7  14    2.21    2.26
   2  -7  13   -1.40    1.88
   2  -7  12    0.73    1.83
   2  -7  11    5.87    2.03
   2  -7  10   17.73    2.25
   2  -7   9   12.38    1.96
   2  -7   8   24.17    2.21
   2  -7   7    4.71    1.38
   2  -7   6   12.98    1.58
   2  -7   5   10.65    1.48
   2  -7   4    4.81    1.14
   2  -7   3   33.22    1.98
   2  -7   2   48.98    2.43
  -2   7  -1   46.33    2.45
   2  -7   1   51.59    2.46
  -2   7   0  271.46    8.81
   2  -7   0  265.44    8.64
  -2   7   1   43.62    2.37
  -2   7   1   49.69    1.88
   2  -7  -1   46.26    2.40
  -2   7   2   48.21    2.41
  -2   7   2   50.28    1.78
   2  -7  -2   42.15    2.35
  -2   7   3   30.25    1.99
  -2   7   3   36.06    1.36
   2  -7  -3   37.92    2.07
  -2   7   4    4.54    0.58
  -2   7   4    6.16    1.23
   2  -7  -4    5.51    1.23
  -2   7   5   13.42    1.00
  -2   7   5   12.53    1.58
   2  -7  -5   15.94    1.67
  -2   7   6   16.08    1.76
  -2   7   6   15.12    1.17
   2  -7  -6   17.75    1.75
  -2   7   7    3.10    0.97
  -2   7   7    0.67    1.21
   2  -7  -7    2.29    0.91
  -2   7   8   23.49    2.32
  -2   7   8   25.30    1.77
  -2   7   9   15.35    1.59
  -2   7   9   16.79    2.11
  -2   7  10   16.06    2.21
  -2   7  10   19.04    1.88
  -2   7  11    5.34    1.71
   2  -7 -11    2.00    1.31
  -2   7  12   -0.06    1.82
   2  -7 -12    4.21    1.42
  -2   7  13    0.95    1.63
   2  -7 -13    0.48    1.36
  -2   7  14    2.15    2.04
  -2   7  15    0.04    1.68
   3  -8  15   -0.71    2.21
   3  -8  14    1.08    1.90
   3  -8  13   22.82    2.86
   3  -8  12    4.09    2.10
   3  -8  11   12.25    2.37
   3  -8  10    0.10    1.57
   3  -8   9   20.38    2.36
   3  -8   8   48.90    3.02
   3  -8   7  101.34    4.38
   3  -8   6    1.79    1.18
   3  -8   5  165.76    5.98
   3  -8   4   61.41    2.96
   3  -8   3   68.61    3.08
   3  -8   2   20.78    1.76
  -3   8  -1  147.74    5.54
   3  -8   1  159.72    5.47
  -3   8   0  267.50    8.55
  -3   8   0  269.55    8.91
   3  -8   0  270.94    8.79
  -3   8   1  162.24    5.19
  -3   8   1  161.28    5.67
   3  -8  -1  148.68    5.51
  -3   8   2   18.96    1.49
  -3   8   2   20.20    1.11
   3  -8  -2   18.41    1.69
  -3   8   3   61.81    3.03
  -3   8   3   69.38    2.41
   3  -8  -3   67.41    3.05
  -3   8   4   58.01    2.83
  -3   8   4   58.11    2.14
   3  -8  -4   54.42    2.85
  -3   8   5  161.09    5.23
  -3   8   5  163.39    5.96
  -3   8   6    1.47    0.77
  -3   8   6    1.21    1.23
  -3   8   7  100.35    4.31
  -3   8   7   93.81    3.55
  -3   8   8   46.35    2.39
  -3   8   8   49.47    3.07
   3  -8  -8   51.88    2.65
  -3   8   9   20.98    2.38
  -3   8   9   23.72    1.95
   3  -8  -9   25.56    2.23
  -3   8  10    2.26    1.66
  -3   8  10    0.85    1.37
   3  -8 -10   -0.97    1.15
  -3   8  11   10.70    2.08
   3  -8 -11   14.82    1.90
  -3   8  12    5.96    2.08
   3  -8 -12    3.14    1.40
  -3   8  13   24.21    2.83
   3  -8 -13   19.55    2.23
  -3   8  14    3.21    1.87
  -3   8  15    6.06    2.10
   4  -9  15    3.68    2.58
   4  -9  14    5.91    2.19
   4  -9  13   15.36    2.59
   4  -9  12    0.90    1.74
   4  -9  11    2.66    1.76
   4  -9  10    4.06    1.80
   4  -9   9   13.82    2.16
   4  -9   8   15.24    2.12
   4  -9   7  140.78    5.62
   4  -9   6   79.31    3.76
   4  -9   5   65.84    3.27
   4  -9   4   22.39    2.01
   4  -9   3   23.51    1.95
   4  -9   2   45.98    2.57
  -4   9  -1  189.09    6.76
  -4   9  -1  186.12    6.47
   4  -9   1  199.48    6.72
  -4   9   0   55.51    2.39
  -4   9   0   52.13    2.77
   4  -9   0   51.81    2.83
  -4   9   1  183.62    6.08
  -4   9   1  183.10    6.53
   4  -9  -1  188.15    6.48
  -4   9   2   41.96    1.87
  -4   9   2   44.83    2.46
   4  -9  -2   37.71    2.33
  -4   9   3   26.50    2.00
  -4   9   3   21.35    1.34
   4  -9  -3   24.42    2.08
  -4   9   4   22.23    1.29
  -4   9   4   21.49    1.84
   4  -9  -4   16.68    1.72
  -4   9   5   64.37    2.58
  -4   9   5   66.53    3.28
  -4   9   6   86.38    3.30
  -4   9   6   85.51    4.00
   4  -9  -6   90.46    3.83
  -4   9   7  146.24    5.09
  -4   9   7  142.13    5.82
   4  -9  -7  150.67    5.50
  -4   9   8   14.00    2.06
  -4   9   8   15.19    1.60
   4  -9  -8   14.98    1.79
  -4   9   9   13.51    2.21
  -4   9   9   13.89    1.64
   4  -9  -9   16.71    1.92
  -4   9  10    1.62    1.67
   4  -9 -10    3.30    1.33
  -4   9  11    1.06    1.64
   4  -9 -11    2.45    1.35
  -4   9  12   -0.31    1.58
   4  -9 -12    2.15    1.32
  -4   9  13   18.55    2.67
  -4   9  14    2.80    1.96
  -4   9  15    7.13    2.24
   5 -10  14   17.51    3.21
   5 -10  13    1.88    2.29
   5 -10  12    7.43    2.20
   5 -10  11    6.25    2.05
   5 -10  10    7.66    2.04
   5 -10   9   18.39    2.50
   5 -10   8   81.09    4.40
   5 -10   7    9.87    1.89
   5 -10   6  290.69    9.87
   5 -10   5   50.64    2.98
   5 -10   4    1.19    1.26
   5 -10   3   83.36    3.71
  -5  10  -2  148.68    5.34
  -5  10  -2  142.15    5.57
   5 -10   2  143.57    5.43
  -5  10  -1   51.67    2.89
  -5  10  -1   53.80    2.56
   5 -10   1   56.60    2.88
  -5  10   0  261.21    8.58
  -5  10   0  266.72    8.94
   5 -10   0  260.74    8.75
  -5  10   1   55.90    2.92
  -5  10   1   53.43    2.42
   5 -10  -1   58.99    3.05
  -5  10   2  144.69    4.90
  -5  10   2  144.70    5.42
   5 -10  -2  136.77    5.28
  -5  10   3   86.60    3.86
  -5  10   3   83.80    3.23
   5 -10  -3   91.01    3.85
  -5  10   4    0.84    0.80
  -5  10   4    0.17    1.15
   5 -10  -4    0.46    0.33
  -5  10   5   47.67    2.93
  -5  10   5   48.98    2.22
   5 -10  -5   50.89    2.82
  -5  10   6  283.63    9.92
  -5  10   6  289.95    9.25
   5 -10  -6  294.43    9.64
  -5  10   7    9.76    1.42
  -5  10   7    9.97    1.91
   5 -10  -7   11.27    1.68
  -5  10   8   79.76    4.17
  -5  10   8   79.49    3.42
   5 -10  -8   79.22    3.70
  -5  10   9   13.31    2.21
   5 -10  -9   16.22    1.90
  -5  10  10    4.37    1.84
   5 -10 -10    6.69    1.46
  -5  10  11    7.93    2.02
   5 -10 -11    7.68    1.52
  -5  10  12    5.80    1.98
  -5  10  13    1.65    1.89
  -5  10  14   18.30    2.73
   6 -11  14    2.60    2.22
   6 -11  13   10.18    2.53
   6 -11  12    1.46    1.94
   6 -11  11   -0.37    1.69
   6 -11  10   -0.45    1.61
   6 -11   9   -0.13    1.68
   6 -11   8    7.35    2.05
   6 -11   7   87.25    4.32
   6 -11   6   26.46    2.58
   6 -11   5   23.08    2.33
   6 -11   4    9.05    1.75
  -6  11  -3    1.71    1.10
   6 -11   3    3.93    1.40
  -6  11  -2   18.74    2.02
  -6  11  -2   24.53    2.02
   6 -11   2   22.22    2.12
  -6  11  -1   95.15    4.22
  -6  11  -1   89.76    3.79
   6 -11   1   97.73    4.14
  -6  11   0   20.34    1.57
  -6  11   0   23.08    2.19
   6 -11   0   26.08    2.21
  -6  11   1   88.15    3.66
  -6  11   1   98.62    4.17
   6 -11  -1   98.46    4.23
  -6  11   2   21.37    1.57
  -6  11   2   21.28    2.05
   6 -11  -2   22.73    2.08
  -6  11   3    2.72    0.89
  -6  11   3    2.15    1.30
   6 -11  -3    1.55    1.28
  -6  11   4   10.91    1.72
  -6  11   4    8.28    1.17
   6 -11  -4    7.30    1.39
  -6  11   5   21.12    1.66
  -6  11   5   20.85    2.29
   6 -11  -5   24.14    2.30
  -6  11   6   25.18    1.91
  -6  11   6   23.08    2.47
   6 -11  -6   27.05    2.34
  -6  11   7   80.21    3.47
  -6  11   7   89.50    4.38
   6 -11  -7   85.53    3.99
  -6  11   8    5.46    1.93
  -6  11   8    7.42    1.52
   6 -11  -8   10.42    1.74
  -6  11   9    1.14    1.65
   6 -11  -9    0.82    1.26
  -6  11  10    1.21    1.69
   6 -11 -10    1.44    1.15
  -6  11  11   -0.90    1.54
  -6  11  12    1.06    1.75
  -6  11  13   11.26    2.39
  -6  11  14    3.12    1.97
   7 -12  13   -3.13    1.91
   7 -12  12    3.65    2.16
   7 -12  11    6.18    2.43
   7 -12  10    3.99    1.98
   7 -12   9   10.88    2.26
   7 -12   8   11.40    2.25
   7 -12   7   15.83    2.31
   7 -12   6   13.84    2.19
   7 -12   5   14.36    2.12
   7 -12   4    3.72    1.59
  -7  12  -3   54.70    3.06
   7 -12   3   60.43    3.29
  -7  12  -2   -1.02    1.04
  -7  12  -2    0.24    1.32
   7 -12   2    1.29    1.38
  -7  12  -1   84.52    3.70
  -7  12  -1   84.43    4.00
   7 -12   1   76.79    3.85
  -7  12   0   52.68    2.73
  -7  12   0   55.29    3.32
   7 -12   0   50.27    3.01
  -7  12   1   77.32    3.75
  -7  12   1   73.82    3.22
   7 -12  -1   78.29    3.83
  -7  12   2    0.82    1.06
  -7  12   2   -0.63    1.22
   7 -12  -2   -0.07    1.25
  -7  12   3   57.79    3.25
  -7  12   3   58.37    2.79
  -7  12   4    3.62    1.61
  -7  12   4    6.43    1.18
   7 -12  -4    4.68    1.59
  -7  12   5   14.75    2.15
  -7  12   5   18.15    1.69
   7 -12  -5   18.23    2.20
  -7  12   6   11.61    2.07
  -7  12   6   10.51    1.49
   7 -12  -6    9.94    1.92
  -7  12   7   18.03    2.43
  -7  12   7   17.75    1.80
   7 -12  -7   16.84    2.19
  -7  12   8    8.35    2.03
   7 -12  -8    6.09    1.64
  -7  12   9   10.81    2.25
   7 -12  -9   14.32    1.80
  -7  12  10    5.26    1.98
  -7  12  11    7.40    2.12
  -7  12  12    2.04    1.87
  -7  12  13    6.26    2.20
   8 -13  13    3.02    2.64
   8 -13  12    1.44    2.08
   8 -13  11    5.23    2.26
   8 -13  10   14.23    2.51
   8 -13   9    2.43    1.83
   8 -13   8    3.10    1.88
   8 -13   7   17.14    2.66
   8 -13   6    4.36    1.89
   8 -13   5   20.43    2.46
  -8  13  -4   40.43    2.88
   8 -13   4   44.46    3.10
  -8  13  -3   25.65    2.41
   8 -13   3   28.01    2.60
  -8  13  -2   15.59    2.32
  -8  13  -2   18.84    2.17
   8 -13   2   17.80    2.23
  -8  13  -1   28.51    2.35
  -8  13  -1   23.80    2.46
   8 -13   1   22.30    2.38
  -8  13   0   16.91    2.17
  -8  13   0   13.43    1.74
   8 -13   0   13.37    2.21
  -8  13   1   24.45    2.11
  -8  13   1   25.38    2.47
   8 -13  -1   28.31    2.67
  -8  13   2   15.55    2.10
  -8  13   2   17.10    1.81
   8 -13  -2   14.75    1.94
  -8  13   3   26.77    2.15
  -8  13   3   26.98    2.57
  -8  13   4   42.17    3.16
  -8  13   4   49.60    2.65
   8 -13  -4   47.65    3.16
  -8  13   5   21.37    2.51
  -8  13   5   24.46    1.91
   8 -13  -5   22.81    2.46
  -8  13   6    5.70    1.41
  -8  13   6    7.14    1.96
   8 -13  -6    6.53    1.76
  -8  13   7   18.27    1.92
  -8  13   7   15.87    2.43
   8 -13  -7   20.95    2.21
  -8  13   8    0.38    1.72
   8 -13  -8   -0.27    1.33
  -8  13   9    2.02    1.86
  -8  13  10   14.25    2.50
  -8  13  11    3.86    1.99
  -8  13  12   -1.50    1.81
  -8  13  13    5.95    2.28
   9 -14  12    7.96    2.42
   9 -14  11   -1.36    2.27
   9 -14  10   20.67    2.86
   9 -14   9    0.35    1.73
   9 -14   8    6.85    2.11
   9 -14   7    9.35    2.21
   9 -14   6   24.42    2.83
   9 -14   5    3.33    1.89
  -9  14  -4   48.60    3.21
   9 -14   4   51.81    3.41
  -9  14  -3   31.35    2.72
   9 -14   3   23.93    2.65
  -9  14  -2   54.69    3.54
  -9  14  -2   61.23    3.53
   9 -14   2   68.21    3.74
  -9  14  -1   11.33    1.71
  -9  14  -1   10.02    2.00
   9 -14   1    9.87    2.31
  -9  14   0   17.30    1.91
  -9  14   0   12.49    2.35
   9 -14   0   18.70    2.56
  -9  14   1   11.85    2.07
  -9  14   1   13.56    1.82
   9 -14  -1   10.41    2.20
  -9  14   2   60.51    3.59
  -9  14   2   62.56    3.22
   9 -14  -2   59.93    3.66
  -9  14   3   25.29    2.16
  -9  14   3   29.55    2.68
   9 -14  -3   15.60    2.02
  -9  14   4   51.83    3.47
  -9  14   4   50.51    2.84
   9 -14  -4   51.01    3.37
  -9  14   5    3.35    1.88
  -9  14   5    4.51    1.54
   9 -14  -5    7.43    2.05
  -9  14   6   22.91    2.15
  -9  14   6   20.29    2.63
   9 -14  -6   24.32    2.53
  -9  14   7    9.21    2.17
   9 -14  -7   12.40    1.94
  -9  14   8    5.00    1.99
  -9  14   9    4.88    2.08
  -9  14  10   12.25    2.51
  -9  14  11    1.71    2.01
  -9  14  12    3.29    2.12
  10 -15  12    0.48    2.23
  10 -15  11    6.80    2.44
  10 -15  10   -3.38    1.70
  10 -15   9    8.69    2.33
  10 -15   8    5.27    2.42
  10 -15   7    1.81    1.87
  10 -15   6    6.19    2.08
 -10  15  -5   11.39    2.08
  10 -15   5   13.00    2.39
 -10  15  -4    0.81    1.52
  10 -15   4    0.46    1.81
 -10  15  -3   47.38    3.25
  10 -15   3   46.72    3.47
 -10  15  -2    0.02    1.84
 -10  15  -2    2.92    1.71
  10 -15   2    1.06    2.08
 -10  15  -1   10.29    1.83
 -10  15  -1   12.84    2.50
  10 -15   1   10.22    2.41
 -10  15   0   48.71    3.65
 -10  15   0   48.02    3.09
  10 -15   0   42.58    3.27
 -10  15   1    8.44    1.78
 -10  15   1   14.37    2.24
  10 -15  -1    6.26    2.18
 -10  15   2   -2.21    1.28
 -10  15   2   -0.20    1.63
  10 -15  -2    1.15    1.77
 -10  15   3   47.56    3.35
 -10  15   3   42.82    2.86
  10 -15  -3   42.77    3.28
 -10  15   4    1.90    1.81
 -10  15   4    0.09    1.49
  10 -15  -4    3.44    1.81
 -10  15   5   16.38    1.90
 -10  15   5   12.29    2.31
  10 -15  -5   18.76    2.40
 -10  15   6   10.30    1.66
 -10  15   6    3.72    1.94
  10 -15  -6   11.25    2.15
 -10  15   7    1.82    1.82
 -10  15   8    7.41    2.15
 -10  15   9   11.58    2.47
 -10  15  10   -1.05    1.85
 -10  15  11   10.03    2.51
 -10  15  12   -0.84    1.99
  11 -16  11    0.34    2.21
  11 -16  10    5.58    2.43
  11 -16   9    2.32    2.16
  11 -16   8   -0.92    1.88
  11 -16   7    3.96    2.07
  11 -16   6    3.78    2.04
 -11  16  -5    0.78    1.54
  11 -16   5    5.11    1.96
 -11  16  -4   14.87    2.25
  11 -16   4   15.69    2.44
 -11  16  -3    6.30    1.83
  11 -16   3    3.86    2.32
 -11  16  -2    2.00    1.33
 -11  16  -2    4.56    1.63
  11 -16   2    5.93    2.05
 -11  16  -1    2.87    2.22
 -11  16  -1    0.89    1.44
  11 -16   1    1.95    1.92
 -11  16   0   -0.53    1.67
 -11  16   0    0.94    1.35
  11 -16   0   -0.13    1.78
 -11  16   1    1.42    1.58
 -11  16   1    2.32    2.10
  11 -16  -1    3.06    1.88
 -11  16   2    7.18    1.77
 -11  16   2    6.51    2.38
  11 -16  -2    5.73    1.69
 -11  16   3    6.85    1.81
 -11  16   3    6.68    2.05
  11 -16  -3    7.24    2.20
 -11  16   4   14.70    1.98
 -11  16   4   13.47    2.39
  11 -16  -4   14.42    2.27
 -11  16   5    0.64    1.49
 -11  16   5    0.17    1.83
  11 -16  -5    5.41    1.85
 -11  16   6    1.34    1.78
 -11  16   7    1.10    1.78
 -11  16   8   -1.34    1.78
 -11  16   9    3.70    2.11
 -11  16  10    8.64    2.53
 -11  16  11    1.54    2.14
  12 -17  10   -0.85    2.08
  12 -17   9    4.27    2.64
  12 -17   8    4.29    2.22
  12 -17   7    4.31    2.23
  12 -17   6   -0.71    1.82
 -12  17  -5    1.32    1.62
  12 -17   5    1.89    1.90
 -12  17  -4   -1.69    1.38
  12 -17   4    0.13    1.80
 -12  17  -3   13.25    2.26
  12 -17   3   14.68    2.50
 -12  17  -2   -0.03    0.55
 -12  17  -2    0.10    1.73
  12 -17   2    3.03    1.95
 -12  17  -1    7.58    1.79
 -12  17  -1   11.57    2.55
  12 -17   1   12.84    2.63
 -12  17   0    5.65    2.26
 -12  17   0    7.04    1.97
  12 -17   0    6.65    2.11
 -12  17   1    7.60    1.88
 -12  17   1    6.52    2.04
  12 -17  -1    7.47    2.08
 -12  17   2    0.55    1.76
 -12  17   2    1.66    1.40
 -12  17   3   13.26    2.42
 -12  17   3   14.78    2.13
  12 -17  -3   12.90    2.39
 -12  17   4    1.34    1.85
 -12  17   4    2.80    1.59
  12 -17  -4   -0.12    1.74
 -12  17   5    1.37    1.42
 -12  17   5    1.68    1.92
 -12  17   6    1.39    1.89
 -12  17   7    4.24    2.16
 -12  17   8    2.45    2.06
 -12  17   9    1.85    2.07
 -12  17  10   -0.02    2.01
  13 -18   9    1.49    2.20
  13 -18   8    0.58    2.15
  13 -18   7    1.09    2.46
  13 -18   6    4.90    2.50
 -13  18  -5    0.86    1.67
  13 -18   5    1.18    2.01
 -13  18  -4   13.08    2.52
  13 -18   4    9.35    2.40
 -13  18  -3    8.01    2.30
  13 -18   3    6.91    2.24
 -13  18  -2    8.48    1.97
 -13  18  -2    8.81    2.17
  13 -18   2   13.48    2.53
 -13  18  -1   -4.14    1.82
 -13  18  -1    4.82    1.98
  13 -18   1    1.48    2.23
 -13  18   0    9.48    2.53
 -13  18   0    9.48    2.10
  13 -18   0    8.16    2.51
 -13  18   1    1.89    1.81
 -13  18   1    0.57    1.63
  13 -18  -1    0.87    1.78
 -13  18   2    9.38    1.81
 -13  18   2   13.35    2.66
  13 -18  -2    3.22    1.41
 -13  18   3    3.29    2.02
 -13  18   3    3.78    1.75
  13 -18  -3    4.84    2.16
 -13  18   4    9.79    2.33
 -13  18   4   15.89    2.21
  13 -18  -4    7.15    2.15
 -13  18   5   -1.93    1.77
 -13  18   6    1.42    2.11
 -13  18   7    3.95    2.23
 -13  18   8    2.85    2.22
 -13  18   9   -0.84    2.34
  14 -19   8    1.97    2.25
  14 -19   7    0.93    2.18
  14 -19   6   -0.81    1.97
 -14  19  -5    2.40    1.92
  14 -19   5    9.37    2.54
 -14  19  -4   11.82    2.33
  14 -19   4   13.86    2.72
 -14  19  -3    0.84    1.71
  14 -19   3    2.75    2.53
 -14  19  -2    3.62    2.26
 -14  19  -2    0.63    1.58
  14 -19   2    2.21    2.51
 -14  19  -1   10.13    2.30
 -14  19  -1    4.81    1.68
  14 -19   1    8.20    2.80
 -14  19   0    2.11    1.83
 -14  19   0   -1.59    1.74
  14 -19   0   -2.07    2.17
 -14  19   1    7.13    2.49
 -14  19   1    6.32    1.79
  14 -19  -1    8.57    2.58
 -14  19   2    1.77    1.69
 -14  19   2    3.75    2.38
  14 -19  -2    3.12    2.11
 -14  19   3    5.53    1.92
 -14  19   3    4.32    2.16
  14 -19  -3    3.10    2.12
 -14  19   4   12.93    2.61
 -14  19   4   14.33    2.30
 -14  19   5    4.15    2.21
 -14  19   6   -1.14    1.93
 -14  19   7    3.68    2.33
 -14  19   8    1.38    2.59
  15 -20   7   -2.67    2.06
  15 -20   6   -0.03    2.12
 -15  20  -5    2.16    1.92
  15 -20   5    1.15    2.64
 -15  20  -4   -2.89    1.87
  15 -20   4   -3.40    1.94
 -15  20  -3    7.43    2.19
  15 -20   3    8.72    2.61
 -15  20  -2    2.23    1.72
  15 -20   2   -2.08    1.96
 -15  20  -1   -0.45    1.90
 -15  20  -1    0.89    1.01
  15 -20   1   -0.90    2.40
 -15  20   0    6.70    1.96
 -15  20   0    2.40    2.43
  15 -20   0    4.30    2.54
 -15  20   1    0.35    1.78
 -15  20   1   -0.40    2.29
  15 -20  -1   -2.50    1.91
 -15  20   2   -0.33    1.78
 -15  20   2    0.09    2.30
  15 -20  -2   -1.58    2.04
 -15  20   3   13.15    2.31
 -15  20   3    9.27    2.46
 -15  20   4    0.37    2.02
 -15  20   5    1.84    2.05
 -15  20   6    1.92    2.17
 -15  20   7   -1.09    2.06
 -16  21  -5    0.14    1.91
  16 -21   5    3.28    2.84
 -16  21  -4    0.49    1.91
  16 -21   4   -1.48    2.27
 -16  21  -3   -0.80    1.80
  16 -21   3   -3.28    2.05
 -16  21  -2    1.91    1.79
  16 -21   2    1.91    2.73
 -16  21  -1    0.93    1.70
  16 -21   1   -0.99    2.48
 -16  21   0   -1.94    1.88
 -16  21   0   -1.33    1.81
  16 -21   0   -0.72    2.40
 -16  21   1   -0.16    2.31
 -16  21   1    3.54    2.07
  16 -21  -1   -0.56    1.00
 -16  21   2    1.46    1.93
 -16  21   2    3.23    2.50
 -16  21   3    0.85    2.51
 -16  21   4   -3.74    2.28
 -16  21   5    1.32    2.19
 -17  22  -1   -0.56    2.06
 -17  22   0    7.57    2.38
  17 -22   0    4.04    2.74
 -22  16   2    1.83    2.22
 -22  16   1    2.29    2.23
 -22  16   0    1.20    2.21
 -22  16  -1    3.17    2.57
 -22  16  -2    1.30    2.27
 -21  15   5    0.28    2.14
 -21  15   4    2.31    2.29
 -21  15   3   -1.01    2.03
 -21  15   2    1.37    2.47
 -21  15   1    0.01    2.05
 -21  15   0    5.57    2.44
 -21  15  -1    2.86    2.19
 -21  15  -2    4.49    2.73
  21 -15   3   -1.20    1.14
 -21  15  -3    0.08    2.10
  21 -15   4    5.22    2.19
 -21  15  -4    0.96    2.10
  21 -15   5   -1.39    1.70
 -21  15  -5    3.21    2.23
 -20  14   7   -2.27    1.87
 -20  14   7    0.39    1.77
 -20  14   6   -1.47    1.88
 -20  14   6    3.53    2.69
 -20  14   5    0.61    2.05
 -20  14   5    1.24    1.53
 -20  14   4    4.02    1.95
 -20  14   4    3.07    2.23
 -20  14   3    2.79    2.58
 -20  14   2    4.32    2.31
 -20  14   1    0.74    2.06
 -20  14   0    1.12    2.38
 -20  14  -1    2.17    2.09
  20 -14   2    5.00    1.92
 -20  14  -2    2.78    2.14
  20 -14   3    3.12    1.93
 -20  14  -3    3.82    2.24
  20 -14   4    2.09    1.73
 -20  14  -4    5.97    2.45
  20 -14   5    0.21    1.98
 -20  14  -5    1.93    1.99
  20 -14   6    0.60    2.10
 -20  14  -6    0.72    2.09
  20 -14   7    2.80    1.98
 -20  14  -7    0.99    2.04
 -19  13   8    1.00    2.03
 -19  13   8    2.19    2.60
 -19  13   7    2.27    2.54
 -19  13   7    0.54    1.71
 -19  13   6    2.89    2.18
 -19  13   6    5.32    2.06
 -19  13   5    4.16    2.30
 -19  13   5    5.65    2.04
 -19  13   4    1.24    2.05
 -19  13   4   -3.55    1.19
 -19  13   3   12.59    2.07
 -19  13   3   17.61    2.95
 -19  13   2    2.97    2.11
 -19  13   1   -1.03    1.84
 -19  13   0    4.65    2.11
  19 -13   1   -1.30    1.45
 -19  13  -1    3.10    2.08
  19 -13   2   -0.18    1.64
 -19  13  -2    4.29    2.21
  19 -13   3   10.95    2.23
 -19  13  -3   12.04    2.64
  19 -13   4   -2.49    1.38
 -19  13  -4   -1.14    1.78
  19 -13   5    4.49    2.18
 -19  13  -5    5.01    2.42
  19 -13   6    3.38    1.91
 -19  13  -6    6.69    2.34
  19 -13   7    1.48    1.88
 -19  13  -7    3.34    2.10
  19 -13   8    1.48    1.97
 -19  13  -8    3.16    2.10
 -18  12   9    1.35    1.85
 -18  12   9    0.52    2.12
 -18  12   8    0.29    1.61
 -18  12   8   -2.57    2.32
 -18  12   7    6.33    2.59
 -18  12   7    1.27    1.66
 -18  12   6    3.58    1.70
 -18  12   6    5.75    2.32
 -18  12   5   -0.27    1.93
 -18  12   5    4.93    1.93
 -18  12   4    8.63    2.40
 -18  12   3    2.80    1.58
 -18  12   3    0.92    1.92
 -18  12   2   -0.87    1.83
 -18  12   2    0.24    1.33
 -18  12   1    8.24    2.30
  18 -12   0   -0.68    1.39
 -18  12   0   -1.22    1.69
  18 -12   1    4.26    1.63
 -18  12  -1    4.94    2.14
  18 -12   2    1.07    1.28
 -18  12  -2   -1.87    1.63
  18 -12   3    5.24    1.85
 -18  12  -3    2.97    2.05
  18 -12   4    7.96    2.18
 -18  12  -4    9.75    2.54
  18 -12   5    2.02    1.96
 -18  12  -5    1.95    1.97
  18 -12   6    4.04    1.89
 -18  12  -6    6.39    2.31
  18 -12   7    6.50    2.42
 -18  12  -7    5.67    2.22
  18 -12   8   -2.53    1.70
 -18  12  -8    0.86    1.98
  18 -12   9    1.05    2.29
 -18  12  -9   -0.19    1.96
 -17  11  10   -0.10    1.72
 -17  11  10    0.97    2.22
 -17  11   9   -0.48    1.95
 -17  11   8    3.73    2.28
 -17  11   8    3.98    1.86
 -17  11   7    2.62    2.11
 -17  11   7    6.44    1.87
 -17  11   6    2.41    1.48
 -17  11   6    2.66    2.07
 -17  11   5    1.38    1.64
 -17  11   5    2.56    2.01
 -17  11   4    2.20    1.21
 -17  11   4    1.57    1.96
 -17  11   3    4.68    1.54
 -17  11   3    2.86    2.01
 -17  11   2    1.93    1.39
 -17  11   2    0.71    1.91
 -17  11   1   -0.82    1.75
 -17  11   1    0.88    1.17
  17 -11   0    1.48    1.47
 -17  11   0    1.93    1.97
  17 -11   1   -0.20    1.48
 -17  11  -1   -0.69    1.81
  17 -11   2    1.08    0.59
 -17  11  -2    2.17    1.95
  17 -11   3    5.56    1.62
 -17  11  -3    6.93    2.22
  17 -11   4    1.23    1.51
 -17  11  -4    3.24    2.07
  17 -11   5   -0.11    1.68
 -17  11  -5    2.61    2.00
  17 -11   6    5.89    2.13
 -17  11  -6    3.48    2.05
  17 -11   7    1.82    1.76
 -17  11  -7    1.33    1.71
 -17  11  -7    2.81    1.99
  17 -11   8    0.23    1.72
 -17  11  -8    1.82    1.79
 -17  11  -8    1.80    1.99
  17 -11   9   -1.08    2.12
 -17  11  -9    5.99    2.57
  17 -11  10   -0.68    1.77
 -17  11 -10   -0.31    1.93
 -16  10  11    1.98    2.18
 -16  10  10    5.76    2.69
 -16  10   9    2.97    2.55
 -16  10   8    0.27    1.96
 -16  10   7    4.88    2.26
 -16  10   6   -0.46    1.88
 -16  10   5    2.77    2.07
 -16  10   4    2.51    1.60
 -16  10   4    5.92    2.23
 -16  10   3   18.10    2.76
 -16  10   3   15.76    2.05
 -16  10   2   17.53    2.78
 -16  10   2   20.12    2.03
  16 -10  -1   11.56    1.65
 -16  10   1   12.85    1.70
 -16  10   1   10.70    2.48
  16 -10   0    1.47    1.38
 -16  10   0   -1.01    1.08
 -16  10   0   -0.02    1.88
  16 -10   1   11.56    1.86
 -16  10  -1   13.79    2.61
 -16  10  -2   19.40    2.83
  16 -10   3   14.74    2.01
 -16  10  -3   17.42    2.09
 -16  10  -3   17.71    2.76
 -16  10  -4    1.83    1.97
 -16  10  -4    2.78    1.73
 -16  10  -5    3.12    1.95
 -16  10  -5    2.85    1.56
 -16  10  -6    2.60    1.93
 -16  10  -6    0.70    1.74
 -16  10  -7    3.43    2.27
 -16  10  -7    4.90    2.02
 -16  10  -8    2.14    1.87
 -16  10  -8   -0.13    1.59
 -16  10  -9    4.60    2.21
 -16  10  -9    5.00    2.21
 -16  10 -10    4.07    1.97
 -16  10 -10    8.49    2.52
  16 -10  11    1.89    2.00
 -16  10 -11    0.21    1.72
 -16  10 -11    2.50    2.41
 -15   9  12    1.77    2.60
 -15   9  11    2.45    2.25
 -15   9  10    6.96    2.35
 -15   9   9    2.04    2.32
 -15   9   8   -0.65    1.87
 -15   9   7    5.70    2.17
 -15   9   6    0.77    1.91
 -15   9   5    8.82    2.33
 -15   9   4    9.77    2.42
 -15   9   3   11.39    2.45
  15  -9  -2   25.62    1.85
 -15   9   2   25.73    2.15
 -15   9   2   24.41    2.97
  15  -9  -1   19.39    1.78
 -15   9   1   19.48    1.80
 -15   9   1   12.38    2.49
  15  -9   0   34.90    2.46
 -15   9   0   33.66    2.15
 -15   9   0   36.71    3.42
  15  -9   1   16.78    1.92
 -15   9  -1   18.21    1.60
 -15   9  -1   18.93    2.71
 -15   9  -1   16.75    1.87
 -15   9  -2   25.37    2.30
 -15   9  -2   27.56    3.12
 -15   9  -3    7.67    2.15
 -15   9  -3    9.89    1.89
 -15   9  -4   14.00    1.99
 -15   9  -4   14.53    2.62
 -15   9  -5    6.38    2.17
 -15   9  -5    8.75    1.83
 -15   9  -6    1.21    1.73
 -15   9  -6    1.50    1.74
 -15   9  -7    8.55    1.90
 -15   9  -7    7.12    2.39
 -15   9  -8    0.16    1.66
 -15   9  -8    2.04    1.92
 -15   9  -9    3.95    2.04
 -15   9  -9    2.79    2.03
 -15   9 -10    6.13    2.13
 -15   9 -10    7.40    2.30
 -15   9 -11    5.94    2.09
 -15   9 -11    3.15    2.03
 -15   9 -12   -2.24    2.04
 -14   8  13   -0.14    2.12
 -14   8  12    0.79    2.51
 -14   8  11    7.42    2.80
 -14   8  10   -0.08    1.93
 -14   8   9    7.74    2.26
 -14   8   8    7.64    2.22
 -14   8   7    7.05    2.50
 -14   8   6    4.24    2.06
 -14   8   5   28.62    3.04
 -14   8   4    3.63    2.00
 -14   8   3   82.94    4.55
  14  -8  -2    0.84    0.97
 -14   8   2    1.58    1.85
  14  -8  -1   21.62    1.74
 -14   8   1   16.18    2.47
 -14   8   0   71.26    4.10
 -14   8   0   62.53    3.02
 -14   8   0   60.55    2.79
 -14   8  -1   22.20    1.95
 -14   8  -1   22.74    2.76
 -14   8  -1   20.49    1.59
 -14   8  -2    2.15    1.37
 -14   8  -2    0.65    1.69
 -14   8  -3   86.03    3.94
 -14   8  -3   87.19    4.65
 -14   8  -4   -0.46    1.52
 -14   8  -4   -1.41    1.67
 -14   8  -5   30.77    2.69
 -14   8  -5   26.73    3.08
 -14   8  -6    2.38    1.55
 -14   8  -6    4.87    2.28
 -14   8  -7    4.53    2.02
 -14   8  -7    4.56    1.72
 -14   8  -8    0.61    1.59
 -14   8  -8    4.75    1.98
 -14   8  -9    5.18    2.04
 -14   8  -9    7.73    1.97
 -14   8 -10    1.98    2.09
 -14   8 -10    1.99    1.69
 -14   8 -11    5.50    2.04
 -14   8 -12    1.29    1.85
 -14   8 -13    2.60    1.89
 -13   7  13   -1.48    1.95
 -13   7  12    2.13    2.18
 -13   7  11    0.99    2.05
 -13   7  10    2.37    2.07
 -13   7   9    4.10    2.28
 -13   7   8    5.85    2.11
 -13   7   7    8.59    2.30
 -13   7   6    0.11    1.81
 -13   7   5    0.20    1.73
 -13   7   4   49.97    3.51
  13  -7  -3   25.37    1.41
 -13   7   3   26.50    2.90
  13  -7  -2    0.71    0.81
 -13   7   2   -0.08    1.59
 -13   7   1    8.64    1.18
 -13   7   1    9.11    2.03
 -13   7   0    4.65    1.79
 -13   7   0    3.94    1.08
 -13   7  -1    8.31    1.37
 -13   7  -1    7.17    1.91
 -13   7  -1    8.31    1.00
 -13   7  -2    0.18    0.63
 -13   7  -2    2.26    1.25
 -13   7  -2    0.62    1.59
 -13   7  -3   25.03    2.71
 -13   7  -3   28.50    2.15
 -13   7  -4   52.58    2.99
 -13   7  -4   48.70    3.51
 -13   7  -5    1.49    1.68
 -13   7  -5    1.52    1.37
 -13   7  -6   -2.05    1.48
 -13   7  -6   -0.02    1.37
 -13   7  -7    9.36    2.15
 -13   7  -7    9.92    2.02
 -13   7  -8    7.91    2.06
 -13   7  -8    8.41    2.37
 -13   7  -9    2.98    1.70
 -13   7  -9    6.25    2.08
 -13   7 -10   -0.15    2.04
 -13   7 -10    3.54    1.78
 -13   7 -11    0.72    1.68
 -13   7 -12    4.31    2.01
 -13   7 -13    5.08    2.08
 -12   6  14    2.29    2.32
 -12   6  13   -0.09    2.56
 -12   6  12    1.14    2.42
 -12   6  11    2.03    2.04
 -12   6  10    6.46    2.48
 -12   6   9    5.34    2.35
 -12   6   8    5.40    2.15
 -12   6   7    3.90    1.98
 -12   6   6   37.79    3.27
 -12   6   5   23.78    2.68
 -12   6   4   35.47    3.02
  12  -6  -3   14.69    1.06
 -12   6   3   20.83    2.41
 -12   6   2    4.99    0.85
 -12   6   2    4.11    1.74
 -12   6   1   73.70    3.97
 -12   6   1   76.11    2.96
 -12   6   0   15.34    2.25
 -12   6   0   20.18    1.57
 -12   6  -1   72.26    3.22
 -12   6  -1   83.29    4.11
 -12   6  -2    4.25    1.63
 -12   6  -2    6.21    1.16
 -12   6  -2    5.09    0.68
 -12   6  -3   17.23    2.24
 -12   6  -3   16.03    1.75
 -12   6  -4   29.26    2.84
 -12   6  -4   35.61    2.35
 -12   6  -5   23.50    2.26
 -12   6  -5   23.27    2.68
 -12   6  -6   35.75    2.83
 -12   6  -6   34.50    3.17
 -12   6  -7    9.36    1.87
 -12   6  -7    7.56    1.93
 -12   6  -8    3.14    1.75
 -12   6  -8    5.86    1.81
 -12   6  -9    3.82    1.74
 -12   6  -9    4.49    1.84
 -12   6 -10    8.23    1.97
 -12   6 -10    6.64    1.97
 -12   6 -11    0.23    1.68
 -12   6 -12    1.96    1.77
 -12   6 -13    2.81    1.96
 -12   6 -14    5.50    2.16
 -11   5  14    2.96    2.34
 -11   5  13    8.26    2.57
 -11   5  12    3.20    2.14
 -11   5  11    0.31    1.90
 -11   5  10   -1.00    1.78
 -11   5   9    1.00    1.86
 -11   5   8    7.88    2.16
 -11   5   7   87.36    4.50
 -11   5   6   24.65    2.90
 -11   5   5   21.04    2.44
 -11   5   4    6.79    1.79
 -11   5   3    2.06    1.55
 -11   5   3    1.82    0.55
 -11   5   2   28.18    2.57
 -11   5   2   19.83    1.23
 -11   5   1   89.95    3.24
 -11   5   1   86.50    4.21
 -11   5   0   18.45    1.44
 -11   5   0   25.01    2.40
 -11   5  -1   97.82    4.53
 -11   5  -1   99.11    3.78
 -11   5  -2   21.11    2.27
 -11   5  -2   22.07    1.81
 -11   5  -2   19.99    1.01
 -11   5  -3    2.45    1.03
 -11   5  -3    1.38    1.34
 -11   5  -4    9.67    1.78
 -11   5  -4    7.67    1.39
 -11   5  -5   20.21    2.18
 -11   5  -5   20.46    2.41
 -11   5  -6   29.18    2.78
 -11   5  -6   21.47    2.22
 -11   5  -7   85.18    4.32
 -11   5  -7   78.64    4.04
 -11   5  -8    4.25    1.75
 -11   5  -8    2.15    1.57
 -11   5  -9   -0.08    1.52
 -11   5  -9    1.12    1.52
 -11   5 -10   -0.46    1.47
 -11   5 -11    2.40    1.91
 -11   5 -12   -1.36    1.52
 -11   5 -13    8.65    2.26
 -11   5 -14    2.88    1.97
 -10   4  14    3.62    2.74
 -10   4  13   17.40    3.32
 -10   4  12    1.31    2.10
 -10   4  11   -0.01    1.86
 -10   4  10    0.11    1.85
 -10   4   9   10.27    2.34
 -10   4   8   23.66    2.81
 -10   4   7  111.88    5.16
 -10   4   6   41.30    2.98
 -10   4   5   65.79    3.61
 -10   4   4    2.91    1.47
 -10   4   3   27.34    2.46
 -10   4   3   30.31    1.25
 -10   4   2    7.30    0.81
 -10   4   2    5.38    1.59
 -10   4   1  161.88    5.28
 -10   4   1  164.81    6.30
 -10   4   0   80.64    3.10
 -10   4   0   85.48    3.94
 -10   4  -1  151.58    5.99
 -10   4  -1  159.24    5.35
 -10   4  -2    9.58    1.66
 -10   4  -2   10.20    1.32
 -10   4  -3   22.74    1.75
 -10   4  -3   27.59    2.40
 -10   4  -4    2.66    1.10
 -10   4  -4    2.18    1.26
 -10   4  -5   67.25    3.32
 -10   4  -5   70.48    3.61
 -10   4  -6   46.24    2.88
 -10   4  -6   47.61    3.20
 -10   4  -7  113.84    5.00
 -10   4  -7  108.81    4.84
 -10   4  -8   23.42    2.44
 -10   4  -8   21.94    2.55
 -10   4  -9   10.87    2.27
 -10   4  -9   10.75    2.02
 -10   4 -10   -0.31    1.46
 -10   4 -11    0.10    1.58
 -10   4 -12    4.59    1.81
 -10   4 -13   13.16    2.42
 -10   4 -14    2.85    1.95
  -9   3  15    1.36    2.28
  -9   3  14    7.04    2.55
  -9   3  13   -0.04    2.00
  -9   3  12    0.92    1.95
  -9   3  11    2.45    1.99
  -9   3  10   -1.30    1.79
  -9   3   9   -1.89    2.12
  -9   3   8   41.47    3.23
  -9   3   7    5.49    1.80
  -9   3   6  140.49    5.79
  -9   3   5   33.42    2.54
  -9   3   4    4.94    0.41
  -9   3   4    6.22    1.52
  -9   3   3    1.89    1.03
  -9   3   3    1.69    0.47
  -9   3   2    5.21    0.67
  -9   3   2    4.35    1.41
  -9   3   1    4.25    0.74
  -9   3   1    3.71    1.39
  -9   3   0  246.04    7.63
  -9   3   0  238.41    8.41
  -9   3  -1    6.65    1.63
  -9   3  -1    6.11    1.01
  -9   3  -2    5.27    1.06
  -9   3  -2    4.17    1.34
  -9   3  -3    1.52    0.89
  -9   3  -3    0.24    1.06
  -9   3  -4    4.34    1.25
  -9   3  -4    2.53    1.01
  -9   3  -5   36.77    2.46
  -9   3  -5   34.87    2.58
  -9   3  -6  137.65    5.68
  -9   3  -6  145.65    5.52
   9  -3   7    5.19    0.75
  -9   3  -7    8.56    1.79
  -9   3  -7    6.72    1.58
  -9   3  -8   35.24    2.76
  -9   3  -8   45.45    3.14
  -9   3  -9   -0.17    1.40
  -9   3 -10    1.99    1.64
  -9   3 -11    5.40    1.76
  -9   3 -12    3.06    1.80
  -9   3 -13    1.99    1.74
  -9   3 -14    8.21    2.18
  -9   3 -15   -0.66    1.67
  -8   2  15    3.60    2.38
  -8   2  14    3.88    2.28
  -8   2  13    3.46    2.19
  -8   2  12    0.73    1.94
  -8   2  11   -1.75    2.07
  -8   2  10    1.41    1.93
  -8   2   9   11.15    2.24
  -8   2   8    0.77    1.67
  -8   2   8    0.79    0.86
  -8   2   7   39.04    1.63
  -8   2   7   37.54    2.86
  -8   2   6   49.90    3.07
  -8   2   6   50.10    1.76
  -8   2   5    3.33    0.45
  -8   2   5    5.73    1.51
  -8   2   4   30.53    2.30
  -8   2   4   30.58    1.19
  -8   2   3    4.36    0.56
  -8   2   3    3.84    1.33
  -8   2   2    7.64    1.48
  -8   2   2    7.61    0.77
  -8   2   1   29.31    2.14
  -8   2   1   31.74    1.49
  -8   2   0   14.18    1.10
  -8   2   0   17.47    1.78
  -8   2  -1   37.90    1.89
  -8   2  -1   38.73    2.32
  -8   2  -2    6.90    1.03
  -8   2  -2    7.98    1.33
  -8   2  -3    2.70    1.28
  -8   2  -3    3.81    0.96
  -8   2  -4   28.06    2.16
  -8   2  -4   29.82    1.94
   8  -2   5    3.09    0.52
  -8   2  -5    2.45    1.07
  -8   2  -5    0.96    0.99
   8  -2   6   50.44    1.94
  -8   2  -6   49.85    2.75
  -8   2  -6   50.82    2.86
   8  -2   7   39.08    1.80
  -8   2  -7   41.55    2.70
  -8   2  -7   41.99    2.68
   8  -2   8    1.68    0.84
  -8   2  -8    0.82    1.21
  -8   2  -8   -1.63    1.19
   8  -2   9   10.85    1.33
  -8   2  -9   10.86    1.93
  -8   2 -10    2.02    1.59
  -8   2 -11   -0.66    1.41
  -8   2 -12   -0.89    1.47
  -8   2 -13    4.60    1.90
  -8   2 -14    3.79    2.12
  -8   2 -15    0.07    1.69
  -7   1  15    1.38    2.24
  -7   1  14   -1.97    2.29
  -7   1  13   -0.82    1.91
  -7   1  12    2.73    2.01
  -7   1  11    8.41    2.27
  -7   1  10    2.80    1.96
  -7   1   9   30.52    1.90
  -7   1   9   30.44    3.00
  -7   1   8   11.43    2.04
  -7   1   8   12.43    1.26
  -7   1   7   40.95    2.92
  -7   1   7   43.53    1.98
  -7   1   6    1.49    1.40
  -7   1   6    5.75    0.86
  -7   1   5  105.95    4.45
  -7   1   5  103.04    3.43
  -7   1   4   35.37    2.39
  -7   1   4   38.43    1.58
  -7   1   3  136.99    5.26
  -7   1   3  142.08    4.41
  -7   1   2    2.51    0.57
  -7   1   2    1.68    1.08
  -7   1   1   58.64    2.23
  -7   1   1   60.90    2.85
  -7   1   0   91.21    3.22
  -7   1   0   88.57    3.71
  -7   1  -1   50.79    2.58
  -7   1  -1   54.91    2.24
  -7   1  -2    3.23    0.82
  -7   1  -2    5.63    1.24
  -7   1  -3  144.10    4.98
  -7   1  -3  138.13    5.13
   7  -1   4   36.83    1.51
  -7   1  -4   38.95    2.25
  -7   1  -4   34.38    2.06
   7  -1   5  100.24    3.54
  -7   1  -5  109.99    4.26
  -7   1  -5  112.34    4.26
   7  -1   6    2.88    0.80
  -7   1  -6    2.47    1.09
  -7   1  -6    0.62    0.85
   7  -1   7   42.84    1.90
  -7   1  -7   34.67    2.31
  -7   1  -7   36.28    2.46
   7  -1   8   10.25    1.28
  -7   1  -8   10.20    1.70
   7  -1   9   33.06    2.01
  -7   1  -9   32.57    2.77
   7  -1  10    2.16    1.21
  -7   1 -10    4.16    1.90
  -7   1 -11    7.71    1.86
  -7   1 -12    3.18    1.65
  -7   1 -13    0.74    1.85
  -7   1 -14    0.08    1.55
  -7   1 -15    0.66    1.69
  -6   0  15    1.18    2.21
  -6   0  14   -0.95    2.30
  -6   0  13    3.32    2.07
  -6   0  12    1.02    1.90
  -6   0  11   11.89    2.40
  -6   0  10   59.94    3.95
  -6   0  10   60.03    2.87
  -6   0   9   28.97    2.89
  -6   0   9   22.83    1.77
  -6   0   8   11.55    2.02
  -6   0   8   10.49    1.31
  -6   0   7    4.20    1.59
  -6   0   7    4.94    1.02
  -6   0   6   74.38    2.85
  -6   0   6   77.07    3.68
  -6   0   5   70.69    3.32
  -6   0   5   74.98    2.73
  -6   0   4   78.80    2.85
  -6   0   4   79.67    3.52
  -6   0   3  123.03    4.06
  -6   0   3  125.93    4.75
  -6   0   2  175.39    6.05
  -6   0   2  168.91    5.41
  -6   0   1   45.81    2.39
  -6   0   1   50.04    2.01
  -6   0   0  134.21    4.77
  -6   0   0  127.75    4.33
  -6   0  -1   46.78    2.37
  -6   0  -1   52.69    2.16
  -6   0  -2  164.26    5.73
  -6   0  -2  170.01    5.58
   6   0   3  121.13    3.98
  -6   0  -3  121.15    4.35
   6   0   4   76.72    2.79
  -6   0  -4   79.32    3.24
   6   0   5   74.98    2.79
  -6   0  -5   73.21    3.09
  -6   0  -5   74.47    3.26
   6   0   6   75.57    2.86
  -6   0  -6   73.97    3.20
  -6   0  -6   74.96    3.39
   6   0   7    5.32    1.01
  -6   0  -7    6.30    1.39
  -6   0  -7    3.90    1.16
   6   0   8   10.50    1.31
  -6   0  -8    9.63    1.62
   6   0   9   28.14    1.92
  -6   0  -9   28.91    2.54
   6   0  10   55.74    2.99
  -6   0 -10   57.62    3.44
   6   0  11   10.42    1.76
  -6   0 -11   11.15    2.03
   6   0  12    0.75    1.26
  -6   0 -12    0.98    1.42
  -6   0 -13    1.64    1.54
  -6   0 -14   -0.48    1.43
  -6   0 -15    2.42    2.01
  -5  -1  15    3.13    2.27
  -5  -1  14    3.65    2.26
  -5  -1  13    5.28    2.19
  -5  -1  12    7.96    2.25
  -5  -1  11    7.65    2.22
  -5  -1  11    6.67    1.62
  -5  -1  10   94.69    3.96
  -5  -1  10   91.58    4.85
  -5  -1   9   24.40    1.94
  -5  -1   9   25.87    2.79
  -5  -1   8    0.85    1.50
  -5  -1   8    0.90    1.00
  -5  -1   7   75.39    3.01
  -5  -1   7   74.83    3.76
  -5  -1   6  113.12    3.95
  -5  -1   6  109.05    4.66
  -5  -1   5   81.36    3.66
  -5  -1   5   81.13    3.06
  -5  -1   4  120.03    4.08
  -5  -1   4  120.09    4.57
  -5  -1   3  194.19    6.05
  -5  -1   3  184.37    6.53
  -5  -1   2  424.35   12.76
  -5  -1   2  427.13   13.39
  -5  -1   1  129.01    4.33
  -5  -1   1  130.74    4.66
  -5  -1   0   13.90    1.40
  -5  -1   0   12.26    1.10
  -5  -1  -1  129.95    4.41
  -5  -1  -2  402.25   12.66
  -5  -1  -2  412.55   12.44
   5   1   3  195.56    6.08
  -5  -1  -3  187.19    6.25
  -5  -1  -3  183.86    6.27
   5   1   4  123.88    4.26
  -5  -1  -4  130.29    4.48
  -5  -1  -4  125.67    4.58
   5   1   5   72.41    2.79
  -5  -1  -5   71.80    3.13
  -5  -1  -5   70.36    2.91
   5   1   6  110.76    3.89
  -5  -1  -6  107.89    4.05
  -5  -1  -6  106.66    4.28
   5   1   7   67.52    2.92
  -5  -1  -7   72.87    3.37
   5   1   8    0.29    0.94
  -5  -1  -8    0.81    1.16
   5   1   9   21.74    1.90
  -5  -1  -9   23.28    2.26
   5   1  10   98.50    4.08
  -5  -1 -10   86.09    4.31
   5   1  11    9.80    1.74
  -5  -1 -11    5.30    1.65
   5   1  12    7.95    1.80
  -5  -1 -12    5.67    1.91
   5   1  13    2.79    1.54
  -5  -1 -13    2.71    1.60
  -5  -1 -14    1.97    1.90
  -5  -1 -15    5.06    2.10
  -4  -2  15   -1.03    1.99
  -4  -2  14    3.39    2.59
  -4  -2  13    0.62    2.26
  -4  -2  12    3.61    2.00
  -4  -2  12    0.08    1.50
  -4  -2  11   28.28    3.13
  -4  -2  11   28.87    2.42
  -4  -2  10   12.17    2.36
  -4  -2  10   13.40    1.77
  -4  -2   9   24.07    2.68
  -4  -2   9   26.39    2.05
  -4  -2   8    1.94    1.15
  -4  -2   8    2.13    1.52
  -4  -2   7    8.38    1.66
  -4  -2   7    8.38    1.17
  -4  -2   6  157.26    5.27
  -4  -2   6  151.01    5.89
  -4  -2   5   19.48    1.48
  -4  -2   5   15.62    1.82
  -4  -2   4   10.78    1.14
  -4  -2   4    9.27    1.35
  -4  -2   3  246.15    7.65
  -4  -2   3  239.95    8.06
  -4  -2   2  259.63    8.36
  -4  -2   2  254.77    8.03
  -4  -2   1   13.28    1.29
  -4  -2   1   11.40    1.22
  -4  -2   0    0.23    0.74
  -4  -2   0    0.12    0.39
  -4  -2  -1   11.48    1.18
  -4  -2  -1   13.28    1.21
   4   2   2  253.12    8.28
  -4  -2  -2  273.16    8.34
  -4  -2  -2  265.89    8.34
   4   2   3  244.29    7.78
  -4  -2  -3  242.11    7.73
  -4  -2  -3  250.67    7.92
   4   2   4    8.25    0.94
  -4  -2  -4    9.94    0.95
  -4  -2  -4    9.59    1.20
   4   2   5   16.69    1.39
  -4  -2  -5   17.99    1.27
  -4  -2  -5   19.07    1.77
   4   2   6  147.96    5.19
  -4  -2  -6  153.78    5.51
   4   2   7    7.24    1.20
  -4  -2  -7   10.29    1.48
   4   2   8    2.96    1.14
  -4  -2  -8    1.14    1.33
   4   2   9   23.61    1.98
  -4  -2  -9   25.07    2.46
   4   2  10   16.55    2.02
  -4  -2 -10   14.68    2.03
   4   2  11   27.66    2.36
  -4  -2 -11   24.44    2.69
   4   2  12    1.10    1.43
  -4  -2 -12    1.21    1.61
   4   2  13    0.49    1.49
  -4  -2 -13    1.47    1.67
   4   2  14    5.70    1.82
  -4  -2 -14    3.82    1.71
  -4  -2 -15    1.53    1.60
  -3  -3  15    3.87    2.61
  -3  -3  14    3.69    2.18
  -3  -3  13    6.28    1.88
  -3  -3  13    3.61    2.08
  -3  -3  12    3.77    2.03
  -3  -3  12    4.91    1.72
  -3  -3  11   29.53    2.52
  -3  -3  11   27.06    3.07
  -3  -3  10   -0.81    1.65
  -3  -3  10    3.26    1.46
  -3  -3   9   24.43    2.11
  -3  -3   8   24.86    1.97
  -3  -3   7   62.22    2.83
  -3  -3   6  187.91    6.25
  -3  -3   5   85.06    3.69
  -3  -3   5   83.81    3.28
  -3  -3   4  163.42    5.85
  -3  -3   4  164.21    5.45
  -3  -3   3  151.51    5.35
  -3  -3   3  151.69    5.10
  -3  -3   2    0.69    0.97
  -3  -3   2    1.61    0.86
  -3  -3   1  377.61   11.65
  -3  -3   1  372.35   11.47
  -3  -3   0    2.04    0.91
  -3  -3   0    2.54    0.79
   3   3   1  375.69   11.52
  -3  -3  -1  374.18   11.38
  -3  -3  -1  362.79   11.37
   3   3   2    0.68    0.76
  -3  -3  -2   -0.75    0.56
  -3  -3  -2    1.15    0.88
   3   3   3  150.10    5.11
  -3  -3  -3  151.20    4.79
  -3  -3  -3  147.87    5.16
   3   3   4  159.65    5.36
  -3  -3  -4  154.57    5.48
  -3  -3  -4  160.86    5.05
   3   3   5   80.41    3.16
  -3  -3  -5   82.08    3.39
   3   3   6  193.05    6.50
  -3  -3  -6  189.65    6.62
   3   3   7   65.04    2.89
  -3  -3  -7   65.84    3.13
   3   3   8   20.54    1.88
  -3  -3  -8   17.48    1.88
   3   3   9   23.26    2.15
  -3  -3  -9   22.14    2.20
   3   3  10    1.89    1.53
  -3  -3 -10    2.31    1.36
   3   3  11   28.19    2.41
  -3  -3 -11   26.28    2.58
   3   3  12    2.92    1.66
  -3  -3 -12    3.40    1.75
   3   3  13    7.41    1.90
  -3  -3 -13    4.34    1.61
   3   3  14    5.85    1.95
  -3  -3 -14    5.84    1.77
   3   3  15    1.59    1.88
  -3  -3 -15   -0.43    1.36
  -2  -4  15    0.80    2.06
  -2  -4  14    0.64    1.76
  -2  -4  14    7.22    2.63
  -2  -4  13    2.52    1.96
  -2  -4  13    0.50    1.65
  -2  -4  12    0.44    1.57
  -2  -4  11   24.81    2.37
  -2  -4  10   17.10    2.09
  -2  -4   9   29.34    2.41
  -2  -4   8   -0.55    1.17
  -2  -4   7   10.37    1.47
  -2  -4   6  144.56    5.11
  -2  -4   5   19.70    1.65
  -2  -4   4   10.84    1.20
  -2  -4   3  259.66    8.26
  -2  -4   2  288.06    9.09
  -2  -4   1   11.95    1.30
  -2  -4   1    5.03    0.69
  -2  -4   0    0.40    0.68
  -2  -4   0    0.35    0.92
   2   4   1   10.40    1.24
  -2  -4  -1   12.70    0.96
  -2  -4  -1   14.72    1.44
   2   4   2  283.36    8.45
  -2  -4  -2  249.59    7.93
  -2  -4  -2  252.99    8.33
   2   4   3  250.32    7.93
  -2  -4  -3  241.08    7.89
  -2  -4  -3  240.63    7.34
   2   4   4    9.31    1.13
  -2  -4  -4   11.17    1.29
   2   4   5   20.81    1.66
  -2  -4  -5   15.09    1.58
   2   4   6  150.67    5.32
  -2  -4  -6  147.40    5.42
   2   4   7    7.16    1.24
  -2  -4  -7   10.94    1.46
   2   4   8    0.70    1.07
  -2  -4  -8    1.65    1.15
   2   4   9   26.78    2.26
  -2  -4  -9   26.98    2.35
   2   4  10   19.01    2.29
  -2  -4 -10   18.87    2.13
   2   4  11   21.43    2.48
  -2  -4 -11   26.72    2.61
   2   4  12    0.38    1.32
  -2  -4 -12    0.41    1.50
   2   4  13    2.40    1.49
  -2  -4 -13    0.27    1.51
   2   4  14    5.11    1.95
  -2  -4 -14    4.79    1.62
   2   4  15    1.73    1.91
  -2  -4 -15   -0.38    1.57
  -1  -5  15   -0.59    1.90
  -1  -5  14    3.50    1.78
  -1  -5  13   -0.63    1.72
  -1  -5  12    4.81    1.87
  -1  -5  11    8.00    1.80
  -1  -5  10   82.75    3.94
  -1  -5   9   23.69    2.18
  -1  -5   8    0.82    1.14
  -1  -5   7   67.63    3.09
  -1  -5   6  106.25    4.09
  -1  -5   5   68.78    2.95
  -1  -5   4  125.47    4.52
  -1  -5   3  193.56    6.43
  -1  -5   2  421.74   12.95
  -1  -5   1  133.12    4.75
   1   5   0   13.60    1.44
  -1  -5   0   11.02    1.37
   1   5   1  130.01    4.78
  -1  -5  -1  133.73    4.72
  -1  -5  -1  134.67    4.23
   1   5   2  410.11   12.86
  -1  -5  -2  396.75   12.26
  -1  -5  -2  434.68   12.82
   1   5   3  179.10    6.18
  -1  -5  -3  186.41    6.22
   1   5   4  128.14    4.58
  -1  -5  -4  121.08    4.55
   1   5   5   69.12    3.02
  -1  -5  -5   73.11    3.13
   1   5   6  108.27    4.30
  -1  -5  -6  109.36    4.27
   1   5   7   71.11    3.22
  -1  -5  -7   68.22    3.21
   1   5   8    1.07    1.15
  -1  -5  -8    1.05    1.07
   1   5   9   26.39    2.42
  -1  -5  -9   19.68    2.05
   1   5  10   90.89    4.27
   1   5  10   89.24    3.84
  -1  -5 -10   92.43    4.22
   1   5  11    6.86    1.72
   1   5  11    5.40    1.45
  -1  -5 -11    9.76    1.77
   1   5  12    7.29    1.99
  -1  -5 -12    5.30    1.69
   1   5  13    0.69    1.79
  -1  -5 -13    4.92    1.54
   1   5  14    2.55    1.89
  -1  -5 -14    3.66    1.54
   1   5  15   -2.35    1.79
  -1  -5 -15    3.08    1.72
   0  -6  15    3.46    2.19
   0  -6  14   -0.66    1.94
   0  -6  13    1.16    1.88
   0  -6  12   -2.15    1.67
   0  -6  11   13.51    2.31
   0  -6  10   58.14    3.60
   0  -6   9   26.94    2.36
   0  -6   8    8.12    1.54
   0  -6   7    4.68    1.31
   0  -6   6   68.43    3.14
   0  -6   5   74.77    3.20
   0  -6   4   81.39    3.38
   0  -6   3  123.21    4.53
   0  -6   2  178.97    6.12
   0  -6   1   48.01    2.43
   0   6   0  132.33    4.85
   0  -6   0  131.14    4.79
   0   6   1   53.19    2.50
   0  -6  -1   45.50    2.45
   0   6   2  173.11    5.88
   0  -6  -2  163.64    5.83
   0   6   3  116.45    4.36
   0  -6  -3  117.15    4.37
   0   6   4   78.19    3.30
   0  -6  -4   76.70    3.39
   0   6   5   74.46    2.40
   0   6   5   72.33    3.23
   0  -6  -5   77.40    3.29
   0   6   6   75.36    3.36
   0   6   6   74.45    2.61
   0  -6  -6   76.19    3.43
   0   6   7    3.99    0.80
   0   6   7    5.16    1.30
   0  -6  -7    3.41    1.10
   0   6   8   12.68    1.89
   0   6   8   11.45    1.20
   0  -6  -8   10.32    1.56
   0   6   9   25.20    1.75
   0   6   9   30.71    2.69
   0  -6  -9   26.23    2.42
   0   6  10   57.65    2.88
   0   6  10   56.41    3.39
   0  -6 -10   59.57    3.25
   0   6  11   11.76    2.04
   0  -6 -11   11.50    1.95
   0   6  12   -0.98    1.74
   0  -6 -12   -1.80    1.04
   0   6  13   -1.19    1.77
   0  -6 -13    1.22    1.28
   0   6  14    1.29    1.66
   0  -6 -14    0.30    1.52
   0   6  15    0.36    1.66
   0  -6 -15    2.49    1.63
   1  -7  15    1.52    2.22
   1  -7  14    3.49    2.22
   1  -7  13    2.20    2.03
   1  -7  12    4.35    1.78
   1  -7  11   10.03    2.26
   1  -7  10    3.06    1.67
   1  -7   9   35.39    2.79
   1  -7   8   11.42    1.93
   1  -7   7   42.23    2.62
   1  -7   6    0.73    1.12
   1  -7   5  106.58    4.20
   1  -7   4   32.21    2.10
   1  -7   3  141.12    5.11
   1  -7   2    4.74    1.13
  -1   7  -1   63.76    2.91
   1  -7   1   59.21    2.86
  -1   7   0   89.41    3.67
   1  -7   0   88.02    3.63
  -1   7   1   53.61    2.69
   1  -7  -1   58.61    2.75
  -1   7   2    2.82    0.87
   1  -7  -2    3.30    1.10
  -1   7   3  144.67    5.21
   1  -7  -3  140.39    5.21
  -1   7   4   41.93    2.36
   1  -7  -4   37.00    2.25
  -1   7   5  106.65    3.28
  -1   7   5  102.66    4.11
   1  -7  -5  102.70    4.16
  -1   7   6    4.13    1.27
  -1   7   6    3.32    0.65
   1  -7  -6    2.94    1.22
  -1   7   7   45.40    1.95
  -1   7   7   45.85    2.72
   1  -7  -7   40.73    2.60
  -1   7   8   10.74    1.19
  -1   7   8    8.93    1.71
   1  -7  -8   11.35    1.62
  -1   7   9   31.73    2.70
  -1   7   9   33.29    1.99
   1  -7  -9   32.20    2.36
  -1   7  10    3.19    1.63
   1  -7 -10    5.29    1.43
  -1   7  11    9.32    2.22
   1  -7 -11   10.47    1.89
  -1   7  12    2.97    1.67
   1  -7 -12    0.98    1.44
  -1   7  13    1.92    1.66
   1  -7 -13    1.15    1.10
  -1   7  14    1.32    1.72
  -1   7  15    0.02    1.66
   2  -8  15    0.25    1.97
   2  -8  14    1.96    2.23
   2  -8  13    3.33    1.96
   2  -8  12    1.86    2.07
   2  -8  11    0.41    1.57
   2  -8  10    0.09    1.85
   2  -8   9   14.97    2.14
   2  -8   8    1.56    1.64
   2  -8   7   40.46    2.70
   2  -8   6   45.88    2.73
   2  -8   5    5.08    1.31
   2  -8   4   26.98    2.05
   2  -8   3    5.16    1.29
   2  -8   2    6.12    1.27
  -2   8  -1   31.87    2.17
   2  -8   1   37.87    2.22
  -2   8   0   12.49    1.59
   2  -8   0   16.42    1.66
  -2   8   1   39.03    2.26
   2  -8  -1   30.39    2.31
  -2   8   2    7.57    1.34
  -2   8   2    7.84    0.74
   2  -8  -2    6.92    1.38
  -2   8   3    4.48    0.54
  -2   8   3    4.53    1.24
   2  -8  -3    6.16    1.34
  -2   8   4   28.72    1.93
  -2   8   4   29.86    1.17
   2  -8  -4   31.28    2.10
  -2   8   5    2.86    1.23
  -2   8   5    3.44    0.55
   2  -8  -5    3.77    1.35
  -2   8   6   47.02    2.78
  -2   8   6   46.54    1.87
   2  -8  -6   49.01    2.66
  -2   8   7   37.99    2.67
  -2   8   7   40.08    1.86
   2  -8  -7   37.89    2.43
  -2   8   8    0.82    1.50
  -2   8   8    2.01    0.95
   2  -8  -8    2.34    1.32
  -2   8   9   13.03    1.52
  -2   8   9    8.93    1.88
   2  -8  -9    9.93    1.67
  -2   8  10    1.41    1.57
   2  -8 -10    1.23    0.58
  -2   8  11   -0.62    1.50
   2  -8 -11    0.62    0.41
  -2   8  12    0.27    1.58
   2  -8 -12    0.31    1.13
  -2   8  13    5.03    1.87
   2  -8 -13    6.58    1.71
  -2   8  14   -0.26    1.65
  -2   8  15    2.23    2.19
   3  -9  15   -2.12    2.27
   3  -9  14    9.04    2.37
   3  -9  13    0.13    2.14
   3  -9  12    5.32    1.96
   3  -9  11    5.25    2.15
   3  -9  10   -0.75    1.56
   3  -9   9    0.66    1.58
   3  -9   8   40.40    2.90
   3  -9   7    6.27    1.70
   3  -9   6  138.41    5.45
   3  -9   5   35.51    2.47
   3  -9   4    4.81    1.33
   3  -9   3    1.81    1.22
   3  -9   2    4.97    1.30
  -3   9  -1    1.04    1.22
   3  -9   1    6.34    1.38
  -3   9   0  243.93    8.34
   3  -9   0  240.09    8.14
  -3   9   1    6.41    0.89
  -3   9   1    3.67    1.06
   3  -9  -1    7.08    1.54
  -3   9   2    7.35    1.37
  -3   9   2    3.92    0.73
   3  -9  -2    4.28    1.30
  -3   9   3    1.96    0.60
  -3   9   3    2.09    1.18
   3  -9  -3    0.38    1.10
  -3   9   4    5.16    0.68
  -3   9   4    4.43    1.37
   3  -9  -4    2.37    1.39
  -3   9   5   34.61    1.51
  -3   9   5   35.43    2.41
   3  -9  -5   35.70    2.32
  -3   9   6  136.57    4.57
  -3   9   6  141.43    5.56
   3  -9  -6  140.75    5.42
  -3   9   7    7.86    1.74
  -3   9   7    5.16    0.97
   3  -9  -7    2.04    0.92
  -3   9   8   41.87    2.97
  -3   9   8   37.43    2.06
  -3   9   9   -0.51    1.54
   3  -9  -9    0.50    1.15
  -3   9  10    3.02    1.74
   3  -9 -10   -0.52    1.06
  -3   9  11    2.69    1.70
   3  -9 -11    5.06    1.54
  -3   9  12    1.42    1.71
   3  -9 -12    4.53    1.52
  -3   9  13    1.15    1.77
   3  -9 -13    1.18    1.42
  -3   9  14    7.08    2.13
  -3   9  15   -1.63    1.73
   4 -10  14    4.01    2.20
   4 -10  13   11.87    2.55
   4 -10  12    4.02    2.03
   4 -10  11    2.06    1.76
   4 -10  10   -1.18    1.60
   4 -10   9   14.55    2.52
   4 -10   8   19.42    2.39
   4 -10   7  112.22    4.98
   4 -10   6   41.96    2.89
   4 -10   5   67.70    3.47
   4 -10   4    3.87    1.37
   4 -10   3   27.66    2.30
   4 -10   2    7.00    1.52
  -4  10  -1  160.77    5.98
   4 -10   1  152.52    5.79
  -4  10   0   84.05    3.80
  -4  10   0   81.18    3.26
   4 -10   0   81.89    3.69
  -4  10   1  158.93    5.32
  -4  10   1  154.55    5.87
   4 -10  -1  154.54    5.76
  -4  10   2    8.54    1.55
  -4  10   2    9.08    1.05
   4 -10  -2    8.31    1.57
  -4  10   3   25.58    1.44
  -4  10   3   27.74    2.28
   4 -10  -3   32.20    2.43
  -4  10   4    2.96    0.74
  -4  10   4    2.22    1.31
   4 -10  -4   -0.05    1.15
  -4  10   5   62.80    3.19
  -4  10   5   65.47    2.49
   4 -10  -5   66.86    3.38
  -4  10   6   42.59    1.94
  -4  10   6   40.05    2.87
  -4  10   7  112.59    3.79
  -4  10   7  110.48    4.81
   4 -10  -7   82.62    4.19
  -4  10   8   21.45    2.52
   4 -10  -8   26.73    2.45
  -4  10   9   10.48    2.13
   4 -10  -9   14.12    1.94
  -4  10  10   -1.34    1.56
   4 -10 -10    1.98    1.34
  -4  10  11    0.18    1.61
   4 -10 -11    1.37    1.30
  -4  10  12    0.94    1.70
   4 -10 -12    1.23    1.34
  -4  10  13   10.46    2.34
  -4  10  14    2.14    1.91
   5 -11  14    1.23    2.16
   5 -11  13   16.06    3.04
   5 -11  12    0.37    1.88
   5 -11  11   -0.97    2.02
   5 -11  10    0.37    1.70
   5 -11   9    1.93    1.73
   5 -11   8    4.74    1.85
   5 -11   7   88.76    4.44
   5 -11   6   24.28    2.51
   5 -11   5   22.49    2.33
   5 -11   4    9.18    1.70
   5 -11   3    1.16    1.62
  -5  11  -2   19.44    2.12
   5 -11   2   22.64    2.20
  -5  11  -1   90.37    3.73
  -5  11  -1   88.11    4.14
   5 -11   1   99.55    4.20
  -5  11   0   21.75    1.71
  -5  11   0   25.39    2.31
   5 -11   0   22.01    2.17
  -5  11   1   94.50    3.63
  -5  11   1   91.05    4.12
   5 -11  -1   91.06    4.16
  -5  11   2   21.50    2.17
  -5  11   2   18.90    1.48
   5 -11  -2   23.23    2.15
  -5  11   3    1.57    0.83
  -5  11   3    2.37    1.36
   5 -11  -3    4.28    1.60
  -5  11   4    8.28    1.69
  -5  11   4   10.10    1.13
   5 -11  -4   12.13    1.90
  -5  11   5   21.90    2.27
  -5  11   5   20.55    1.45
  -5  11   6   24.86    2.50
  -5  11   6   20.40    1.54
   5 -11  -6   22.74    2.30
  -5  11   7   81.11    4.31
  -5  11   7   82.70    3.29
   5 -11  -7   89.67    4.09
  -5  11   8    5.41    1.89
   5 -11  -8    6.02    1.62
  -5  11   9    1.26    1.71
   5 -11  -9    1.04    1.46
  -5  11  10   -0.41    1.63
   5 -11 -10    0.19    1.20
  -5  11  11    1.91    1.82
   5 -11 -11    1.54    1.29
  -5  11  12    1.54    1.81
  -5  11  13   10.42    2.37
  -5  11  14    0.12    1.91
   6 -12  13    0.22    2.01
   6 -12  12    3.35    2.38
   6 -12  11    0.96    1.90
   6 -12  10    7.41    2.12
   6 -12   9    6.87    2.02
   6 -12   8    8.45    2.11
   6 -12   7    7.74    2.07
   6 -12   6   35.80    3.00
   6 -12   5   26.43    2.61
   6 -12   4   36.97    2.78
   6 -12   3   15.62    2.12
  -6  12  -2    5.50    1.58
  -6  12  -2    6.23    1.45
   6 -12   2    4.08    1.61
  -6  12  -1   74.65    3.41
  -6  12  -1   82.39    3.95
   6 -12   1   77.14    3.84
  -6  12   0   19.77    2.20
  -6  12   0   18.47    1.75
   6 -12   0   19.63    2.21
  -6  12   1   72.69    3.74
  -6  12   1   77.64    3.24
   6 -12  -1   76.71    3.71
  -6  12   2    4.96    1.59
  -6  12   2    4.80    1.12
   6 -12  -2    5.28    1.76
  -6  12   3   19.24    2.15
  -6  12   3   17.16    1.50
   6 -12  -3   17.93    2.15
  -6  12   4   29.04    1.88
  -6  12   4   31.27    2.66
   6 -12  -4   31.97    2.66
  -6  12   5   25.12    2.57
  -6  12   5   23.56    1.66
   6 -12  -5   12.22    1.77
  -6  12   6   33.29    2.03
  -6  12   6   36.69    3.04
   6 -12  -6   36.54    2.89
  -6  12   7    6.33    1.98
   6 -12  -7    9.06    1.88
  -6  12   8    4.54    1.93
   6 -12  -8    6.20    1.62
  -6  12   9    3.54    1.91
   6 -12  -9    5.10    1.55
  -6  12  10    6.22    1.75
   6 -12 -10   10.49    1.85
  -6  12  11    1.45    1.88
  -6  12  12    1.02    1.86
  -6  12  13    2.52    2.02
   7 -13  13    1.72    2.19
   7 -13  12   -0.49    1.97
   7 -13  11    2.30    2.00
   7 -13  10    2.26    1.94
   7 -13   9    5.70    2.06
   7 -13   8    3.13    1.88
   7 -13   7    6.05    2.02
   7 -13   6    0.26    1.72
   7 -13   5    0.66    1.63
   7 -13   4   50.09    3.31
   7 -13   3   28.81    2.74
  -7  13  -2    1.22    1.51
  -7  13  -2    1.33    1.39
   7 -13   2    0.73    1.64
  -7  13  -1    8.29    1.49
  -7  13  -1    7.79    1.86
   7 -13   1    7.45    1.85
  -7  13   0    3.68    1.16
  -7  13   0    3.81    1.64
   7 -13   0    1.48    1.55
  -7  13   1    8.20    1.79
  -7  13   1    8.46    1.40
   7 -13  -1    6.40    1.75
  -7  13   2   -0.69    0.96
  -7  13   2    0.41    1.49
   7 -13  -2    0.36    1.44
  -7  13   3   27.38    2.55
  -7  13   3   23.89    1.92
   7 -13  -3   28.17    2.45
  -7  13   4   52.76    2.66
  -7  13   4   54.44    3.43
  -7  13   5    2.59    1.17
  -7  13   5    0.37    1.63
   7 -13  -5    2.57    1.73
  -7  13   6   -2.12    1.52
  -7  13   6   -0.32    1.00
   7 -13  -6   -0.47    1.54
  -7  13   7    7.87    2.02
   7 -13  -7    7.54    1.89
  -7  13   8    5.96    2.00
   7 -13  -8    4.45    1.62
  -7  13   9    3.34    1.92
   7 -13  -9    5.30    1.66
  -7  13  10    1.02    1.85
  -7  13  11   -0.12    1.83
  -7  13  12    2.68    2.04
  -7  13  13    2.23    2.05
   8 -14  12    0.06    2.08
   8 -14  11    7.45    2.41
   8 -14  10    1.16    2.02
   8 -14   9    7.82    2.30
   8 -14   8    5.59    2.03
   8 -14   7    5.87    2.06
   8 -14   6    3.99    2.23
   8 -14   5   27.77    2.86
   8 -14   4    0.56    1.72
  -8  14  -3   91.58    4.37
   8 -14   3   80.26    4.37
  -8  14  -2    2.30    1.37
  -8  14  -2    0.94    1.91
   8 -14   2    1.11    2.00
  -8  14  -1   22.10    2.25
  -8  14  -1   24.64    2.85
   8 -14   1   18.71    2.44
  -8  14   0   63.61    3.74
  -8  14   0   58.28    3.10
   8 -14   0   69.87    3.77
  -8  14   1   25.23    2.11
  -8  14   1   20.11    2.47
   8 -14  -1   16.74    2.28
  -8  14   2    0.70    1.66
  -8  14   2    1.43    1.34
   8 -14  -2    4.38    1.70
  -8  14   3   84.72    3.71
  -8  14   3   90.75    4.46
   8 -14  -3   87.36    4.44
  -8  14   4    0.43    1.20
  -8  14   4   -0.82    1.64
   8 -14  -4    1.24    0.96
  -8  14   5   30.09    3.00
  -8  14   5   32.09    2.24
   8 -14  -5   35.12    2.97
  -8  14   6    4.92    1.99
   8 -14  -6    6.41    1.94
  -8  14   7    2.62    1.81
   8 -14  -7    8.82    1.91
  -8  14   8    5.12    1.97
   8 -14  -8    5.33    1.81
  -8  14   9    5.42    1.71
  -8  14  10    1.62    1.87
  -8  14  11   11.89    2.54
  -8  14  12    2.49    2.10
   9 -15  12   -3.84    2.33
   9 -15  11    0.29    2.11
   9 -15  10    8.46    2.48
   9 -15   9    3.63    2.17
   9 -15   8    1.26    1.86
   9 -15   7    7.30    2.18
   9 -15   6    0.52    1.79
   9 -15   5    8.26    2.17
   9 -15   4   12.90    2.41
  -9  15  -3   12.02    2.02
   9 -15   3   11.27    2.25
  -9  15  -2   29.98    2.79
  -9  15  -2   30.12    3.00
   9 -15   2   28.91    2.98
  -9  15  -1   16.87    2.76
  -9  15  -1   18.04    2.10
   9 -15   1   21.10    2.84
  -9  15   0   31.56    2.64
  -9  15   0   33.98    3.09
   9 -15   0   36.35    3.08
  -9  15   1   19.33    2.48
  -9  15   1   16.94    1.87
   9 -15  -1   17.65    2.41
  -9  15   2   27.41    2.31
  -9  15   2   27.29    2.83
   9 -15  -2   26.15    2.68
  -9  15   3   10.52    2.22
  -9  15   3    8.32    1.58
   9 -15  -3    8.18    2.07
  -9  15   4   15.30    2.42
  -9  15   4   13.93    1.76
   9 -15  -4   12.33    2.30
  -9  15   5    8.01    1.58
  -9  15   5   10.32    2.24
   9 -15  -5   10.61    2.16
  -9  15   6   -0.33    1.76
   9 -15  -6   -0.24    1.63
  -9  15   7    5.70    2.01
   9 -15  -7    7.80    1.85
  -9  15   8   -0.72    1.72
  -9  15   9    3.61    2.08
  -9  15  10   10.96    2.50
  -9  15  11    2.61    2.14
  -9  15  12    0.93    2.43
  10 -16  11    1.32    2.25
  10 -16  10    5.93    2.36
  10 -16   9    5.47    2.26
  10 -16   8    1.58    2.01
  10 -16   7    5.50    2.12
  10 -16   6    3.15    1.99
  10 -16   5    3.44    1.95
 -10  16  -4    3.46    1.90
  10 -16   4    4.73    2.05
 -10  16  -3   15.11    2.38
  10 -16   3   17.17    2.61
 -10  16  -2   21.30    2.70
 -10  16  -2   23.59    2.53
  10 -16   2   18.75    2.96
 -10  16  -1   10.03    2.06
 -10  16  -1   11.25    2.33
  10 -16   1   10.88    2.30
 -10  16   0    1.24    1.82
 -10  16   0    0.94    1.31
  10 -16   0    1.53    1.88
 -10  16   1   12.07    2.33
 -10  16   1   10.84    1.93
  10 -16  -1   11.43    2.29
 -10  16   2   18.59    2.17
 -10  16   2   16.02    2.51
  10 -16  -2   23.63    2.84
 -10  16   3   14.33    1.88
 -10  16   3   14.81    2.43
 -10  16   4    3.64    1.41
 -10  16   4    5.38    2.08
  10 -16  -4    1.63    1.90
 -10  16   5    4.15    1.98
 -10  16   5    7.05    1.63
  10 -16  -5    4.25    2.06
 -10  16   6    1.72    1.95
  10 -16  -6    2.64    1.77
 -10  16   7    4.81    2.12
 -10  16   8    0.48    1.83
 -10  16   9    5.02    2.19
 -10  16  10    8.12    2.43
 -10  16  11    1.93    2.08
  11 -17  10    0.85    2.14
  11 -17   9    0.74    2.03
  11 -17   8    3.84    2.11
  11 -17   7    0.72    1.98
  11 -17   6    5.16    2.11
  11 -17   5    0.16    1.85
 -11  17  -4    4.71    1.76
  11 -17   4    5.86    2.13
 -11  17  -3    7.50    2.09
  11 -17   3    5.51    2.44
 -11  17  -2   -1.13    1.67
 -11  17  -2    0.10    2.04
  11 -17   2    0.76    1.97
 -11  17  -1   -1.87    1.60
 -11  17  -1    0.99    1.45
  11 -17   1    2.65    2.35
 -11  17   0    3.13    1.93
 -11  17   0    1.47    1.34
  11 -17   0    1.81    1.93
 -11  17   1    0.21    2.08
 -11  17   1    0.08    1.45
  11 -17  -1   -0.51    2.09
 -11  17   2    2.31    1.89
 -11  17   2    0.36    1.42
  11 -17  -2    0.05    1.99
 -11  17   3    4.41    2.03
 -11  17   3    4.54    1.56
  11 -17  -3    0.02    0.68
 -11  17   4    7.03    2.45
 -11  17   4    4.35    1.65
  11 -17  -4    1.46    1.85
 -11  17   5    2.34    1.91
  11 -17  -5    0.51    1.77
 -11  17   6    1.10    1.88
 -11  17   7    1.53    2.01
 -11  17   8    0.21    2.07
 -11  17   9    4.25    2.24
 -11  17  10    1.92    2.06
  12 -18   9   -0.52    2.05
  12 -18   8   -1.22    1.94
  12 -18   7    6.35    2.68
  12 -18   6    0.95    2.02
  12 -18   5    0.77    2.36
 -12  18  -4    4.96    1.87
  12 -18   4    4.70    2.23
 -12  18  -3    4.13    1.75
  12 -18   3    3.23    2.49
 -12  18  -2   -1.08    1.43
 -12  18  -2    0.28    2.07
  12 -18   2    1.25    2.30
 -12  18  -1    7.15    2.19
 -12  18  -1    7.27    1.76
  12 -18   1    4.43    2.18
 -12  18   0    0.42    1.36
 -12  18   0    0.31    2.20
  12 -18   0    1.68    1.94
 -12  18   1    8.89    1.78
 -12  18   1    7.53    2.46
  12 -18  -1    6.43    2.42
 -12  18   2   -0.20    1.71
 -12  18   2   -1.07    1.42
  12 -18  -2    0.82    2.07
 -12  18   3    1.45    1.83
 -12  18   3    3.43    1.58
  12 -18  -3    2.63    1.84
 -12  18   4    9.19    1.91
 -12  18   4    8.31    2.27
  12 -18  -4    9.28    2.27
 -12  18   5    2.59    1.99
 -12  18   6    2.74    2.13
 -12  18   7    4.87    2.25
 -12  18   8   -2.20    1.99
 -12  18   9   -0.97    2.04
  13 -19   8    2.81    2.25
  13 -19   7   -1.23    2.01
  13 -19   6    3.76    2.33
  13 -19   5    7.27    2.47
 -13  19  -4    1.18    1.69
  13 -19   4    1.03    2.12
 -13  19  -3   11.49    2.46
  13 -19   3    9.85    2.96
 -13  19  -2    1.33    1.75
 -13  19  -2    2.11    1.69
  13 -19   2    3.13    2.56
 -13  19  -1    0.78    1.78
 -13  19  -1   -2.73    2.06
  13 -19   1   -1.73    2.36
 -13  19   0    3.05    1.81
 -13  19   0    6.74    2.57
  13 -19   0    5.50    2.56
 -13  19   1    0.99    1.64
 -13  19   1   -3.18    2.11
  13 -19  -1   -0.72    2.17
 -13  19   2   -0.13    1.56
 -13  19   2    1.46    2.34
  13 -19  -2    1.93    1.96
 -13  19   3   12.19    2.08
 -13  19   3    9.15    2.43
  13 -19  -3   14.08    2.58
 -13  19   4   -0.70    1.90
  13 -19  -4    1.65    2.02
 -13  19   5    4.06    2.56
 -13  19   6    1.52    2.13
 -13  19   7    1.90    2.16
 -13  19   8    0.07    2.09
  14 -20   7   -0.42    2.60
  14 -20   6   -1.60    2.55
  14 -20   5    2.25    2.27
 -14  20  -4    5.88    2.06
  14 -20   4    7.74    2.94
 -14  20  -3    5.20    2.27
  14 -20   3    4.75    2.44
 -14  20  -2    4.63    2.28
 -14  20  -2    0.50    0.72
  14 -20   2    5.11    2.77
 -14  20  -1    2.20    1.65
 -14  20  -1    0.79    2.29
  14 -20   1    1.53    2.59
 -14  20   0   -0.91    1.70
 -14  20   0   -2.40    2.19
  14 -20   0   -2.23    1.95
 -14  20   1    1.38    2.01
 -14  20   1    1.93    1.86
  14 -20  -1   -0.87    2.29
 -14  20   2    5.26    1.90
 -14  20   2    1.93    2.08
  14 -20  -2    1.03    0.99
 -14  20   3    4.22    2.27
  14 -20  -3    4.48    2.41
 -14  20   4    7.88    2.47
 -14  20   5   -2.14    2.38
 -14  20   6    1.14    2.09
 -14  20   7    0.32    2.19
  15 -21   5   -2.97    2.10
 -15  21  -4    3.28    1.94
  15 -21   4    0.68    2.34
 -15  21  -3    0.90    1.74
  15 -21   3   -2.53    2.18
 -15  21  -2    0.55    1.79
  15 -21   2    0.27    2.16
 -15  21  -1    2.18    2.35
 -15  21  -1   -1.00    1.53
  15 -21   1   -1.87    2.52
 -15  21   0    4.87    2.26
 -15  21   0    3.79    1.77
  15 -21   0    1.06    2.21
 -15  21   1    0.07    1.55
 -15  21   1    3.05    2.48
  15 -21  -1    2.64    2.49
 -15  21   2    3.01    2.21
 -15  21   2    2.55    1.86
  15 -21  -2   -2.37    1.30
 -15  21   3    0.31    2.05
 -15  21   4    3.74    2.30
 -15  21   5   -0.17    2.53
 -16  22  -2   -0.70    1.70
  16 -22   2   -1.26    2.67
 -16  22  -1    1.59    1.87
  16 -22   1    1.16    2.76
 -16  22   0    4.38    2.59
 -16  22   0    0.10    1.91
  16 -22   0   -1.11    2.14
 -16  22   1    3.43    2.30
 -16  22   1    2.66    2.04
  16 -22  -1    1.95    2.47
 -16  22   2   -0.05    2.52
 -22  15   3    4.22    2.37
 -22  15   2    3.49    2.31
 -22  15   1    1.89    2.20
 -22  15   0    3.83    2.27
 -22  15  -1    0.56    2.33
 -22  15  -2   -0.74    2.08
 -22  15  -3    4.61    2.49
 -21  14   6    0.12    1.97
 -21  14   6    2.13    2.18
 -21  14   5    0.91    2.12
 -21  14   4    0.78    2.55
 -21  14   3    6.06    2.40
 -21  14   2    2.66    2.27
 -21  14   1    0.59    2.10
 -21  14   0    1.27    2.13
 -21  14  -1    1.79    2.11
 -21  14  -2    4.57    2.35
  21 -14   3    0.16    0.87
 -21  14  -3    4.57    2.41
  21 -14   4    3.34    2.02
 -21  14  -4    2.34    2.23
  21 -14   5    4.30    2.29
 -21  14  -5    0.98    2.12
  21 -14   6   -0.16    1.74
 -21  14  -6   -0.34    2.39
 -20  13   7    0.94    1.67
 -20  13   7    0.18    2.10
 -20  13   6    1.18    1.61
 -20  13   6   -2.46    1.85
 -20  13   5    2.80    2.57
 -20  13   5    3.18    1.71
 -20  13   4    2.93    2.62
 -20  13   4    3.19    1.89
 -20  13   3   -1.93    1.91
 -20  13   2    2.82    2.18
 -20  13   1   -0.36    1.94
 -20  13   0    6.18    2.36
 -20  13  -1    1.15    2.04
  20 -13   2   -1.06    1.62
 -20  13  -2    1.03    1.98
  20 -13   3    2.92    1.68
 -20  13  -3    0.75    2.09
  20 -13   4    2.43    1.75
 -20  13  -4    4.20    2.21
  20 -13   5    0.90    1.99
 -20  13  -5    0.90    2.04
  20 -13   6   -0.50    2.02
 -20  13  -6   -0.40    1.98
  20 -13   7   -1.39    2.08
 -20  13  -7   -0.86    2.02
 -19  12   9    1.39    2.72
 -19  12   9    2.50    1.87
 -19  12   8    1.70    2.17
 -19  12   8    2.75    2.10
 -19  12   7    4.98    1.88
 -19  12   7    0.41    2.17
 -19  12   6    2.44    1.89
 -19  12   6   -0.64    2.03
 -19  12   5    3.55    2.22
 -19  12   5    2.91    1.79
 -19  12   4    3.00    1.44
 -19  12   4    0.11    2.05
 -19  12   3    3.52    1.77
 -19  12   3    0.12    1.94
 -19  12   2   -2.56    1.77
 -19  12   1    8.53    2.44
 -19  12   0   -0.60    2.31
  19 -12   1    4.42    1.65
 -19  12  -1    5.18    2.54
  19 -12   2    0.19    1.63
 -19  12  -2    2.17    2.03
  19 -12   3    1.48    1.78
 -19  12  -3    3.11    2.10
  19 -12   4    2.40    1.90
 -19  12  -4    0.16    2.00
  19 -12   5    1.03    1.93
 -19  12  -5    1.52    2.07
  19 -12   6    3.88    2.21
 -19  12  -6    2.96    2.10
  19 -12   7    4.77    2.03
 -19  12  -7    2.73    2.21
  19 -12   8    1.13    1.89
 -19  12  -8    3.02    2.26
  19 -12   9   -0.40    1.91
 -19  12  -9   -1.12    2.01
 -18  11  10    0.83    2.22
 -18  11   9    1.90    2.22
 -18  11   8   -1.08    2.05
 -18  11   7    4.18    2.30
 -18  11   6    5.57    1.74
 -18  11   6    6.05    2.26
 -18  11   5    2.12    1.44
 -18  11   5    0.69    2.05
 -18  11   4    1.11    0.63
 -18  11   4   -0.17    1.88
 -18  11   3    1.78    1.39
 -18  11   3    1.25    2.03
 -18  11   2    1.15    1.31
 -18  11   2   -1.39    2.18
 -18  11   1    4.25    2.06
  18 -11   0    0.43    1.40
 -18  11   0    4.39    2.16
  18 -11   1   -0.30    1.56
 -18  11  -1    7.73    2.26
  18 -11   2    2.35    1.31
 -18  11  -2    5.72    2.17
  18 -11   3    3.58    1.73
 -18  11  -3    1.51    1.90
  18 -11   4   -0.92    1.39
 -18  11  -4   -0.73    1.87
  18 -11   5    1.87    1.86
 -18  11  -5   -0.05    1.98
 -18  11  -5   -1.23    1.71
  18 -11   6    4.47    2.16
 -18  11  -6    5.37    2.56
 -18  11  -6    4.69    2.13
  18 -11   7    8.70    2.19
 -18  11  -7    8.83    2.52
 -18  11  -7    4.58    2.00
  18 -11   8    2.64    2.20
 -18  11  -8    1.45    2.16
 -18  11  -8   -0.35    1.89
  18 -11   9    2.30    1.91
 -18  11  -9   -1.12    1.65
 -18  11  -9    2.30    2.11
  18 -11  10    1.63    1.95
 -18  11 -10    1.31    2.60
 -18  11 -10   -0.44    1.77
 -17  10  11    1.87    2.26
 -17  10  10    2.21    2.62
 -17  10   9    1.29    2.12
 -17  10   8    1.99    2.14
 -17  10   7   -1.34    2.32
 -17  10   6   12.87    2.66
 -17  10   5    0.77    2.28
 -17  10   4   -1.59    1.82
 -17  10   3    0.31    1.82
 -17  10   3    3.33    1.43
 -17  10   2    0.04    1.19
 -17  10   2   -0.15    1.88
 -17  10   1    1.11    1.98
 -17  10   1    1.05    1.14
  17 -10   0    5.52    1.58
 -17  10   0    4.40    2.07
  17 -10   1    3.48    1.48
 -17  10  -1    2.96    2.10
  17 -10   2    0.79    0.64
 -17  10  -2    2.33    1.98
 -17  10  -2   -1.18    1.37
 -17  10  -3   -0.36    1.51
 -17  10  -3    1.23    1.87
 -17  10  -4   -1.81    1.47
 -17  10  -4    0.61    1.92
 -17  10  -5   -1.56    1.31
 -17  10  -5   -1.72    1.69
 -17  10  -6   10.02    2.28
 -17  10  -6   10.63    2.39
 -17  10  -7    2.79    2.02
 -17  10  -7   -2.61    1.78
 -17  10  -8    3.83    2.10
 -17  10  -8    1.99    1.79
 -17  10  -9    2.33    2.10
 -17  10  -9    0.89    1.75
 -17  10 -10    3.51    2.28
 -17  10 -10    0.35    1.76
 -17  10 -11   -2.05    2.11
 -17  10 -11    3.02    2.26
 -16   9  11    2.00    2.18
 -16   9  10    1.13    2.13
 -16   9   9    3.89    2.21
 -16   9   8    1.63    2.41
 -16   9   7    1.74    2.07
 -16   9   6   10.81    2.50
 -16   9   5    4.04    2.17
 -16   9   4    0.76    1.98
 -16   9   3   10.08    2.43
 -16   9   2    0.14    1.97
  16  -9  -1    8.20    1.49
 -16   9   1    6.55    2.25
 -16   9   1    8.87    1.44
  16  -9   0    8.48    1.62
 -16   9   0   10.27    2.45
 -16   9   0    8.53    1.39
 -16   9  -1    7.05    2.28
 -16   9  -1    8.76    1.64
 -16   9  -2    6.14    1.69
 -16   9  -2    5.68    2.25
 -16   9  -3   14.82    2.60
 -16   9  -3   13.01    1.89
 -16   9  -4    0.14    1.58
 -16   9  -4    1.73    1.94
 -16   9  -5    2.85    1.97
 -16   9  -5    4.06    1.82
 -16   9  -6    9.54    2.21
 -16   9  -6   10.39    2.33
 -16   9  -7    6.22    2.11
 -16   9  -7    0.98    1.57
 -16   9  -8   -1.31    1.64
 -16   9  -8   -1.37    1.75
 -16   9  -9    2.96    1.85
 -16   9  -9    1.76    1.91
 -16   9 -10    0.28    2.00
 -16   9 -10    1.33    1.72
 -16   9 -11    2.29    1.94
 -16   9 -11    1.12    1.91
 -15   8  12    3.43    2.74
 -15   8  11    4.00    2.75
 -15   8  10    2.46    2.17
 -15   8   9   -2.76    1.80
 -15   8   8   -2.05    2.15
 -15   8   7    2.69    1.97
 -15   8   6    2.14    2.10
 -15   8   5    0.54    1.94
 -15   8   4   14.64    2.67
 -15   8   3   18.49    2.70
  15  -8  -2    1.23    1.06
 -15   8   2    3.06    2.00
  15  -8  -1   19.68    1.74
 -15   8   1   22.14    2.90
 -15   8   1   15.88    1.66
 -15   8   0   -0.62    1.79
 -15   8   0    1.15    1.05
 -15   8   0    0.76    1.14
 -15   8  -1   19.21    1.58
 -15   8  -1   18.02    1.94
 -15   8  -1   18.54    2.72
 -15   8  -2   -0.08    1.85
 -15   8  -2    5.23    1.35
 -15   8  -3   15.16    1.90
 -15   8  -3   17.10    2.65
 -15   8  -4   15.57    2.03
 -15   8  -4   16.13    2.64
 -15   8  -5    1.89    1.49
 -15   8  -5    0.62    1.83
 -15   8  -6    1.10    1.77
 -15   8  -6    1.65    1.53
 -15   8  -7    1.91    1.84
 -15   8  -7    0.42    1.50
 -15   8  -8    1.56    1.59
 -15   8  -8    1.77    1.78
 -15   8  -9   -1.02    1.81
 -15   8  -9    1.76    2.11
 -15   8 -10    4.87    2.17
 -15   8 -10    2.14    1.85
 -15   8 -11    0.35    2.17
 -15   8 -11   -2.03    1.66
 -15   8 -12    1.38    2.16
 -14   7  13    1.04    2.22
 -14   7  12   -0.22    2.55
 -14   7  11    4.82    2.34
 -14   7  10    2.74    2.08
 -14   7   9   -0.38    1.95
 -14   7   8    0.80    1.93
 -14   7   7    9.38    2.33
 -14   7   6    0.31    1.92
 -14   7   5    2.34    2.02
 -14   7   4   49.65    3.68
 -14   7   3   20.47    2.75
 -14   7   2    4.62    2.00
 -14   7   2    7.98    1.13
 -14   7   1   22.14    2.74
 -14   7   1   25.31    1.85
 -14   7   0   32.44    3.18
 -14   7   0   29.67    2.05
 -14   7  -1   23.48    2.03
 -14   7  -1   22.58    1.49
 -14   7  -1   24.61    2.84
 -14   7  -2    7.07    1.55
 -14   7  -2    4.90    1.98
 -14   7  -3   17.26    2.00
 -14   7  -3   14.60    2.43
 -14   7  -4   53.59    3.28
 -14   7  -4   49.82    3.65
 -14   7  -5    3.29    1.58
 -14   7  -5   -1.64    1.66
 -14   7  -6   -1.30    1.41
 -14   7  -6    2.81    1.80
 -14   7  -7    6.23    1.83
 -14   7  -7    8.05    2.13
 -14   7  -8    0.35    1.64
 -14   7  -8    0.41    1.52
 -14   7  -9   -1.30    1.54
 -14   7  -9   -0.29    1.58
 -14   7 -10    5.62    2.07
 -14   7 -10    2.36    1.77
 -14   7 -11    2.92    1.86
 -14   7 -12   -0.76    1.67
 -14   7 -13    1.78    1.91
 -13   6  13    1.94    2.31
 -13   6  12    3.07    2.26
 -13   6  11    1.37    2.07
 -13   6  10    3.78    2.13
 -13   6   9    3.04    2.08
 -13   6   8    7.77    2.28
 -13   6   7    6.28    2.19
 -13   6   6   -0.52    1.81
 -13   6   5    0.10    1.80
 -13   6   4   50.30    3.55
 -13   6   3   30.16    2.97
 -13   6   2    0.64    0.80
 -13   6   2    2.52    1.79
 -13   6   1    6.94    1.12
 -13   6   1    6.12    1.94
 -13   6   0    3.71    1.84
 -13   6   0    5.27    1.19
 -13   6  -1    7.74    1.23
 -13   6  -1    6.87    2.01
 -13   6  -2    0.48    0.58
 -13   6  -2    1.54    1.67
 -13   6  -2    1.40    1.20
 -13   6  -3   29.22    2.29
 -13   6  -3   24.70    2.78
 -13   6  -4   54.87    3.23
 -13   6  -4   54.09    3.63
 -13   6  -5    1.80    2.06
 -13   6  -5    2.17    1.62
 -13   6  -6    1.40    1.45
 -13   6  -6    0.87    1.92
 -13   6  -7   11.39    2.19
 -13   6  -7    7.51    1.84
 -13   6  -8    7.61    1.89
 -13   6  -8    6.77    1.96
 -13   6  -9    2.44    1.63
 -13   6  -9    4.81    1.90
 -13   6 -10    4.77    1.91
 -13   6 -10    1.94    1.66
 -13   6 -11    0.17    1.68
 -13   6 -12    1.40    1.84
 -13   6 -13    3.90    2.08
 -12   5  13    2.89    2.40
 -12   5  12    6.48    2.52
 -12   5  11    7.95    2.42
 -12   5  10    7.13    2.63
 -12   5   9   15.55    2.59
 -12   5   8   10.05    2.31
 -12   5   7   17.34    2.59
 -12   5   6    6.92    2.07
 -12   5   5   18.74    2.54
  12  -5  -4    5.52    0.54
 -12   5   4    2.95    1.77
 -12   5   3   56.97    2.17
 -12   5   3   58.67    3.57
 -12   5   2    0.02    1.54
 -12   5   2    0.26    0.69
 -12   5   1   78.66    3.09
 -12   5   1   80.39    3.93
 -12   5   0   54.75    2.54
 -12   5   0   51.59    3.34
 -12   5  -1   77.57    4.16
 -12   5  -1   83.17    3.41
 -12   5  -2   -0.19    1.09
 -12   5  -2    0.47    1.40
 -12   5  -3   58.44    3.51
 -12   5  -3   54.42    2.85
 -12   5  -4    5.19    1.36
 -12   5  -4    7.45    1.83
 -12   5  -5   16.14    1.99
 -12   5  -5   21.82    2.73
 -12   5  -6   12.79    1.90
 -12   5  -6   10.90    2.07
 -12   5  -7   18.49    2.65
 -12   5  -7   13.17    2.09
 -12   5  -8    7.00    1.86
 -12   5  -8    9.14    2.11
 -12   5  -9   11.44    2.29
 -12   5  -9   11.61    2.31
 -12   5 -10    5.84    1.88
 -12   5 -10    8.70    2.08
 -12   5 -11    8.29    2.08
 -12   5 -12    3.51    2.17
 -12   5 -13    3.11    1.90
 -11   4  14    0.49    2.69
 -11   4  13   -1.16    2.08
 -11   4  12    5.99    2.76
 -11   4  11    0.35    2.01
 -11   4  10   28.00    3.43
 -11   4   9   -2.15    1.77
 -11   4   8   24.44    2.91
 -11   4   7    2.82    1.91
 -11   4   6   17.82    2.42
 -11   4   5    1.37    1.64
 -11   4   4    7.40    1.84
 -11   4   4    8.45    0.62
 -11   4   3    5.35    0.71
 -11   4   3    4.02    1.59
 -11   4   2   16.05    2.15
 -11   4   2   15.97    1.18
 -11   4   1    8.43    1.87
 -11   4   1   11.30    1.08
 -11   4   0  205.76    6.76
 -11   4   0  210.04    7.74
 -11   4  -1   10.46    1.30
 -11   4  -1   10.78    1.87
 -11   4  -2   14.93    1.59
 -11   4  -2   17.47    2.12
 -11   4  -3    4.21    1.48
 -11   4  -3    3.67    1.25
 -11   4  -4   10.13    1.53
 -11   4  -4    6.72    1.64
 -11   4  -5   -1.06    1.29
 -11   4  -5    0.15    1.17
 -11   4  -6   20.25    2.51
 -11   4  -6   18.37    2.16
 -11   4  -7    5.01    1.66
 -11   4  -7    9.27    2.10
 -11   4  -8   25.05    2.71
 -11   4  -8   26.60    2.68
 -11   4  -9   -0.05    1.51
 -11   4  -9    1.20    1.85
 -11   4 -10   21.36    2.56
 -11   4 -11    2.42    1.71
 -11   4 -12    6.45    2.03
 -11   4 -13    4.26    2.03
 -11   4 -14    3.57    2.34
 -10   3  14    1.82    2.76
 -10   3  13    8.57    2.92
 -10   3  12    4.52    2.30
 -10   3  11    7.68    2.39
 -10   3  10    5.26    2.18
 -10   3   9    7.51    2.55
 -10   3   8   22.38    2.78
 -10   3   7   73.86    4.13
 -10   3   6    6.45    1.90
 -10   3   5   40.87    2.90
 -10   3   4    6.50    0.59
 -10   3   4    5.49    1.68
 -10   3   3   69.65    2.43
 -10   3   3   66.85    3.55
 -10   3   2   19.38    2.14
 -10   3   2   17.76    1.18
 -10   3   1   78.19    2.93
 -10   3   1   76.54    3.78
 -10   3   0  125.42    4.39
 -10   3   0  126.20    5.19
 -10   3  -1   76.96    3.08
 -10   3  -1   76.67    3.73
 -10   3  -2   16.53    1.52
 -10   3  -2   21.87    2.18
 -10   3  -3   70.53    3.48
 -10   3  -3   64.72    3.00
 -10   3  -4    6.74    1.50
 -10   3  -4    9.48    1.42
 -10   3  -5   49.93    2.97
 -10   3  -5   41.48    2.60
 -10   3  -6    6.63    1.54
 -10   3  -6    7.54    1.82
 -10   3  -7   76.03    4.01
 -10   3  -7   70.62    3.76
 -10   3  -8   14.14    2.09
 -10   3  -8   14.94    2.33
 -10   3  -9    3.11    1.83
 -10   3  -9    3.80    1.96
 -10   3 -10    2.80    1.66
 -10   3 -11    5.19    1.84
 -10   3 -12    3.89    1.83
 -10   3 -13    3.68    1.89
 -10   3 -14    2.94    1.89
  -9   2  14    2.31    2.64
  -9   2  13    8.03    2.54
  -9   2  12   10.85    2.54
  -9   2  11    0.41    1.92
  -9   2  10   -0.74    1.84
  -9   2   9    2.47    2.00
  -9   2   8   21.09    2.70
  -9   2   7   44.32    3.21
  -9   2   6   25.27    2.50
  -9   2   6   20.75    0.96
  -9   2   5    9.69    1.85
  -9   2   5    8.79    0.65
  -9   2   4  117.45    4.89
  -9   2   4  114.68    3.67
  -9   2   3   35.84    2.58
  -9   2   3   40.10    1.63
  -9   2   2    3.81    1.14
  -9   2   2    2.63    0.66
  -9   2   1   57.71    3.09
  -9   2   1   56.37    2.28
  -9   2   0   20.32    1.41
  -9   2   0   23.74    2.19
  -9   2  -1   57.20    3.02
  -9   2  -1   55.23    2.50
  -9   2  -2    2.61    1.39
  -9   2  -2    3.29    0.91
  -9   2  -3   42.34    2.41
  -9   2  -3   43.37    2.72
  -9   2  -4  120.37    4.85
  -9   2  -4  113.54    4.52
  -9   2  -5    8.67    1.43
  -9   2  -5    7.23    1.60
   9  -2   6   21.34    1.16
  -9   2  -6   26.78    2.40
  -9   2  -6   23.61    2.14
   9  -2   7   37.76    1.76
  -9   2  -7   40.40    2.65
  -9   2  -7   38.05    2.66
  -9   2  -8   22.81    2.35
  -9   2  -8   21.53    2.37
  -9   2  -9   -0.44    1.50
  -9   2  -9   -0.99    1.36
  -9   2 -10    0.67    1.58
  -9   2 -11    0.84    1.53
  -9   2 -12    6.04    1.94
  -9   2 -13    8.21    2.13
  -9   2 -14    4.94    1.98
  -8   1  15    0.97    2.71
  -8   1  14    7.46    2.88
  -8   1  13    1.92    2.20
  -8   1  12    0.20    2.28
  -8   1  11    4.59    2.09
  -8   1  10   13.44    2.49
  -8   1   9   21.76    2.77
  -8   1   8   10.74    1.23
  -8   1   8   16.34    2.38
  -8   1   7   41.39    3.08
  -8   1   7   43.92    1.99
  -8   1   6   14.41    1.12
  -8   1   6   15.53    2.09
  -8   1   5   23.38    2.27
  -8   1   5   22.12    1.28
  -8   1   4  172.98    6.52
  -8   1   4  176.05    5.46
  -8   1   3   26.23    1.34
  -8   1   3   27.33    2.16
  -8   1   2    5.04    0.77
  -8   1   2    9.99    1.59
  -8   1   1  100.85    3.61
  -8   1   1  107.91    4.33
  -8   1   0   13.81    1.25
  -8   1   0   13.93    1.69
  -8   1  -1  100.81    4.20
  -8   1  -1  105.09    3.80
  -8   1  -2    7.04    1.32
  -8   1  -2    6.28    1.06
  -8   1  -3   22.06    1.95
  -8   1  -3   22.03    1.63
  -8   1  -4  174.60    6.43
  -8   1  -4  182.53    6.29
   8  -1   5   20.35    1.21
  -8   1  -5   22.53    1.95
  -8   1  -5   24.45    2.02
   8  -1   6   15.50    1.21
  -8   1  -6   17.57    1.85
  -8   1  -6   15.38    1.78
   8  -1   7   47.66    2.15
  -8   1  -7   47.76    2.86
   8  -1   8   15.04    1.41
  -8   1  -8   13.45    1.94
   8  -1   9   21.41    1.77
  -8   1  -9   24.05    2.50
  -8   1 -10   11.45    2.12
  -8   1 -11    3.24    1.61
  -8   1 -12    0.98    1.58
  -8   1 -13    2.66    1.72
  -8   1 -14    3.63    2.11
  -8   1 -15   -0.63    1.59
  -7   0  15    0.20    2.23
  -7   0  14    1.87    2.52
  -7   0  13   -1.19    2.34
  -7   0  12    3.52    2.08
  -7   0  11    1.05    1.93
  -7   0  10    2.83    2.02
  -7   0   9   26.43    1.96
  -7   0   9   25.99    2.86
  -7   0   8   13.22    1.45
  -7   0   8   11.69    2.18
  -7   0   7    1.49    0.98
  -7   0   7    0.05    1.48
  -7   0   6   13.70    1.26
  -7   0   6   15.03    2.02
  -7   0   5   76.79    3.65
  -7   0   5   72.63    2.79
  -7   0   4  268.88    8.41
  -7   0   4  280.46    9.39
  -7   0   3   23.76    1.38
  -7   0   3   25.88    2.11
  -7   0   2   41.28    2.40
  -7   0   2   43.12    1.88
  -7   0   1    0.64    0.99
  -7   0   1    0.13    0.62
  -7   0   0    2.36    1.18
  -7   0   0    2.18    0.68
  -7   0  -1   -0.27    1.09
  -7   0  -1    0.62    0.69
  -7   0  -2   43.65    2.09
  -7   0  -2   39.72    2.34
  -7   0  -3   17.43    1.55
   7   0   4  273.65    8.30
  -7   0  -4  258.43    8.71
   7   0   5   66.97    2.56
  -7   0  -5   64.82    3.06
  -7   0  -5   62.71    2.93
   7   0   6   13.73    1.23
  -7   0  -6   14.16    1.58
  -7   0  -6   13.64    1.66
   7   0   7   -0.23    0.86
  -7   0  -7    0.00    1.08
  -7   0  -7   -0.03    1.16
   7   0   8   12.20    1.41
  -7   0  -8   13.06    1.89
   7   0   9   27.51    2.00
  -7   0  -9   23.42    2.58
   7   0  10    6.00    1.42
  -7   0 -10    2.93    1.62
  -7   0 -11    2.99    1.71
  -7   0 -12   -0.95    1.37
  -7   0 -13    0.90    1.60
  -7   0 -14    4.76    1.89
  -7   0 -15   -2.65    1.41
  -6  -1  15   -0.41    2.15
  -6  -1  14    1.73    2.53
  -6  -1  13    4.89    2.28
  -6  -1  12   -1.36    1.89
  -6  -1  11    6.95    2.27
  -6  -1  10    1.32    1.44
  -6  -1  10    5.13    2.48
  -6  -1   9   32.92    3.14
  -6  -1   9   30.26    2.15
  -6  -1   8   10.38    2.10
  -6  -1   8   12.22    1.48
  -6  -1   7   42.20    2.22
  -6  -1   7   46.06    3.02
  -6  -1   6    3.24    1.02
  -6  -1   6    3.42    1.47
  -6  -1   5  113.76    4.01
  -6  -1   5  112.91    4.69
  -6  -1   4   34.56    2.32
  -6  -1   4   35.27    1.85
  -6  -1   3  147.13    5.45
  -6  -1   3  146.96    4.88
  -6  -1   2    4.30    1.11
  -6  -1   2    3.94    0.86
  -6  -1   1   53.53    2.27
  -6  -1   1   52.46    2.54
  -6  -1   0   85.10    3.44
  -6  -1   0   86.41    3.22
  -6  -1  -1   53.44    2.46
  -6  -1  -1   54.03    2.33
  -6  -1  -2    1.24    0.79
  -6  -1  -2    0.59    0.52
   6   1   3  140.13    4.72
  -6  -1  -3  145.85    5.03
  -6  -1  -3  137.04    4.98
   6   1   4   33.26    1.77
  -6  -1  -4   34.98    1.94
  -6  -1  -4   36.40    2.11
   6   1   5  113.49    3.88
  -6  -1  -5  104.51    4.07
  -6  -1  -5  102.87    4.24
   6   1   6    2.69    0.88
  -6  -1  -6    3.79    1.20
  -6  -1  -6    4.30    1.09
   6   1   7   46.32    2.31
  -6  -1  -7   43.74    2.69
  -6  -1  -7   43.83    2.37
   6   1   8    8.93    1.36
  -6  -1  -8    9.93    1.70
   6   1   9   30.99    2.23
  -6  -1  -9   29.74    2.64
   6   1  10    3.19    1.36
  -6  -1 -10    2.02    1.49
   6   1  11    8.76    1.73
  -6  -1 -11    5.55    1.75
   6   1  12    1.48    1.41
  -6  -1 -12    3.18    1.65
  -6  -1 -13    4.62    1.77
  -6  -1 -14    0.74    1.85
  -6  -1 -15   -0.02    1.64
  -5  -2  15   -0.31    2.08
  -5  -2  14    4.56    2.38
  -5  -2  13    0.67    1.95
  -5  -2  12    2.98    2.08
  -5  -2  11    6.42    1.67
  -5  -2  11    4.02    2.11
  -5  -2  10   20.79    2.81
  -5  -2  10   18.55    2.02
  -5  -2   9   14.19    1.78
  -5  -2   9   12.66    2.31
  -5  -2   8   25.95    2.72
  -5  -2   8   28.34    2.11
  -5  -2   7    1.59    1.48
  -5  -2   7    3.25    1.17
  -5  -2   6   13.58    1.89
  -5  -2   6   17.95    1.55
  -5  -2   5   13.11    1.74
  -5  -2   5   13.48    1.41
  -5  -2   4    3.55    1.06
  -5  -2   4    3.41    1.23
  -5  -2   3   34.95    2.09
  -5  -2   3   34.80    1.86
  -5  -2   2   51.70    2.30
  -5  -2   2   47.98    2.42
  -5  -2   1   46.94    2.37
  -5  -2   1   47.25    2.15
  -5  -2   0  259.25    8.26
  -5  -2   0  264.95    8.48
  -5  -2  -1   40.22    2.08
  -5  -2  -1   46.24    2.10
  -5  -2  -2   39.37    1.97
  -5  -2  -2   43.09    2.08
   5   2   3   31.94    1.78
  -5  -2  -3   40.33    2.05
  -5  -2  -3   37.40    1.85
   5   2   4    5.67    1.03
  -5  -2  -4    5.44    0.95
  -5  -2  -4    6.99    1.18
   5   2   5   13.85    1.34
  -5  -2  -5   12.78    1.23
  -5  -2  -5   13.87    1.55
   5   2   6   17.18    1.50
  -5  -2  -6   18.28    1.85
  -5  -2  -6   15.08    1.38
   5   2   7    1.32    0.98
  -5  -2  -7    1.79    1.15
   5   2   8   25.02    2.01
  -5  -2  -8   24.55    2.32
   5   2   9   11.54    1.65
  -5  -2  -9    9.20    1.78
   5   2  10   18.37    2.04
  -5  -2 -10   15.12    2.28
   5   2  11    1.91    1.43
  -5  -2 -11    3.23    1.52
   5   2  12    4.11    1.61
  -5  -2 -12    0.09    1.32
   5   2  13    2.22    1.58
  -5  -2 -13    0.19    1.72
  -5  -2 -14    4.70    1.77
  -5  -2 -15    0.89    1.83
  -4  -3  15    2.45    2.67
  -4  -3  14    4.94    2.37
  -4  -3  13   10.05    2.55
  -4  -3  12   -1.81    1.52
  -4  -3  12    0.60    1.95
  -4  -3  11    5.33    2.12
  -4  -3  11    7.01    1.82
  -4  -3  10   12.79    2.35
  -4  -3  10   15.18    1.95
  -4  -3   9    5.80    1.45
  -4  -3   9    2.90    1.83
  -4  -3   8    8.44    1.46
  -4  -3   8    9.67    1.96
  -4  -3   7   30.02    2.62
  -4  -3   7   28.64    2.01
  -4  -3   6   16.04    1.55
  -4  -3   6   13.92    1.87
  -4  -3   5   81.33    3.72
  -4  -3   5   81.16    3.28
  -4  -3   4    6.92    1.20
  -4  -3   4    6.17    1.34
  -4  -3   3   40.78    2.20
  -4  -3   3   40.07    2.10
  -4  -3   2    8.86    1.31
  -4  -3   2    7.92    1.12
  -4  -3   1  169.13    5.78
  -4  -3   1  173.06    5.75
  -4  -3   0   15.07    1.17
  -4  -3  -1  176.25    5.85
  -4  -3  -1  177.62    5.94
   4   3   2   11.58    1.26
  -4  -3  -2    8.91    0.99
  -4  -3  -2    8.84    1.20
   4   3   3   38.32    2.05
  -4  -3  -3   42.69    2.17
  -4  -3  -3   41.68    1.80
   4   3   4    7.06    1.14
  -4  -3  -4    4.65    0.76
  -4  -3  -4    2.72    0.99
   4   3   5   76.79    3.12
  -4  -3  -5   74.48    2.79
  -4  -3  -5   74.37    3.30
   4   3   6   16.33    1.56
  -4  -3  -6   15.40    1.72
   4   3   7   29.93    2.03
  -4  -3  -7   32.02    2.51
   4   3   8    7.93    1.44
  -4  -3  -8    6.19    1.50
   4   3   9    6.54    1.57
  -4  -3  -9    6.52    1.64
   4   3  10   13.04    1.76
  -4  -3 -10    8.96    1.84
   4   3  11    5.13    1.49
  -4  -3 -11    4.98    1.61
   4   3  12   -1.98    1.37
  -4  -3 -12    1.00    1.60
   4   3  13   16.02    2.27
  -4  -3 -13   15.97    2.32
   4   3  14   -0.11    1.69
  -4  -3 -14    0.50    1.43
  -4  -3 -15    2.66    1.69
  -3  -4  15    0.59    2.58
  -3  -4  14    3.96    2.25
  -3  -4  13    8.63    2.28
  -3  -4  13   17.63    3.14
  -3  -4  12   -0.78    1.51
  -3  -4  12    0.24    1.84
  -3  -4  11    5.50    1.75
  -3  -4  11    4.29    2.06
  -3  -4  10   11.78    1.86
  -3  -4  10    8.77    2.19
  -3  -4   9    4.29    1.49
  -3  -4   8    4.70    1.38
  -3  -4   7   33.27    2.06
  -3  -4   6   16.10    1.67
  -3  -4   5   79.13    3.31
  -3  -4   4    2.83    1.14
  -3  -4   4    2.63    1.27
  -3  -4   3   39.83    2.15
  -3  -4   3   40.10    2.20
  -3  -4   2    8.68    1.39
  -3  -4   2    8.66    1.16
  -3  -4   1  112.70    4.00
  -3  -4   0   31.02    1.66
  -3  -4   0   30.97    2.09
   3   4   1  176.54    5.92
  -3  -4  -1  176.62    5.95
  -3  -4  -1  168.04    5.60
   3   4   2    9.12    1.20
  -3  -4  -2   10.10    0.90
  -3  -4  -2    8.66    1.21
   3   4   3   42.09    2.16
  -3  -4  -3   39.94    2.14
  -3  -4  -3   38.17    1.55
   3   4   4    2.03    0.90
  -3  -4  -4    6.72    1.18
  -3  -4  -4    5.37    0.60
   3   4   5   71.08    3.02
  -3  -4  -5   72.42    3.22
   3   4   6   18.11    1.72
  -3  -4  -6   17.17    1.88
   3   4   7   29.16    2.10
  -3  -4  -7   27.46    2.28
   3   4   8    8.34    1.58
  -3  -4  -8    6.54    1.51
   3   4   9    7.06    1.69
  -3  -4  -9    4.46    1.69
   3   4  10   10.46    1.96
  -3  -4 -10   11.39    1.94
   3   4  11    5.62    1.79
  -3  -4 -11    6.49    1.89
   3   4  12   -1.75    1.49
  -3  -4 -12    1.01    1.57
   3   4  13   11.71    2.02
  -3  -4 -13   11.95    2.07
   3   4  14   -0.20    1.69
  -3  -4 -14    3.32    1.84
   3   4  15    1.51    1.62
  -3  -4 -15   -2.16    1.28
  -2  -5  15    1.69    2.14
  -2  -5  14   -0.63    1.89
  -2  -5  14    6.27    2.18
  -2  -5  13   -1.49    1.78
  -2  -5  12    0.78    1.71
  -2  -5  11    3.00    1.52
  -2  -5  10   17.59    2.31
  -2  -5   9   15.63    2.02
  -2  -5   8   21.36    1.99
  -2  -5   7    2.72    1.14
  -2  -5   6   20.24    1.89
  -2  -5   5   13.91    1.49
  -2  -5   4    7.70    1.29
  -2  -5   3   34.28    2.17
  -2  -5   2   39.62    2.18
  -2  -5   1   40.55    2.22
  -2  -5   0  262.85    8.61
  -2  -5   0  270.14    8.38
   2   5   1   49.84    2.39
  -2  -5  -1   47.91    1.87
  -2  -5  -1   40.35    2.34
   2   5   2   45.78    2.32
  -2  -5  -2   44.04    1.71
  -2  -5  -2   49.99    2.42
   2   5   3   36.98    2.05
  -2  -5  -3   37.25    2.11
  -2  -5  -3   34.87    1.21
   2   5   4    5.33    1.17
  -2  -5  -4    4.76    1.20
   2   5   5   14.38    1.49
  -2  -5  -5   12.07    1.51
   2   5   6   18.09    1.81
  -2  -5  -6   14.76    1.70
   2   5   7    6.30    1.49
  -2  -5  -7    2.12    1.14
   2   5   8   23.50    2.12
  -2  -5  -8   24.34    2.21
   2   5   9   14.91    1.90
  -2  -5  -9   15.30    1.95
   2   5  10   16.97    2.26
  -2  -5 -10   17.28    2.15
   2   5  11    4.66    1.81
  -2  -5 -11    5.98    1.69
   2   5  12    1.73    1.72
  -2  -5 -12    2.66    1.64
   2   5  13    0.35    1.50
  -2  -5 -13    1.81    1.61
   2   5  14    1.91    1.93
  -2  -5 -14    4.83    1.94
   2   5  15    1.27    1.64
  -2  -5 -15    3.86    1.85
  -1  -6  15   -0.40    2.13
  -1  -6  14   -2.17    1.95
  -1  -6  13    1.40    1.66
  -1  -6  12    3.80    1.71
  -1  -6  11    7.69    2.07
  -1  -6  10    3.79    1.62
  -1  -6   9   34.30    2.82
  -1  -6   8   10.01    1.86
  -1  -6   7   41.72    2.48
  -1  -6   6    2.70    1.17
  -1  -6   5  103.17    4.09
  -1  -6   4   36.40    2.20
  -1  -6   3  152.31    5.51
  -1  -6   2    2.50    1.11
  -1  -6   1   61.76    2.88
   1   6   0   86.17    3.58
  -1  -6   0   86.32    3.57
   1   6   1   61.28    2.76
  -1  -6  -1   52.91    2.70
  -1  -6  -1   54.08    2.06
   1   6   2    2.13    1.02
  -1  -6  -2    3.55    0.47
  -1  -6  -2    4.67    1.14
   1   6   3  143.75    5.25
  -1  -6  -3  145.74    5.35
   1   6   4   36.79    2.17
  -1  -6  -4   36.00    2.25
   1   6   5  102.72    4.21
  -1  -6  -5  110.19    4.31
   1   6   6    5.41    1.45
   1   6   6    2.95    0.53
  -1  -6  -6    0.56    1.26
   1   6   7   40.81    1.77
   1   6   7   40.61    2.55
  -1  -6  -7   45.76    2.59
   1   6   8   10.25    1.13
   1   6   8    9.51    1.66
  -1  -6  -8    7.67    1.75
   1   6   9   30.17    2.54
   1   6   9   31.37    1.91
  -1  -6  -9   29.18    2.57
   1   6  10    2.96    1.87
  -1  -6 -10    3.25    1.45
   1   6  11    7.83    1.81
  -1  -6 -11   15.60    2.21
   1   6  12    3.06    1.57
  -1  -6 -12    4.20    1.68
   1   6  13    1.52    1.83
  -1  -6 -13    2.36    1.66
   1   6  14   -0.60    1.50
  -1  -6 -14    0.64    1.63
   1   6  15   -1.05    1.97
  -1  -6 -15    4.44    1.88
   0  -7  15    0.82    2.15
   0  -7  14   -0.65    2.09
   0  -7  13    3.37    2.13
   0  -7  12   -0.29    1.87
   0  -7  11    1.46    1.61
   0  -7  10    2.80    1.64
   0  -7   9   24.79    2.44
   0  -7   8   12.18    1.84
   0  -7   7    0.46    1.47
   0  -7   6   11.41    1.61
   0  -7   5   65.81    3.15
   0  -7   4  269.76    8.89
   0  -7   3   27.17    2.11
   0  -7   2   41.91    2.40
   0  -7   1    0.57    0.98
   0   7   0    2.31    1.11
   0  -7   0    2.17    1.14
   0   7   1    0.24    0.98
   0  -7  -1   -0.50    1.02
   0   7   2   40.56    2.36
   0  -7  -2   43.18    2.45
   0   7   3   27.96    2.02
   0  -7  -3   27.57    2.18
   0   7   4  259.84    8.86
   0  -7  -4  272.19    8.88
   0   7   5   70.86    3.33
   0  -7  -5   72.32    3.44
   0   7   6   13.11    1.68
   0   7   6   13.37    0.70
   0  -7  -6   13.73    1.68
   0   7   7    1.33    1.24
   0   7   7   -0.69    0.62
   0  -7  -7    1.62    1.18
   0   7   8   10.89    1.13
   0   7   8   11.94    1.84
   0  -7  -8   10.73    1.69
   0   7   9   25.06    2.44
   0  -7  -9   24.64    2.45
   0   7  10    3.08    1.70
   0  -7 -10    3.56    1.70
   0   7  11    3.65    1.69
   0  -7 -11    4.61    1.77
   0   7  12   -1.61    1.44
   0  -7 -12   -0.38    1.22
   0   7  13    0.68    1.93
   0  -7 -13    2.92    1.39
   0   7  14    0.73    1.96
   0  -7 -14    0.44    1.56
   0   7  15    1.44    1.76
   0  -7 -15    0.25    1.64
   1  -8  15   -0.32    2.30
   1  -8  14    6.62    2.47
   1  -8  13    3.49    1.98
   1  -8  12    0.35    1.67
   1  -8  11    5.30    2.15
   1  -8  10   15.18    2.28
   1  -8   9   23.13    2.69
   1  -8   8   16.85    2.32
   1  -8   7   49.28    2.96
   1  -8   6   13.74    1.75
   1  -8   5   25.09    2.28
   1  -8   4  178.75    6.39
   1  -8   3   23.73    2.00
   1  -8   2    7.14    1.43
   1  -8   1  100.13    4.10
  -1   8   0   13.57    1.55
   1  -8   0   14.15    1.70
  -1   8   1  102.43    4.21
   1  -8  -1  103.44    4.22
  -1   8   2    7.74    1.40
   1  -8  -2    6.85    1.42
  -1   8   3   22.46    2.03
   1  -8  -3   29.00    2.23
  -1   8   4  173.29    6.30
   1  -8  -4  173.96    6.28
  -1   8   5   23.26    2.11
   1  -8  -5   21.93    2.03
  -1   8   6   17.40    1.88
  -1   8   6   15.00    0.68
   1  -8  -6   13.38    1.88
  -1   8   7   46.70    1.85
  -1   8   7   52.67    3.23
   1  -8  -7   44.43    2.95
  -1   8   8   15.34    2.07
   1  -8  -8   16.26    2.08
  -1   8   9   21.34    2.42
   1  -8  -9   25.47    2.51
  -1   8  10   13.07    2.14
   1  -8 -10   11.30    2.00
  -1   8  11    3.40    1.73
   1  -8 -11    3.85    1.61
  -1   8  12   -0.19    1.58
   1  -8 -12    1.15    1.51
  -1   8  13    3.84    1.79
   1  -8 -13    2.48    1.36
  -1   8  14    3.70    2.17
   1  -8 -14    4.72    1.44
  -1   8  15   -0.75    1.69
   2  -9  14   -0.16    2.29
   2  -9  13    7.95    2.28
   2  -9  12    7.52    2.14
   2  -9  11   -0.18    1.92
   2  -9  10    0.71    1.66
   2  -9   9   -0.20    1.93
   2  -9   8   22.17    2.46
   2  -9   7   37.72    2.80
   2  -9   6   20.33    2.13
   2  -9   5    7.80    1.59
   2  -9   4  117.03    4.74
   2  -9   3   42.02    2.61
   2  -9   2    3.42    1.34
  -2   9  -1   55.26    3.05
   2  -9   1   60.67    3.05
  -2   9   0   23.78    2.19
   2  -9   0   21.41    2.06
  -2   9   1   59.40    3.02
   2  -9  -1   53.71    2.95
  -2   9   2    3.04    1.25
   2  -9  -2    2.74    1.31
  -2   9   3   38.27    2.49
   2  -9  -3   40.58    2.74
  -2   9   4  115.85    4.82
  -2   9   4  122.47    3.70
   2  -9  -4  116.15    4.80
  -2   9   5    8.36    1.63
  -2   9   5    8.49    0.52
   2  -9  -5   10.01    1.71
  -2   9   6   23.87    1.03
  -2   9   6   23.55    2.25
   2  -9  -6   25.51    2.29
  -2   9   7   35.47    1.59
  -2   9   7   40.44    2.86
   2  -9  -7   36.98    2.54
  -2   9   8   25.06    2.51
   2  -9  -8   21.47    2.34
  -2   9   9   -0.83    1.60
   2  -9  -9    0.85    1.49
  -2   9  10   -1.86    1.53
   2  -9 -10    2.58    1.51
  -2   9  11    1.05    1.62
   2  -9 -11    1.32    1.16
  -2   9  12    6.02    1.97
  -2   9  13    7.22    2.06
   2  -9 -13    2.55    1.30
  -2   9  14    0.41    1.78
   3 -10  14   -2.93    1.79
   3 -10  13    5.69    2.58
   3 -10  12    3.37    2.38
   3 -10  11    4.63    1.98
   3 -10  10    7.73    2.04
   3 -10   9    7.15    2.00
   3 -10   8   15.08    2.23
   3 -10   7   78.39    4.04
   3 -10   6    2.23    1.53
   3 -10   5   40.44    2.77
   3 -10   4    7.02    1.62
   3 -10   3   64.03    3.32
   3 -10   2   19.70    2.08
  -3  10  -1   77.92    3.73
   3 -10   1   75.16    3.62
  -3  10   0  116.49    4.92
   3 -10   0  121.94    4.91
  -3  10   1   78.94    3.73
   3 -10  -1   79.79    3.72
  -3  10   2   20.19    1.26
  -3  10   2   20.77    1.91
   3 -10  -2   19.77    2.02
  -3  10   3   71.69    2.62
  -3  10   3   66.75    3.47
   3 -10  -3   77.19    3.58
  -3  10   4    6.16    1.52
  -3  10   4    6.39    0.71
   3 -10  -4    7.53    1.77
  -3  10   5   42.17    2.83
  -3  10   5   43.20    1.68
   3 -10  -5   44.52    2.75
  -3  10   6    5.57    1.65
  -3  10   6    5.85    0.71
   3 -10  -6    5.57    1.74
  -3  10   7   77.49    4.03
   3 -10  -7   80.22    4.02
  -3  10   8   17.67    2.39
   3 -10  -8   19.89    2.30
  -3  10   9    1.43    1.73
   3 -10  -9    2.59    0.73
  -3  10  10    2.42    1.76
   3 -10 -10    1.04    0.65
  -3  10  11    7.45    2.31
   3 -10 -11    6.79    1.72
  -3  10  12    3.95    2.23
   3 -10 -12    4.25    1.65
  -3  10  13    7.07    2.20
  -3  10  14    0.38    1.84
   4 -11  14    7.42    2.82
   4 -11  13   -2.32    1.92
   4 -11  12    7.00    2.24
   4 -11  11    1.94    1.92
   4 -11  10   23.73    2.80
   4 -11   9    2.48    1.85
   4 -11   8   27.27    2.84
   4 -11   7    2.43    1.72
   4 -11   6   17.63    2.21
   4 -11   5   -0.79    1.45
   4 -11   4    6.44    1.69
   4 -11   3    4.81    1.58
   4 -11   2   18.63    2.13
  -4  11  -1    9.76    1.81
   4 -11   1   10.13    1.77
  -4  11   0  213.44    7.67
   4 -11   0  204.29    7.43
  -4  11   1   11.85    1.85
  -4  11   1   13.36    1.28
   4 -11  -1   11.71    1.82
  -4  11   2   16.52    1.31
  -4  11   2   16.12    1.98
   4 -11  -2   14.76    2.12
  -4  11   3    5.84    1.56
  -4  11   3    6.29    0.88
   4 -11  -3    5.70    1.53
  -4  11   4    8.35    0.93
  -4  11   4    9.58    1.74
   4 -11  -4    5.63    1.58
  -4  11   5    2.27    1.55
  -4  11   5    0.28    0.65
   4 -11  -5   -0.25    1.60
  -4  11   6   19.56    1.26
  -4  11   6   16.61    2.23
   4 -11  -6   17.91    2.12
  -4  11   7    3.76    1.78
   4 -11  -7    3.90    1.19
  -4  11   8   26.19    2.81
  -4  11   9   -2.34    1.58
   4 -11  -9    3.21    1.49
  -4  11  10   21.11    2.74
   4 -11 -10   30.34    2.71
  -4  11  11    1.36    1.80
   4 -11 -11    2.48    1.45
  -4  11  12    7.52    2.17
   4 -11 -12    8.12    1.95
  -4  11  13    0.95    1.89
  -4  11  14    3.37    2.08
   5 -12  13    0.50    2.14
   5 -12  12    2.11    2.10
   5 -12  11    8.12    2.28
   5 -12  10    6.11    2.04
   5 -12   9    9.40    2.26
   5 -12   8    9.42    2.26
   5 -12   7   16.50    2.40
   5 -12   6    7.36    1.92
   5 -12   5   19.27    2.37
   5 -12   4    7.67    1.86
   5 -12   3   58.34    3.42
  -5  12  -2   -1.37    1.33
   5 -12   2    0.97    1.47
  -5  12  -1   79.72    4.03
   5 -12   1   80.33    3.97
  -5  12   0   60.23    3.34
  -5  12   0   50.20    2.61
   5 -12   0   47.65    3.10
  -5  12   1   80.80    3.32
  -5  12   1   76.13    3.90
   5 -12  -1   74.53    3.81
  -5  12   2   -0.35    0.81
  -5  12   2   -1.42    1.28
   5 -12  -2   -1.30    1.31
  -5  12   3   58.25    2.52
  -5  12   3   53.63    3.29
   5 -12  -3   63.67    3.60
  -5  12   4    5.85    1.75
  -5  12   4    4.93    0.98
   5 -12  -4    4.37    1.58
  -5  12   5   14.52    2.22
  -5  12   5   17.17    1.36
   5 -12  -5   18.04    2.41
  -5  12   6   15.32    2.02
   5 -12  -6    7.30    1.48
  -5  12   7   14.73    2.27
   5 -12  -7    6.24    1.43
  -5  12   8    8.91    2.10
   5 -12  -8    9.13    1.95
  -5  12   9   13.96    2.41
   5 -12  -9   13.33    2.08
  -5  12  10    5.45    2.00
   5 -12 -10    5.36    1.59
  -5  12  11    5.48    2.05
   5 -12 -11    2.49    1.58
  -5  12  12    4.82    2.10
  -5  12  13    2.57    2.06
   6 -13  13    3.88    2.39
   6 -13  12    0.04    2.05
   6 -13  11   -2.33    1.77
   6 -13  10    0.19    1.86
   6 -13   9    2.38    2.20
   6 -13   8    7.56    2.17
   6 -13   7    6.49    2.03
   6 -13   6    0.47    1.71
   6 -13   5    2.80    1.73
   6 -13   4   54.39    3.54
   6 -13   3   27.31    2.71
  -6  13  -2   -0.81    1.52
   6 -13   2    1.49    1.62
  -6  13  -1    7.19    1.49
  -6  13  -1    7.34    1.83
   6 -13   1    7.74    1.92
  -6  13   0    5.69    2.05
  -6  13   0    4.57    1.29
   6 -13   0    5.76    1.79
  -6  13   1    7.61    1.31
  -6  13   1    9.74    1.95
   6 -13  -1    8.71    2.08
  -6  13   2    2.29    1.57
  -6  13   2    0.68    0.93
   6 -13  -2    1.16    1.55
  -6  13   3   27.80    1.83
  -6  13   3   26.12    2.60
   6 -13  -3   26.86    2.53
  -6  13   4   52.14    3.45
  -6  13   4   55.11    2.54
   6 -13  -4   54.46    3.36
  -6  13   5    1.02    1.64
  -6  13   5    2.45    1.01
   6 -13  -5    1.73    1.71
  -6  13   6   -0.19    1.66
   6 -13  -6    0.52    0.76
  -6  13   7    8.11    2.12
   6 -13  -7   12.33    2.14
  -6  13   8    7.00    2.00
   6 -13  -8    7.28    1.94
  -6  13   9    2.63    1.95
   6 -13  -9    7.61    1.83
  -6  13  10    3.81    2.01
   6 -13 -10    5.19    1.76
  -6  13  11    1.30    1.91
  -6  13  12    2.06    2.11
  -6  13  13    1.61    2.10
   7 -14  13    0.03    2.61
   7 -14  12    1.05    2.56
   7 -14  11    3.49    2.22
   7 -14  10    1.89    2.06
   7 -14   9   -1.04    1.86
   7 -14   8    0.61    1.81
   7 -14   7    7.48    2.09
   7 -14   6    0.76    2.09
   7 -14   5    1.44    1.84
   7 -14   4   58.89    3.78
   7 -14   3   15.83    2.38
  -7  14  -2    9.66    2.31
   7 -14   2    3.65    1.80
  -7  14  -1   24.03    2.70
  -7  14  -1   25.50    2.37
   7 -14   1   28.42    2.99
  -7  14   0   30.49    2.40
  -7  14   0   33.21    3.01
   7 -14   0   30.45    2.88
  -7  14   1   26.06    2.70
  -7  14   1   25.54    2.14
   7 -14  -1   20.31    2.47
  -7  14   2    7.12    1.92
  -7  14   2    7.58    1.45
   7 -14  -2    6.57    2.19
  -7  14   3   13.89    2.27
  -7  14   3   18.01    1.74
   7 -14  -3   16.31    2.49
  -7  14   4   49.08    3.47
  -7  14   4   52.30    2.58
   7 -14  -4   50.27    3.56
  -7  14   5    1.67    1.11
  -7  14   5    2.86    1.42
   7 -14  -5    0.88    0.67
  -7  14   6    4.18    1.95
   7 -14  -6    1.62    1.53
  -7  14   7    6.23    2.09
   7 -14  -7    9.84    2.06
  -7  14   8    2.27    1.86
   7 -14  -8    3.12    1.62
  -7  14   9   -1.70    1.67
   7 -14  -9    0.83    1.44
  -7  14  10    5.93    2.22
  -7  14  11    5.07    2.22
  -7  14  12   -0.53    1.89
  -7  14  13   -2.02    2.32
   8 -15  12   -0.22    2.09
   8 -15  11    0.86    2.13
   8 -15  10    4.70    2.29
   8 -15   9    0.62    1.93
   8 -15   8    0.77    2.19
   8 -15   7    0.51    1.76
   8 -15   6    3.83    2.00
   8 -15   5   -0.25    1.80
   8 -15   4   16.62    2.60
   8 -15   3   19.00    2.71
  -8  15  -2    1.61    2.13
  -8  15  -2    1.87    1.37
   8 -15   2    4.81    2.05
  -8  15  -1   16.22    2.16
  -8  15  -1   18.47    2.83
   8 -15   1   17.79    2.57
  -8  15   0    2.18    1.42
  -8  15   0   -1.11    1.68
   8 -15   0    2.68    2.16
  -8  15   1   21.53    2.06
  -8  15   1   16.80    2.45
   8 -15  -1   16.66    2.37
  -8  15   2    3.61    1.34
  -8  15   2    4.31    1.97
   8 -15  -2    1.17    1.76
  -8  15   3   16.42    1.79
  -8  15   3   15.97    2.44
   8 -15  -3   16.26    2.54
  -8  15   4   14.80    1.75
  -8  15   4   15.27    2.48
   8 -15  -4   15.93    2.52
  -8  15   5    1.69    1.84
   8 -15  -5    0.76    1.22
  -8  15   6    0.73    1.85
   8 -15  -6    1.96    1.83
  -8  15   7    1.92    1.86
   8 -15  -7    0.90    1.77
  -8  15   8    0.11    1.88
   8 -15  -8    4.33    1.90
  -8  15   9    0.04    1.81
  -8  15  10    4.35    2.14
  -8  15  11   -0.79    1.90
  -8  15  12    2.21    2.12
   9 -16  11   -1.36    2.49
   9 -16  10    1.17    2.55
   9 -16   9    2.04    2.03
   9 -16   8    4.04    2.08
   9 -16   7    1.51    1.91
   9 -16   6    7.46    2.18
   9 -16   5    3.58    2.36
   9 -16   4    1.90    1.93
   9 -16   3   13.98    2.49
  -9  16  -2    4.95    2.04
  -9  16  -2   -0.18    1.66
   9 -16   2    6.07    2.12
  -9  16  -1    8.37    2.54
  -9  16  -1    8.50    1.96
   9 -16   1    5.90    2.25
  -9  16   0    9.37    1.88
  -9  16   0   13.77    2.50
   9 -16   0   11.74    2.69
  -9  16   1    9.06    1.77
  -9  16   1    6.45    2.09
   9 -16  -1   11.96    2.35
  -9  16   2    4.50    1.51
  -9  16   2    4.62    1.98
   9 -16  -2    3.37    1.94
  -9  16   3   10.19    1.62
  -9  16   3   10.04    2.30
   9 -16  -3   11.85    2.23
  -9  16   4    1.37    1.30
  -9  16   4    1.51    1.82
   9 -16  -4   -0.05    1.13
  -9  16   5    3.57    2.04
   9 -16  -5    4.30    1.97
  -9  16   6    6.63    2.08
   9 -16  -6   10.10    2.22
  -9  16   7    3.71    2.05
   9 -16  -7    8.13    2.02
  -9  16   8    1.77    1.97
  -9  16   9    1.36    2.04
  -9  16  10    0.19    1.86
  -9  16  11    1.55    2.10
  10 -17  11    1.17    2.28
  10 -17  10    2.29    2.24
  10 -17   9    0.30    2.03
  10 -17   8    0.81    1.99
  10 -17   7   -0.02    1.89
  10 -17   6   10.49    2.47
  10 -17   5   -0.82    1.84
  10 -17   4   -0.20    1.85
 -10  17  -3    0.92    1.43
  10 -17   3    3.91    2.45
 -10  17  -2    4.17    1.94
 -10  17  -2    4.33    1.63
  10 -17   2   -1.81    1.79
 -10  17  -1   -0.73    1.60
 -10  17  -1    1.53    1.90
  10 -17   1    2.79    2.37
 -10  17   0    8.71    1.89
 -10  17   0    4.80    2.11
  10 -17   0    5.30    2.16
 -10  17   1    2.24    1.30
 -10  17   1    1.82    1.95
  10 -17  -1    2.37    1.91
 -10  17   2    3.19    1.98
 -10  17   2    1.36    1.40
  10 -17  -2    0.06    2.03
 -10  17   3    2.15    1.86
 -10  17   3    1.58    1.47
  10 -17  -3    1.85    1.77
 -10  17   4   -1.17    1.73
  10 -17  -4    0.32    0.79
 -10  17   5   -0.70    1.71
  10 -17  -5   -0.81    1.75
 -10  17   6    9.88    2.42
  10 -17  -6   16.25    2.51
 -10  17   7   -0.11    1.91
 -10  17   8    6.74    2.34
 -10  17   9    0.11    2.12
 -10  17  10   -0.09    2.03
 -10  17  11    1.12    2.10
  11 -18  10   -0.84    1.97
  11 -18   9   -1.66    1.93
  11 -18   8   -0.10    2.08
  11 -18   7    7.27    2.52
  11 -18   6    2.90    2.24
  11 -18   5   -0.32    1.97
  11 -18   4    1.20    2.40
 -11  18  -3    1.76    1.84
  11 -18   3   -0.79    1.92
 -11  18  -2    1.27    1.49
 -11  18  -2    3.60    2.24
  11 -18   2    3.84    2.13
 -11  18  -1    4.31    1.88
 -11  18  -1    5.46    2.11
  11 -18   1    1.89    2.32
 -11  18   0    2.41    1.63
 -11  18   0    2.22    1.99
  11 -18   0    3.20    2.36
 -11  18   1    1.73    1.93
 -11  18   1    2.82    1.42
  11 -18  -1    4.12    2.32
 -11  18   2    2.88    2.00
 -11  18   2    1.74    1.48
  11 -18  -2   -0.33    2.14
 -11  18   3    1.35    1.89
 -11  18   3    2.03    1.53
  11 -18  -3    3.70    2.12
 -11  18   4    1.30    1.92
  11 -18  -4   -0.45    1.81
 -11  18   5   -1.92    1.78
  11 -18  -5   -0.27    1.85
 -11  18   6    3.25    2.21
 -11  18   7    6.55    2.26
 -11  18   8   -0.93    2.08
 -11  18   9   -0.07    2.12
 -11  18  10   -0.07    2.15
  12 -19   9   -1.97    2.10
  12 -19   8   -4.75    1.95
  12 -19   7   -1.48    2.21
  12 -19   6    3.23    2.33
  12 -19   5   -0.14    2.10
  12 -19   4    6.38    2.75
 -12  19  -3    2.61    1.70
  12 -19   3   -0.41    2.07
 -12  19  -2    1.09    2.27
 -12  19  -2   -0.40    1.74
  12 -19   2    2.52    2.18
 -12  19  -1    6.70    2.04
 -12  19  -1    6.44    2.22
  12 -19   1    9.55    2.78
 -12  19   0    1.16    1.65
 -12  19   0    1.04    2.38
  12 -19   0   -0.84    2.30
 -12  19   1    4.74    1.83
 -12  19   1    3.65    2.40
  12 -19  -1    6.19    2.53
 -12  19   2   -0.25    1.50
 -12  19   2    2.42    2.03
  12 -19  -2    2.49    1.96
 -12  19   3    1.96    2.32
  12 -19  -3    0.73    1.42
 -12  19   4   -0.16    1.98
  12 -19  -4    7.13    2.34
 -12  19   5   -0.12    2.04
 -12  19   6    0.39    1.98
 -12  19   7    1.86    2.18
 -12  19   8    0.18    2.04
 -12  19   9    1.94    2.43
  13 -20   7    4.66    2.47
  13 -20   6    2.82    2.31
  13 -20   5    0.88    2.21
  13 -20   4    8.89    2.94
 -13  20  -3    0.35    1.96
  13 -20   3   -0.91    2.60
 -13  20  -2    0.25    1.88
 -13  20  -2    5.54    2.50
  13 -20   2    2.71    2.70
 -13  20  -1   -3.16    2.26
 -13  20  -1   -1.11    1.86
  13 -20   1    0.44    2.16
 -13  20   0    4.85    2.24
 -13  20   0    8.10    2.13
  13 -20   0    2.94    2.22
 -13  20   1   -1.78    2.36
 -13  20   1   -0.78    1.58
  13 -20  -1   -1.16    2.27
 -13  20   2    3.26    1.70
 -13  20   2    6.50    2.29
  13 -20  -2    5.06    2.54
 -13  20   3    0.19    2.05
  13 -20  -3   -0.96    0.72
 -13  20   4    2.30    2.15
 -13  20   5    0.35    2.50
 -13  20   6    0.20    2.13
 -13  20   7   -0.17    2.05
  14 -21   6   -0.74    2.64
  14 -21   5    3.19    2.51
  14 -21   4    3.00    2.76
 -14  21  -3    4.99    2.29
  14 -21   3    8.97    3.09
 -14  21  -2    2.80    2.06
 -14  21  -2    1.90    2.00
  14 -21   2   -1.81    2.60
 -14  21  -1    1.06    1.96
 -14  21  -1    0.26    2.41
  14 -21   1    0.20    2.24
 -14  21   0    0.07    2.00
 -14  21   0    0.11    1.53
  14 -21   0    3.28    2.67
 -14  21   1   -0.42    2.05
 -14  21   1   -0.92    1.68
  14 -21  -1   -1.65    2.42
 -14  21   2    1.19    2.09
  14 -21  -2   -2.74    2.27
 -14  21   3    2.32    2.67
  14 -21  -3    3.53    2.22
 -14  21   4    0.12    2.49
 -14  21   5    0.34    2.25
 -14  21   6   -1.97    2.06
 -15  22  -3    3.84    2.26
  15 -22   3    1.78    2.48
 -15  22  -2    0.84    1.76
  15 -22   2   -2.04    2.66
 -15  22  -1    0.43    2.08
 -15  22  -1   -1.05    2.43
  15 -22   1   -0.68    2.32
 -15  22   0   -1.34    1.56
 -15  22   0    0.30    2.44
  15 -22   0    1.74    2.27
 -15  22   1   -2.15    1.97
  15 -22  -1    3.81    2.67
 -15  22   2   -0.78    2.02
  15 -22  -2   -2.18    1.57
 -15  22   3    4.55    2.36
 -22  14   4    3.39    2.43
 -22  14   3    3.62    2.34
 -22  14   2    1.63    2.28
 -22  14   1   -0.96    2.03
 -22  14   0   -2.14    2.04
 -22  14  -1    3.40    2.28
 -22  14  -2    3.01    2.35
 -22  14  -3    1.62    2.22
  22 -14   4    5.26    1.99
 -22  14  -4    7.87    2.65
 -21  13   6   -0.66    2.08
 -21  13   6    1.07    1.91
 -21  13   5   -0.47    2.15
 -21  13   4   -1.69    1.93
 -21  13   3    5.50    2.41
 -21  13   2    0.73    2.13
 -21  13   1   -0.02    2.00
 -21  13   0   -0.92    1.98
 -21  13  -1   -0.58    2.08
 -21  13  -2   -2.51    1.83
  21 -13   3    1.77    0.72
 -21  13  -3    2.98    2.34
  21 -13   4    4.24    2.06
 -21  13  -4    0.51    2.15
  21 -13   5    5.17    2.31
 -21  13  -5    2.30    2.29
  21 -13   6    2.46    1.91
 -21  13  -6    0.12    2.12
 -20  12   8    5.22    2.84
 -20  12   7    5.40    1.90
 -20  12   7    6.72    2.56
 -20  12   6    0.73    1.81
 -20  12   6   -1.28    2.42
 -20  12   5    4.72    2.35
 -20  12   5    2.91    1.33
 -20  12   4    2.15    2.16
 -20  12   4   -3.06    1.36
 -20  12   3    2.08    2.19
 -20  12   2    3.87    2.57
 -20  12   1    2.14    2.13
 -20  12   0    1.73    2.15
 -20  12  -1    0.43    1.99
  20 -12   2    1.60    1.71
 -20  12  -2    0.78    1.99
  20 -12   3    1.87    1.52
 -20  12  -3    1.31    2.11
  20 -12   4   -1.45    1.46
 -20  12  -4    4.74    2.30
  20 -12   5    2.90    2.10
 -20  12  -5    1.41    2.15
  20 -12   6   -0.55    1.60
 -20  12  -6    1.93    2.13
  20 -12   7    5.10    2.41
 -20  12  -7   -0.22    2.47
 -20  12  -8    4.09    2.34
 -19  11   9   -1.19    2.20
 -19  11   8    2.30    2.79
 -19  11   7    0.24    2.48
 -19  11   6    4.86    1.77
 -19  11   6    5.04    2.34
 -19  11   5   -0.94    1.99
 -19  11   5    1.50    1.37
 -19  11   4    2.23    2.10
 -19  11   4    1.15    1.52
 -19  11   3   -0.43    1.98
 -19  11   3    1.15    1.40
 -19  11   2    1.44    2.07
 -19  11   1   -0.65    1.87
 -19  11   0   19.99    3.03
  19 -11   1    1.75    1.48
 -19  11  -1    2.26    2.37
  19 -11   2    4.97    1.77
 -19  11  -2    4.98    2.28
  19 -11   3    1.50    1.73
 -19  11  -3    0.11    2.33
  19 -11   4    1.92    1.82
 -19  11  -4   -0.41    1.68
 -19  11  -4    1.30    2.07
  19 -11   5    1.52    1.60
 -19  11  -5   -1.21    1.94
 -19  11  -5    1.42    1.58
 -19  11  -6    8.88    2.10
 -19  11  -6    6.16    2.41
 -19  11  -7   -0.67    1.65
 -19  11  -7   -1.50    2.25
 -19  11  -8   -2.13    1.57
 -19  11  -8    4.52    2.34
  19 -11   9   -0.50    1.83
 -19  11  -9    1.08    2.13
 -19  11  -9   -1.22    1.75
 -18  10  10    0.16    2.28
 -18  10   9    1.50    2.16
 -18  10   8    5.24    2.36
 -18  10   7   15.25    2.91
 -18  10   6   -0.81    2.06
 -18  10   5    3.47    2.13
 -18  10   4   -1.08    2.31
 -18  10   3    1.65    1.20
 -18  10   3    2.99    2.37
 -18  10   2   -0.19    1.21
 -18  10   2    2.26    2.04
 -18  10   1   20.76    3.07
  18 -10   0   14.63    1.97
 -18  10   0    9.84    2.44
  18 -10   1   14.85    2.01
 -18  10  -1   16.60    2.78
 -18  10  -2    1.66    1.97
 -18  10  -2   -0.06    1.44
 -18  10  -3    0.90    1.56
 -18  10  -3    1.75    2.00
 -18  10  -4   -0.32    1.92
 -18  10  -4    3.14    1.77
 -18  10  -5    6.91    2.37
 -18  10  -5    6.37    2.06
 -18  10  -6    0.24    2.22
 -18  10  -6    0.31    1.60
 -18  10  -7   12.22    2.31
 -18  10  -7   11.14    2.61
 -18  10  -8    5.19    2.31
 -18  10  -8    8.41    2.51
 -18  10  -9    1.42    2.07
 -18  10  -9    2.18    2.03
 -18  10 -10    1.39    1.94
 -18  10 -10    1.32    2.08
 -17   9  11    2.48    2.32
 -17   9  10    1.94    2.66
 -17   9   9    5.52    2.78
 -17   9   8    1.20    2.09
 -17   9   7    7.67    2.38
 -17   9   6    4.59    2.22
 -17   9   5    7.75    2.39
 -17   9   4    0.81    1.90
 -17   9   3   -0.02    1.95
 -17   9   2    0.59    2.00
 -17   9   1    9.34    1.56
 -17   9   1    8.89    2.37
 -17   9   0    2.23    1.39
 -17   9   0    1.41    2.00
 -17   9  -1    8.75    2.42
 -17   9  -1   11.69    1.83
 -17   9  -2   -0.86    1.34
 -17   9  -2    0.36    1.87
 -17   9  -3   -1.17    1.24
 -17   9  -3    0.94    1.84
 -17   9  -4    1.61    1.95
 -17   9  -4    2.29    1.67
 -17   9  -5    7.24    1.85
 -17   9  -5    6.93    2.34
 -17   9  -6    6.77    2.51
 -17   9  -6    2.44    1.66
 -17   9  -7   11.72    2.59
 -17   9  -7    3.82    1.84
 -17   9  -8    1.30    1.90
 -17   9  -8    0.33    1.71
 -17   9  -9    3.55    2.10
 -17   9  -9    3.06    1.88
 -17   9 -10    2.95    2.19
 -17   9 -10    0.85    1.76
 -17   9 -11   -1.46    1.94
 -17   9 -11   -0.40    2.11
 -16   8  11   -4.37    2.40
 -16   8  10   -3.53    1.87
 -16   8   9    2.83    2.21
 -16   8   8   -1.36    1.91
 -16   8   7    3.40    2.11
 -16   8   6   10.19    2.45
 -16   8   5   10.65    2.46
 -16   8   4   10.40    2.48
 -16   8   3    7.14    2.29
 -16   8   2    2.05    2.07
 -16   8   1    6.06    1.33
 -16   8   1    6.06    2.26
 -16   8   0   19.33    2.87
 -16   8   0   18.33    1.93
 -16   8   0   16.70    1.60
 -16   8  -1    4.19    2.17
 -16   8  -1    6.39    1.52
 -16   8  -2    6.39    2.20
 -16   8  -2    3.38    1.59
 -16   8  -3    7.56    2.25
 -16   8  -3    5.50    1.57
 -16   8  -4   11.75    1.92
 -16   8  -4    9.02    2.38
 -16   8  -5   12.34    2.79
 -16   8  -5    5.65    1.70
 -16   8  -6    9.57    2.18
 -16   8  -6   10.62    2.40
 -16   8  -7    1.07    1.58
 -16   8  -7    1.76    1.81
 -16   8  -8   -1.55    1.79
 -16   8  -8    0.80    1.75
 -16   8  -9    5.12    1.95
 -16   8  -9    0.81    1.68
 -16   8 -10   -0.30    1.71
 -16   8 -10   -3.50    1.62
 -16   8 -11   -0.94    2.13
 -16   8 -11    0.89    1.76
 -15   7  12    4.92    2.49
 -15   7  11   -1.49    2.43
 -15   7  10    4.82    2.36
 -15   7   9   -0.59    1.96
 -15   7   8    0.26    1.95
 -15   7   7   -1.37    2.23
 -15   7   6    1.28    1.99
 -15   7   5    3.72    2.17
 -15   7   4   17.64    2.77
 -15   7   3   17.31    2.75
 -15   7   2    4.88    2.15
 -15   7   2    3.84    1.08
 -15   7   1   19.72    1.74
 -15   7   1   15.98    2.64
 -15   7   0   -0.30    1.19
 -15   7   0    0.45    1.82
 -15   7  -1   18.24    1.42
 -15   7  -1   18.63    1.95
 -15   7  -1   18.19    2.75
 -15   7  -2    5.77    1.55
 -15   7  -2   -0.23    1.87
 -15   7  -3   16.98    2.17
 -15   7  -3   16.63    2.97
 -15   7  -4   16.45    2.89
 -15   7  -4   17.33    2.32
 -15   7  -5    2.22    1.51
 -15   7  -5    2.14    2.28
 -15   7  -6    1.85    1.51
 -15   7  -6    2.81    1.89
 -15   7  -7   -0.91    1.41
 -15   7  -7    2.41    1.81
 -15   7  -8    4.02    2.28
 -15   7  -8   -0.23    1.53
 -15   7  -9    2.76    1.75
 -15   7  -9    0.38    1.98
 -15   7 -10    3.30    2.42
 -15   7 -10    5.24    2.00
 -15   7 -11   -0.37    1.78
 -15   7 -11   -0.83    1.72
 -15   7 -12   -0.02    1.74
 -14   6  13   -0.24    2.22
 -14   6  12    1.39    2.21
 -14   6  11    6.98    2.88
 -14   6  10    2.93    2.18
 -14   6   9    6.35    2.60
 -14   6   8    6.78    2.18
 -14   6   7    5.22    2.17
 -14   6   6    2.38    2.07
 -14   6   5   27.39    3.09
 -14   6   4    2.04    1.96
 -14   6   3   85.49    4.72
 -14   6   2    2.22    0.90
 -14   6   2    1.01    1.85
 -14   6   1   23.61    1.77
 -14   6   1   16.58    2.55
 -14   6   0   66.69    3.01
 -14   6   0   63.98    4.07
 -14   6  -1   20.79    1.89
 -14   6  -1   18.16    2.63
 -14   6  -2    1.77    1.19
 -14   6  -2    0.51    1.72
 -14   6  -3   94.70    4.84
 -14   6  -3   82.85    3.93
 -14   6  -4    2.06    1.77
 -14   6  -4    1.41    1.61
 -14   6  -5   29.78    3.20
 -14   6  -5   30.94    2.80
 -14   6  -6    4.92    2.07
 -14   6  -6    6.74    1.79
 -14   6  -7    4.48    2.25
 -14   6  -7    6.21    1.79
 -14   6  -8    5.22    1.85
 -14   6  -8    6.07    2.24
 -14   6  -9    5.54    1.89
 -14   6  -9    6.40    2.08
 -14   6 -10    0.67    1.96
 -14   6 -10   -0.33    1.64
 -14   6 -11    9.26    2.19
 -14   6 -11    6.12    2.38
 -14   6 -12    4.92    2.11
 -14   6 -13    0.87    1.90
 -13   5  13    2.11    2.38
 -13   5  12    2.34    2.29
 -13   5  11    5.89    2.36
 -13   5  10    9.60    2.49
 -13   5   9   -0.89    1.86
 -13   5   8    1.10    2.35
 -13   5   7   14.99    2.53
 -13   5   6    4.12    2.11
 -13   5   5   24.19    2.86
 -13   5   4   44.31    3.41
 -13   5   3   29.67    3.00
 -13   5   3   26.00    1.51
 -13   5   2   18.68    2.63
 -13   5   2   17.98    1.42
 -13   5   1   23.13    2.67
 -13   5   1   23.80    1.69
 -13   5   0   12.48    2.25
 -13   5   0   14.93    1.56
 -13   5  -1   24.23    2.74
 -13   5  -1   24.52    1.91
 -13   5  -2   19.33    1.80
 -13   5  -2   20.18    2.54
 -13   5  -3   24.59    2.14
 -13   5  -3   22.33    2.68
 -13   5  -4   44.22    3.52
 -13   5  -4   45.89    2.83
 -13   5  -5   20.11    2.18
 -13   5  -5   21.90    2.69
 -13   5  -6    3.42    2.07
 -13   5  -6    4.60    1.62
 -13   5  -7   21.56    2.62
 -13   5  -7   16.36    2.71
 -13   5  -8    0.50    1.49
 -13   5  -8    5.06    1.87
 -13   5  -9    3.84    1.72
 -13   5  -9    3.53    1.77
 -13   5 -10   13.57    2.42
 -13   5 -10   15.36    2.41
 -13   5 -11    3.52    1.99
 -13   5 -12    0.02    1.69
 -13   5 -13    4.02    2.02
 -12   4  13    3.47    2.52
 -12   4  12    1.03    2.17
 -12   4  11    5.29    2.32
 -12   4  10   11.32    2.53
 -12   4   9   16.72    2.74
 -12   4   8    7.97    2.31
 -12   4   7   38.24    3.42
 -12   4   6   11.93    2.33
 -12   4   5   11.90    2.28
 -12   4   4   25.96    2.78
 -12   4   4   25.19    1.21
 -12   4   3   24.69    1.37
 -12   4   3   22.95    2.61
 -12   4   2   35.11    1.78
 -12   4   2   36.13    3.08
 -12   4   1   58.34    3.60
 -12   4   1   57.30    2.47
 -12   4   0    1.27    0.89
 -12   4   0    0.33    1.59
 -12   4  -1   52.85    3.35
 -12   4  -1   50.43    2.48
 -12   4  -2   38.24    2.94
 -12   4  -2   39.02    2.39
 -12   4  -3   26.11    2.78
 -12   4  -3   24.52    2.18
 -12   4  -4   24.78    2.22
 -12   4  -4   23.36    2.55
 -12   4  -5    9.96    2.09
 -12   4  -5    8.64    1.63
 -12   4  -6    8.38    1.97
 -12   4  -6   10.07    1.81
 -12   4  -7   35.26    3.18
 -12   4  -7   39.77    3.14
 -12   4  -8    5.24    1.78
 -12   4  -8    5.34    1.85
 -12   4  -9   15.01    2.29
 -12   4  -9   16.29    2.44
 -12   4 -10   11.40    2.34
 -12   4 -10   10.65    2.14
 -12   4 -11    2.75    1.74
 -12   4 -12    1.90    1.91
 -12   4 -13    5.10    2.07
 -11   3  14    2.15    2.39
 -11   3  13    3.34    2.33
 -11   3  12    0.29    2.17
 -11   3  11   -0.68    2.37
 -11   3  10   12.15    2.62
 -11   3   9    5.40    2.23
 -11   3   8    2.27    2.41
 -11   3   7   12.28    2.40
 -11   3   6    8.85    2.07
 -11   3   5    7.10    1.98
 -11   3   5    6.62    0.56
 -11   3   4    4.19    1.75
 -11   3   4    8.04    0.76
 -11   3   3   34.91    1.63
 -11   3   3   35.90    2.83
 -11   3   2    4.97    1.67
 -11   3   2    4.72    0.89
 -11   3   1   16.49    1.35
 -11   3   1   16.78    2.19
 -11   3   0   20.96    2.33
 -11   3   0   19.94    1.59
 -11   3  -1   14.70    2.03
 -11   3  -1   12.25    1.41
 -11   3  -2    7.01    1.35
 -11   3  -2    5.52    1.63
 -11   3  -3   34.99    2.89
 -11   3  -3   38.52    2.43
 -11   3  -4    8.49    1.71
 -11   3  -4    7.05    1.44
 -11   3  -5    7.84    1.55
 -11   3  -5    3.24    1.53
 -11   3  -6    5.78    1.88
 -11   3  -6    9.45    1.74
 -11   3  -7   11.75    1.98
 -11   3  -7   10.27    1.88
 -11   3  -8    1.66    1.55
 -11   3  -8    3.10    1.60
 -11   3  -9    9.04    1.97
 -11   3  -9    9.42    1.96
 -11   3 -10    9.84    2.10
 -11   3 -10   10.66    2.23
 -11   3 -11    3.47    1.79
 -11   3 -12    0.86    1.60
 -11   3 -13    2.31    1.88
 -11   3 -14    1.08    1.90
 -10   2  14    4.20    2.55
 -10   2  13    0.63    2.16
 -10   2  12    1.22    2.18
 -10   2  11   11.98    2.63
 -10   2  10   16.59    2.76
 -10   2   9    3.70    2.14
 -10   2   8   -0.03    1.86
 -10   2   7   13.00    2.33
 -10   2   6   22.97    1.05
 -10   2   6   25.62    2.69
 -10   2   5   11.32    0.87
 -10   2   5   12.31    2.06
 -10   2   4   63.41    3.51
 -10   2   4   62.66    2.29
 -10   2   3   42.67    2.82
 -10   2   3   40.13    1.76
 -10   2   2   20.78    2.23
 -10   2   2   20.09    1.30
 -10   2   1   13.70    1.25
 -10   2   1   12.91    1.92
 -10   2   0   36.38    2.65
 -10   2   0   35.90    1.93
 -10   2  -1   13.95    1.34
 -10   2  -1   13.76    1.89
 -10   2  -2   27.13    2.53
 -10   2  -2   22.34    1.87
 -10   2  -3   44.76    2.79
 -10   2  -3   42.57    2.41
 -10   2  -4   64.42    3.33
 -10   2  -4   62.34    3.09
 -10   2  -5   13.36    1.73
 -10   2  -5   15.03    1.93
 -10   2  -6   26.08    2.38
 -10   2  -6   28.49    2.64
 -10   2  -7   18.13    2.13
 -10   2  -7   17.04    2.14
 -10   2  -8    1.62    1.59
 -10   2  -8    1.01    1.43
 -10   2  -9    7.24    1.89
 -10   2  -9    5.93    1.91
 -10   2 -10   17.61    2.41
 -10   2 -11    9.49    2.08
 -10   2 -12   -1.80    1.44
 -10   2 -13    0.90    1.69
 -10   2 -14    3.83    2.04
  -9   1  14    1.80    2.29
  -9   1  13    4.16    2.34
  -9   1  12   11.13    2.61
  -9   1  11   21.72    3.00
  -9   1  10    3.48    2.08
  -9   1   9   31.55    3.29
  -9   1   8   40.03    3.43
  -9   1   7   12.07    1.14
  -9   1   7    9.90    2.20
  -9   1   6   15.16    1.14
  -9   1   6   10.97    2.12
  -9   1   5   49.51    2.01
  -9   1   5   51.27    3.17
  -9   1   4   15.60    2.04
  -9   1   4   13.75    1.06
  -9   1   3  189.60    6.91
  -9   1   3  183.55    5.88
  -9   1   2    6.56    0.91
  -9   1   2    7.40    1.58
  -9   1   1   23.78    1.43
  -9   1   1   20.54    2.11
  -9   1   0  146.34    5.10
  -9   1   0  154.84    5.87
  -9   1  -1   25.08    2.33
  -9   1  -1   22.71    1.56
  -9   1  -2    8.53    1.33
  -9   1  -2    7.12    1.59
  -9   1  -3  211.61    7.13
  -9   1  -3  203.71    7.40
  -9   1  -4   16.21    1.79
  -9   1  -4   16.76    1.74
  -9   1  -5   50.20    2.82
  -9   1  -5   51.92    2.99
   9  -1   6   13.83    1.13
  -9   1  -6   15.98    1.91
  -9   1  -6   15.79    1.93
   9  -1   7   10.78    1.16
  -9   1  -7   12.79    1.85
  -9   1  -8   32.50    2.77
  -9   1  -9   37.55    3.15
  -9   1 -10    3.62    1.68
  -9   1 -11   23.42    2.78
  -9   1 -12    7.62    2.02
  -9   1 -13   -0.16    1.62
  -9   1 -14    2.97    1.84
  -8   0  15    0.50    2.77
  -8   0  14    1.64    2.28
  -8   0  13    3.33    2.35
  -8   0  12    2.92    2.19
  -8   0  11    0.53    1.99
  -8   0  10   20.20    2.83
  -8   0   9    4.27    2.06
  -8   0   8   36.02    2.15
  -8   0   8   37.55    3.29
  -8   0   7    8.47    1.29
  -8   0   7    9.72    2.07
  -8   0   6   33.50    1.82
  -8   0   6   34.69    2.92
  -8   0   5   21.27    2.30
  -8   0   5   24.50    1.53
  -8   0   4  112.27    4.62
  -8   0   4  102.99    3.70
  -8   0   3   35.14    2.48
  -8   0   3   37.91    1.80
  -8   0   2   69.48    3.33
  -8   0   2   68.99    2.66
  -8   0   1   71.85    3.39
  -8   0   1   72.06    2.81
  -8   0   0   45.35    2.19
  -8   0   0   46.01    2.62
  -8   0  -1   72.52    3.32
  -8   0  -1   67.99    2.93
  -8   0  -2   68.02    2.95
  -8   0  -2   70.12    3.23
  -8   0  -3   38.76    2.29
  -8   0  -3   36.75    2.33
   8   0   5   22.57    1.41
  -8   0  -5   18.19    1.80
  -8   0  -5   23.43    2.03
   8   0   6   32.80    1.79
  -8   0  -6   32.44    2.36
  -8   0  -6   30.05    2.07
   8   0   7    7.72    1.24
  -8   0  -7    6.56    1.57
  -8   0  -7    9.34    1.52
   8   0   8   38.29    2.24
  -8   0  -8   36.02    2.74
  -8   0  -8   38.54    2.65
   8   0   9    8.62    1.40
  -8   0  -9    6.83    1.77
  -8   0 -10   22.70    2.57
  -8   0 -11    1.36    1.54
  -8   0 -12   10.34    2.14
  -8   0 -13    8.27    2.07
  -8   0 -14   -0.01    1.56
  -8   0 -15    0.76    2.04
  -7  -1  15    0.22    2.24
  -7  -1  14    3.02    2.40
  -7  -1  13    2.24    2.14
  -7  -1  12    2.22    2.10
  -7  -1  11    3.46    2.11
  -7  -1  10   13.38    2.59
  -7  -1   9   28.44    2.19
  -7  -1   9   20.62    2.78
  -7  -1   8   14.17    1.60
  -7  -1   8   17.54    2.46
  -7  -1   7   50.63    2.51
  -7  -1   7   47.66    3.28
  -7  -1   6   19.57    1.62
  -7  -1   6   14.66    2.10
  -7  -1   5   27.50    2.43
  -7  -1   5   23.29    1.67
  -7  -1   4  181.95    6.02
  -7  -1   4  185.46    6.78
  -7  -1   3   25.87    2.19
  -7  -1   3   26.30    1.68
  -7  -1   2    6.84    1.40
  -7  -1   2    6.45    1.00
  -7  -1   1   97.76    3.58
  -7  -1   1   99.54    4.02
  -7  -1   0   13.38    1.29
  -7  -1   0   16.34    1.76
  -7  -1  -1   97.65    4.03
  -7  -1  -1  105.86    3.84
  -7  -1  -2    7.82    1.15
  -7  -1  -3   29.15    1.88
  -7  -1  -3   24.86    1.85
   7   1   4  177.98    5.86
  -7  -1  -4  176.15    6.20
  -7  -1  -4  179.81    6.30
   7   1   5   22.75    1.54
  -7  -1  -5   21.18    1.98
  -7  -1  -5   21.83    1.81
   7   1   6   16.62    1.46
  -7  -1  -6   15.98    1.64
  -7  -1  -6   14.81    1.77
   7   1   7   48.74    2.45
  -7  -1  -7   48.37    2.64
  -7  -1  -7   47.24    2.92
   7   1   8   14.81    1.64
  -7  -1  -8   15.97    2.09
   7   1   9   24.24    2.02
  -7  -1  -9   22.13    2.46
   7   1  10   12.84    1.83
  -7  -1 -10   11.17    2.04
  -7  -1 -11    5.17    1.79
  -7  -1 -12    0.92    1.81
  -7  -1 -13    4.40    1.79
  -7  -1 -14    1.19    1.72
  -7  -1 -15    0.83    1.69
  -6  -2  15   -0.17    2.23
  -6  -2  14    3.42    2.39
  -6  -2  13    3.46    2.28
  -6  -2  12    0.11    1.96
  -6  -2  11   -0.07    1.90
  -6  -2  10    0.65    1.98
  -6  -2  10    0.59    1.30
  -6  -2   9   14.20    2.42
  -6  -2   9   14.42    1.83
  -6  -2   8    0.89    1.15
  -6  -2   8   -0.64    1.63
  -6  -2   7   42.53    2.41
  -6  -2   7   40.61    3.03
  -6  -2   6   52.65    3.15
  -6  -2   6   52.13    2.50
  -6  -2   5    2.79    1.03
  -6  -2   5    1.60    1.34
  -6  -2   4   31.66    1.90
  -6  -2   4   33.39    2.33
  -6  -2   3    3.84    1.01
  -6  -2   3    4.18    1.29
  -6  -2   2    6.16    1.12
  -6  -2   2    8.50    1.54
  -6  -2   1   37.35    2.12
  -6  -2   1   36.20    1.98
  -6  -2   0   13.11    1.29
  -6  -2   0   12.54    1.37
  -6  -2  -1   33.82    1.89
  -6  -2  -2    5.78    1.21
  -6  -2  -2    6.22    1.16
   6   2   3    4.01    0.96
  -6  -2  -3    5.07    1.04
  -6  -2  -3    3.17    1.07
   6   2   4   28.29    1.74
  -6  -2  -4   28.75    1.72
  -6  -2  -4   30.89    2.02
   6   2   5    3.25    0.98
  -6  -2  -5    0.64    1.03
  -6  -2  -5    4.53    0.98
   6   2   6   45.51    2.37
  -6  -2  -6   49.86    2.81
  -6  -2  -6   53.56    2.39
   6   2   7   38.71    2.22
  -6  -2  -7   40.00    2.24
  -6  -2  -7   39.74    2.64
   6   2   8    0.82    1.17
  -6  -2  -8    2.92    1.67
   6   2   9   11.58    1.77
  -6  -2  -9   13.14    1.98
   6   2  10    2.21    1.39
  -6  -2 -10    2.22    1.55
   6   2  11    0.39    1.52
  -6  -2 -11    0.01    1.64
   6   2  12   -0.04    1.44
  -6  -2 -12    1.88    1.51
  -6  -2 -13    4.90    1.84
  -6  -2 -14    2.48    1.99
  -6  -2 -15    0.62    1.70
  -5  -3  15    0.05    2.12
  -5  -3  14    1.47    2.17
  -5  -3  13   21.57    3.19
  -5  -3  12    2.99    2.55
  -5  -3  11   13.15    2.59
  -5  -3  11   12.09    2.02
  -5  -3  10   -1.37    1.86
  -5  -3  10    0.87    1.60
  -5  -3   9   22.82    2.88
  -5  -3   9   28.32    2.28
  -5  -3   8   46.94    3.39
  -5  -3   8   48.98    2.83
  -5  -3   7  105.63    4.89
  -5  -3   7  105.32    4.14
  -5  -3   6   -0.38    1.04
  -5  -3   6    1.19    1.40
  -5  -3   5  168.82    5.86
  -5  -3   5  171.49    6.41
  -5  -3   4   63.05    2.86
  -5  -3   4   65.55    3.19
  -5  -3   3   69.06    3.20
  -5  -3   3   71.64    3.04
  -5  -3   2   21.44    1.86
  -5  -3   2   21.46    1.73
  -5  -3   1  154.68    5.42
  -5  -3   1  161.10    5.56
  -5  -3   0  247.64    7.99
  -5  -3  -1  150.40    5.29
  -5  -3  -1  152.61    5.27
  -5  -3  -2   18.93    1.49
  -5  -3  -2   17.16    1.58
   5   3   3   69.23    2.97
  -5  -3  -3   72.07    3.11
  -5  -3  -3   70.13    2.80
   5   3   4   63.29    2.67
  -5  -3  -4   53.53    2.66
  -5  -3  -4   54.62    2.35
   5   3   5  163.27    5.66
  -5  -3  -5  162.24    5.42
  -5  -3  -5  160.76    5.89
   5   3   6    0.21    0.87
  -5  -3  -6    0.01    0.71
  -5  -3  -6    1.34    1.11
   5   3   7  102.15    4.07
  -5  -3  -7   99.75    4.41
   5   3   8   51.35    2.84
  -5  -3  -8   53.17    3.13
   5   3   9   22.25    2.13
  -5  -3  -9   23.56    2.44
   5   3  10   -2.18    1.35
  -5  -3 -10    3.38    1.58
   5   3  11   12.16    1.94
  -5  -3 -11    8.73    1.88
   5   3  12    1.45    1.51
  -5  -3 -12    2.93    1.56
   5   3  13   19.30    2.43
  -5  -3 -13   17.30    2.52
  -5  -3 -14    3.25    1.73
  -5  -3 -15    2.43    1.79
  -4  -4  15    3.09    2.39
  -4  -4  14   14.23    3.01
  -4  -4  13    0.20    2.12
  -4  -4  12   11.27    2.50
  -4  -4  12    9.36    1.93
  -4  -4  11   -1.48    1.43
  -4  -4  11   -1.25    1.79
  -4  -4  10   -0.03    1.84
  -4  -4  10    0.53    1.50
  -4  -4   9    1.12    1.80
  -4  -4   9    1.03    1.58
  -4  -4   8   73.54    4.07
  -4  -4   8   71.55    3.44
  -4  -4   7   34.35    2.35
  -4  -4   7   30.75    2.78
  -4  -4   6   89.96    3.71
  -4  -4   6   85.88    4.12
  -4  -4   5   31.41    2.31
  -4  -4   5   28.52    2.06
  -4  -4   4   62.16    2.87
  -4  -4   4   59.18    3.04
  -4  -4   3    2.79    1.07
  -4  -4   3    1.49    1.01
  -4  -4   2   14.11    1.47
  -4  -4   2   14.78    1.43
  -4  -4   1    0.35    0.91
  -4  -4   1   -0.13    0.80
  -4  -4   0  705.01   21.26
  -4  -4   0  692.59   20.99
  -4  -4  -1    0.31    0.70
  -4  -4  -1   -0.33    0.88
   4   4   2   15.82    1.46
  -4  -4  -2   15.23    1.57
  -4  -4  -2   15.94    1.24
   4   4   3    2.39    1.10
  -4  -4  -3    3.57    1.09
  -4  -4  -3    2.26    0.69
   4   4   4   56.68    2.65
  -4  -4  -4   58.58    2.23
  -4  -4  -4   58.72    2.86
   4   4   5   30.50    1.94
  -4  -4  -5   32.89    1.53
  -4  -4  -5   34.12    2.21
   4   4   6   73.75    3.27
  -4  -4  -6   80.77    3.61
   4   4   7   36.35    2.39
  -4  -4  -7   30.89    2.54
   4   4   8   77.74    3.59
  -4  -4  -8   70.38    3.71
   4   4   9    3.95    1.54
  -4  -4  -9    3.08    1.46
   4   4  10    1.19    1.34
  -4  -4 -10    0.86    1.41
   4   4  11   -0.07    1.57
  -4  -4 -11   -1.14    1.33
   4   4  12    6.41    1.91
  -4  -4 -12    6.27    1.75
   4   4  13    1.68    1.75
  -4  -4 -13    0.96    1.75
   4   4  14   15.84    2.53
  -4  -4 -14   17.97    2.57
  -4  -4 -15    1.15    1.54
  -3  -5  15    4.47    2.43
  -3  -5  14   -2.36    1.94
  -3  -5  13   17.45    2.94
  -3  -5  13   23.36    2.71
  -3  -5  12    4.92    1.85
  -3  -5  12    3.64    2.07
  -3  -5  11   10.20    2.39
  -3  -5  11   13.77    2.17
  -3  -5  10   -0.61    1.52
  -3  -5   9   24.22    2.22
  -3  -5   8   55.97    3.17
  -3  -5   7   92.45    3.90
  -3  -5   6   -0.98    1.22
  -3  -5   5  167.96    5.93
  -3  -5   4   55.02    2.87
  -3  -5   4   59.19    2.79
  -3  -5   3   73.39    3.19
  -3  -5   3   74.09    3.24
  -3  -5   2   19.84    1.76
  -3  -5   2   19.61    1.51
  -3  -5   1  152.96    5.44
  -3  -5   0  265.17    8.41
  -3  -5   0  263.15    8.64
   3   5   1  162.29    5.87
  -3  -5  -1  168.04    5.88
  -3  -5  -1  166.62    5.44
   3   5   2   19.67    1.64
  -3  -5  -2   16.76    1.16
  -3  -5  -2   18.75    1.71
   3   5   3   70.29    3.05
  -3  -5  -3   70.01    3.19
  -3  -5  -3   67.20    2.39
   3   5   4   55.56    2.77
  -3  -5  -4   60.02    2.97
  -3  -5  -4   61.93    2.05
   3   5   5  161.35    5.91
  -3  -5  -5  167.48    6.03
   3   5   6   -0.29    0.99
  -3  -5  -6    2.58    1.38
   3   5   7  102.23    4.22
  -3  -5  -7   99.97    4.38
   3   5   8   52.19    2.87
  -3  -5  -8   50.00    3.20
   3   5   9   22.67    2.25
  -3  -5  -9   23.74    2.41
   3   5  10   -0.57    1.36
  -3  -5 -10    2.34    1.51
   3   5  11   10.64    2.09
  -3  -5 -11   11.65    2.02
   3   5  12    5.03    1.64
  -3  -5 -12    5.30    1.71
   3   5  13   23.09    2.78
  -3  -5 -13   15.40    2.34
   3   5  14    0.83    1.63
  -3  -5 -14    4.19    1.97
   3   5  15    2.88    2.08
  -3  -5 -15    1.92    1.83
  -2  -6  15    0.85    2.51
  -2  -6  14    0.31    1.95
  -2  -6  14    6.43    2.37
  -2  -6  13    9.31    2.28
  -2  -6  12    1.44    1.79
  -2  -6  11    1.14    1.72
  -2  -6  10   -1.40    1.59
  -2  -6   9   13.65    1.89
  -2  -6   8    0.11    1.30
  -2  -6   7   38.01    2.50
  -2  -6   6   45.86    2.79
  -2  -6   5    4.14    1.44
  -2  -6   4   34.51    2.23
  -2  -6   3    6.43    1.31
  -2  -6   2    6.06    1.29
  -2  -6   1   25.96    1.60
  -2  -6   1   31.00    2.06
  -2  -6   0   15.21    1.21
  -2  -6   0   11.30    1.55
   2   6   1   32.23    2.17
  -2  -6  -1   36.81    2.28
  -2  -6  -1   38.36    1.66
   2   6   2    8.29    1.36
  -2  -6  -2    7.58    0.76
  -2  -6  -2    7.01    1.40
   2   6   3    4.67    1.38
  -2  -6  -3    3.61    1.22
   2   6   4   29.59    2.07
  -2  -6  -4   33.41    2.21
   2   6   5    3.84    1.20
  -2  -6  -5    3.48    1.39
   2   6   6   52.42    2.91
  -2  -6  -6   48.57    2.84
   2   6   7   40.34    2.61
  -2  -6  -7   46.03    2.90
   2   6   8    1.05    1.31
  -2  -6  -8   -0.44    1.21
   2   6   9   10.08    2.05
  -2  -6  -9   12.82    2.10
   2   6  10    0.74    1.75
  -2  -6 -10    2.31    1.46
   2   6  11    1.36    1.49
  -2  -6 -11   -1.31    1.48
   2   6  12    1.26    1.51
  -2  -6 -12    0.10    1.32
   2   6  13    2.51    1.69
  -2  -6 -13    3.88    1.83
   2   6  14    1.38    1.70
  -2  -6 -14    1.84    1.78
   2   6  15   -2.73    1.86
  -2  -6 -15   -0.46    1.71
  -1  -7  15   -0.93    2.18
  -1  -7  14    4.60    2.28
  -1  -7  13    2.21    2.10
  -1  -7  12   -0.75    1.80
  -1  -7  11    1.64    1.86
  -1  -7  10   10.30    2.22
  -1  -7   9   19.80    2.24
  -1  -7   8   13.92    2.13
  -1  -7   7   42.73    2.76
  -1  -7   6   14.67    1.84
  -1  -7   5   22.19    2.04
  -1  -7   4  183.55    6.51
  -1  -7   3   29.24    2.17
  -1  -7   2    4.35    1.32
  -1  -7   1  103.65    4.24
   1   7   0   15.14    1.68
  -1  -7   0   12.72    1.67
   1   7   1  104.83    4.20
  -1  -7  -1   99.78    3.44
  -1  -7  -1   99.06    4.17
   1   7   2    7.23    1.40
  -1  -7  -2   10.08    0.73
  -1  -7  -2    7.69    1.47
   1   7   3   28.18    2.06
  -1  -7  -3   25.09    2.15
   1   7   4  173.40    6.38
  -1  -7  -4  184.48    6.50
   1   7   5   21.34    2.01
  -1  -7  -5   24.05    2.28
   1   7   6   14.32    1.83
  -1  -7  -6   16.96    1.88
   1   7   7   46.20    1.70
   1   7   7   46.32    3.06
  -1  -7  -7   48.41    2.89
   1   7   8   13.87    1.91
  -1  -7  -8   14.93    2.02
   1   7   9   19.28    2.33
  -1  -7  -9   24.25    2.43
   1   7  10   10.09    1.97
  -1  -7 -10    9.67    2.06
   1   7  11    1.59    1.60
  -1  -7 -11    4.68    1.60
   1   7  12   -0.06    1.53
  -1  -7 -12   -0.28    1.50
   1   7  13    0.08    1.62
  -1  -7 -13    4.39    1.68
   1   7  14    2.98    1.88
  -1  -7 -14    3.64    1.83
   1   7  15    2.01    2.23
  -1  -7 -15    0.75    1.45
   0  -8  15    0.50    2.40
   0  -8  14   -1.71    1.99
   0  -8  13    5.77    2.31
   0  -8  12    7.66    2.02
   0  -8  11    3.26    2.05
   0  -8  10   20.01    2.49
   0  -8   9    5.34    1.99
   0  -8   8   35.56    2.81
   0  -8   7    8.45    1.76
   0  -8   6   35.23    2.75
   0  -8   5   24.19    2.18
   0  -8   4  108.85    4.47
   0  -8   3   35.88    2.43
   0  -8   2   69.93    3.33
   0  -8   1   76.26    3.55
   0   8   0   42.10    2.64
   0  -8   0   46.37    2.67
   0   8   1   74.60    3.48
   0  -8  -1   69.89    3.45
   0   8   2   66.37    3.26
   0  -8  -2   66.55    3.32
   0   8   3   41.19    2.52
   0  -8  -3   38.32    2.55
   0   8   4   98.79    4.24
   0  -8  -4  103.19    4.31
   0   8   5   20.40    2.09
   0  -8  -5   24.27    2.29
   0   8   6   34.93    2.55
   0  -8  -6   34.03    2.49
   0   8   7    5.52    1.63
   0  -8  -7   10.64    1.94
   0   8   8   32.18    2.78
   0  -8  -8   42.01    3.00
   0   8   9    4.14    2.04
   0  -8  -9    8.05    1.74
   0   8  10   23.22    2.67
   0  -8 -10   24.68    2.67
   0   8  11    1.81    1.66
   0  -8 -11    2.49    1.42
   0   8  12    6.35    2.28
   0  -8 -12    7.20    1.96
   0   8  13    6.22    1.96
   0  -8 -13    6.60    1.78
   0   8  14    0.55    2.09
   0  -8 -14    1.84    1.46
   0   8  15   -0.04    1.78
   0  -8 -15   -0.15    1.66
   1  -9  14   -0.21    2.24
   1  -9  13    0.12    1.79
   1  -9  12   11.46    2.53
   1  -9  11   16.82    2.48
   1  -9  10    5.90    2.19
   1  -9   9   37.15    3.07
   1  -9   8   33.03    2.78
   1  -9   7   11.98    1.96
   1  -9   6   12.35    1.96
   1  -9   5   45.12    2.87
   1  -9   4   15.15    1.88
   1  -9   3  213.69    7.54
   1  -9   2    4.48    1.48
   1  -9   1   23.95    2.14
  -1   9   0  150.27    5.74
   1  -9   0  145.09    5.63
  -1   9   1   23.49    2.17
   1  -9  -1   23.76    2.22
  -1   9   2    5.95    1.46
   1  -9  -2    6.38    1.53
  -1   9   3  202.79    7.33
   1  -9  -3  207.76    7.34
  -1   9   4   19.95    2.04
   1  -9  -4   12.46    1.79
  -1   9   5   44.56    2.82
   1  -9  -5   49.22    2.92
  -1   9   6   11.45    1.92
   1  -9  -6   12.26    1.85
  -1   9   7   14.04    2.04
   1  -9  -7   10.18    1.96
  -1   9   8   36.53    3.01
   1  -9  -8   33.42    2.82
  -1   9   9   31.30    2.94
   1  -9  -9   29.95    2.71
  -1   9  10    6.13    2.21
   1  -9 -10    4.16    1.79
  -1   9  11   21.20    2.87
   1  -9 -11   24.75    2.60
  -1   9  12   10.77    2.22
   1  -9 -12   12.40    2.18
  -1   9  13    3.25    2.23
   1  -9 -13    2.89    1.69
  -1   9  14   -2.02    2.01
   1  -9 -14    3.78    1.78
   2 -10  14    0.36    1.96
   2 -10  13    2.13    2.06
   2 -10  12    3.54    1.99
   2 -10  11   10.82    2.26
   2 -10  10   15.86    2.68
   2 -10   9    4.26    2.13
   2 -10   8    0.45    1.60
   2 -10   7   15.86    2.18
   2 -10   6   23.36    2.43
   2 -10   5   12.86    2.01
   2 -10   4   69.61    3.60
   2 -10   3   46.89    2.96
   2 -10   2   22.90    2.23
  -2  10  -1   16.07    1.99
   2 -10   1   16.01    1.95
  -2  10   0   36.31    2.58
   2 -10   0   33.26    2.51
  -2  10   1   15.06    1.94
   2 -10  -1   10.93    1.74
  -2  10   2   23.21    2.24
   2 -10  -2   21.79    2.22
  -2  10   3   42.33    2.77
   2 -10  -3   45.60    2.88
  -2  10   4   66.01    3.49
   2 -10  -4   69.88    3.75
  -2  10   5   12.69    1.94
   2 -10  -5   13.48    1.86
  -2  10   6   31.73    2.73
   2 -10  -6   22.51    2.45
  -2  10   7   14.18    2.21
   2 -10  -7   17.16    2.15
  -2  10   8    4.49    1.75
   2 -10  -8    1.39    1.43
  -2  10   9    5.93    1.93
   2 -10  -9    9.75    2.03
  -2  10  10   18.09    2.55
   2 -10 -10   18.47    2.24
  -2  10  11    5.16    1.98
   2 -10 -11    9.26    1.97
  -2  10  12   -0.55    1.72
   2 -10 -12    0.33    1.37
  -2  10  13   -1.64    1.68
  -2  10  14    3.41    2.35
   3 -11  14    3.74    2.56
   3 -11  13   -0.80    1.93
   3 -11  12   -0.26    2.19
   3 -11  11    4.68    2.04
   3 -11  10   12.43    2.58
   3 -11   9    7.09    2.32
   3 -11   8    2.07    1.77
   3 -11   7    8.69    2.05
   3 -11   6    3.22    1.74
   3 -11   5    5.92    1.76
   3 -11   4    7.04    1.80
   3 -11   3   40.16    2.88
   3 -11   2    6.91    1.67
  -3  11  -1   15.78    2.03
   3 -11   1    9.21    1.81
  -3  11   0   20.29    2.23
   3 -11   0   16.64    2.11
  -3  11   1   15.70    2.05
   3 -11  -1   15.79    2.06
  -3  11   2    5.26    1.59
   3 -11  -2    3.59    1.50
  -3  11   3   39.96    2.78
   3 -11  -3   39.16    2.81
  -3  11   4    9.07    1.58
   3 -11  -4    8.85    1.82
  -3  11   5    5.12    1.72
  -3  11   5    6.33    0.60
   3 -11  -5    4.83    1.80
  -3  11   6    5.59    1.89
   3 -11  -6    6.73    1.73
  -3  11   7   12.24    2.20
   3 -11  -7   12.15    2.13
  -3  11   8    4.93    1.87
   3 -11  -8    5.11    1.62
  -3  11   9   10.14    2.23
   3 -11  -9    8.42    1.92
  -3  11  10   13.19    2.36
   3 -11 -10   10.36    1.71
  -3  11  11    0.99    1.80
  -3  11  12    1.90    1.88
   3 -11 -12    1.58    1.42
  -3  11  13    4.97    2.15
  -3  11  14   -1.21    1.85
   4 -12  13    2.51    2.19
   4 -12  12   -0.08    2.05
   4 -12  11    4.00    2.06
   4 -12  10   13.22    2.41
   4 -12   9   16.70    2.49
   4 -12   8    5.25    1.94
   4 -12   7   33.87    3.12
   4 -12   6    3.79    1.91
   4 -12   5   11.89    2.11
   4 -12   4   20.93    2.41
   4 -12   3   24.99    2.50
   4 -12   2   36.84    2.94
  -4  12  -1   60.94    3.57
   4 -12   1   61.28    3.51
  -4  12   0    3.05    1.65
   4 -12   0    1.22    1.55
  -4  12   1   56.01    3.39
   4 -12  -1   60.12    3.45
  -4  12   2   35.64    2.89
   4 -12  -2   37.76    2.94
  -4  12   3   24.51    2.47
  -4  12   3   23.97    1.48
   4 -12  -3   26.92    2.59
  -4  12   4   22.92    1.40
  -4  12   4   23.48    2.50
   4 -12  -4   27.71    2.62
  -4  12   5    6.34    1.92
   4 -12  -5   10.11    2.18
  -4  12   6    7.55    2.10
   4 -12  -6   11.08    2.00
  -4  12   7   34.49    3.14
   4 -12  -7   38.16    3.13
  -4  12   8    5.74    1.99
   4 -12  -8    6.63    1.91
  -4  12   9   14.85    2.44
  -4  12  10   11.97    2.35
   4 -12 -10    8.36    1.85
  -4  12  11    5.56    2.13
   4 -12 -11    2.57    1.65
  -4  12  12    0.64    2.01
   4 -12 -12    3.67    1.84
  -4  12  13    2.36    2.10
   5 -13  13    0.75    2.49
   5 -13  12    0.91    2.12
   5 -13  11    7.14    2.60
   5 -13  10   12.63    2.54
   5 -13   9    1.75    2.13
   5 -13   8    3.86    1.90
   5 -13   7   16.87    2.51
   5 -13   6    5.10    1.96
   5 -13   5   18.60    2.46
   5 -13   4   45.26    3.34
   5 -13   3   27.30    2.78
   5 -13   2   19.07    2.44
  -5  13  -1   23.29    2.61
   5 -13   1   16.92    2.36
  -5  13   0   13.12    2.19
   5 -13   0    9.71    2.01
  -5  13   1   25.31    2.58
   5 -13  -1   26.39    2.59
  -5  13   2   20.36    1.65
  -5  13   2   19.97    2.37
   5 -13  -2   16.24    2.25
  -5  13   3   33.45    2.89
  -5  13   3   22.73    1.68
   5 -13  -3   25.09    2.58
  -5  13   4   46.91    3.34
  -5  13   4   47.44    2.20
   5 -13  -4   46.75    3.24
  -5  13   5   22.24    2.67
   5 -13  -5   26.28    2.88
  -5  13   6    1.51    1.74
   5 -13  -6    2.96    1.92
  -5  13   7   16.37    2.51
   5 -13  -7   18.16    2.39
  -5  13   8    0.57    1.75
  -5  13   9    6.07    2.03
   5 -13  -9    2.53    1.62
  -5  13  10   15.92    2.64
   5 -13 -10   18.55    2.46
  -5  13  11    8.49    2.36
   5 -13 -11    5.54    1.76
  -5  13  12   -0.09    1.87
  -5  13  13    2.68    2.10
   6 -14  13   -0.43    2.52
   6 -14  12    2.15    2.22
   6 -14  11    8.01    2.74
   6 -14  10    1.15    1.95
   6 -14   9    5.83    2.38
   6 -14   8    4.33    1.97
   6 -14   7    4.61    2.05
   6 -14   6    2.78    1.94
   6 -14   5   27.83    2.96
   6 -14   4    1.29    1.84
   6 -14   3   89.78    4.64
   6 -14   2    3.95    2.24
  -6  14  -1   26.22    2.81
   6 -14   1   17.54    2.48
  -6  14   0   68.21    4.01
   6 -14   0   64.10    3.87
  -6  14   1   21.18    1.90
  -6  14   1   17.71    2.46
   6 -14  -1   23.87    2.64
  -6  14   2    3.62    1.74
  -6  14   2    2.32    1.10
   6 -14  -2    2.31    1.70
  -6  14   3   84.84    3.46
  -6  14   3   87.98    4.50
   6 -14  -3   82.35    4.33
  -6  14   4    1.46    0.99
  -6  14   4    2.86    1.84
   6 -14  -4    1.11    1.66
  -6  14   5   34.18    3.11
   6 -14  -5   29.37    3.06
  -6  14   6    7.00    1.73
   6 -14  -6    6.54    1.81
  -6  14   7    4.42    2.03
   6 -14  -7    1.61    0.56
  -6  14   8    4.68    2.03
   6 -14  -8    5.28    1.89
  -6  14   9    6.56    2.15
   6 -14  -9    6.10    1.84
  -6  14  10    2.43    1.95
   6 -14 -10    2.84    1.80
  -6  14  11   10.16    2.49
  -6  14  12    1.54    1.97
   7 -15  12   -2.20    1.99
   7 -15  11   -0.79    1.96
   7 -15  10    4.45    2.16
   7 -15   9    2.56    1.99
   7 -15   8    3.16    1.97
   7 -15   7    2.97    1.97
   7 -15   6    0.94    1.84
   7 -15   5   -0.99    1.83
   7 -15   4   16.45    2.60
   7 -15   3   20.83    2.72
  -7  15  -2    1.61    1.84
   7 -15   2    2.40    2.05
  -7  15  -1   19.50    2.67
   7 -15   1   21.67    2.76
  -7  15   0    3.06    1.93
  -7  15   0    0.43    1.35
   7 -15   0   -0.56    1.85
  -7  15   1   21.11    2.71
  -7  15   1   20.70    2.07
   7 -15  -1   17.49    2.50
  -7  15   2    4.24    1.38
  -7  15   2    0.32    1.79
   7 -15  -2    2.42    1.84
  -7  15   3   15.87    2.51
  -7  15   3   18.28    1.79
   7 -15  -3   16.97    2.45
  -7  15   4   14.25    2.48
   7 -15  -4   14.74    2.37
  -7  15   5    3.34    1.92
   7 -15  -5    3.25    2.02
  -7  15   6    3.91    1.97
  -7  15   7    0.26    1.83
   7 -15  -7    0.69    1.71
  -7  15   8   -0.80    1.94
   7 -15  -8    3.02    1.76
  -7  15   9   -2.69    1.72
   7 -15  -9    5.41    1.75
  -7  15  10    3.18    2.12
  -7  15  11    1.50    2.07
  -7  15  12   -1.38    2.25
   8 -16  11    2.57    2.27
   8 -16  10    1.83    2.11
   8 -16   9    3.26    2.19
   8 -16   8   -1.17    1.82
   8 -16   7    1.86    1.92
   8 -16   6    7.22    2.25
   8 -16   5    8.12    2.27
   8 -16   4    7.96    2.31
   8 -16   3    4.26    2.11
  -8  16  -2    6.00    2.48
   8 -16   2    7.32    2.59
  -8  16  -1    3.09    1.65
  -8  16  -1    7.72    2.27
   8 -16   1    7.52    2.29
  -8  16   0   15.80    2.60
  -8  16   0   18.16    2.16
   8 -16   0   16.42    2.61
  -8  16   1    3.79    1.98
  -8  16   1    5.41    1.61
   8 -16  -1    7.76    2.48
  -8  16   2    5.71    2.12
  -8  16   2    5.97    1.48
   8 -16  -2    2.86    1.97
  -8  16   3    6.98    2.12
  -8  16   3    6.14    1.47
   8 -16  -3    4.71    1.96
  -8  16   4    8.75    2.28
   8 -16  -4   10.42    2.14
  -8  16   5    6.17    2.11
   8 -16  -5    9.21    2.22
  -8  16   6   13.99    2.48
   8 -16  -6    7.58    1.95
  -8  16   7    2.77    1.98
   8 -16  -7    1.99    1.75
  -8  16   8   -1.18    1.90
   8 -16  -8    3.12    1.82
  -8  16   9    2.69    2.08
  -8  16  10    1.64    2.15
  -8  16  11   -4.41    1.73
   9 -17  11    0.04    2.19
   9 -17  10    0.87    2.15
   9 -17   9   -0.19    2.46
   9 -17   8    0.39    2.06
   9 -17   7    7.61    2.34
   9 -17   6    5.36    2.18
   9 -17   5    6.41    2.27
   9 -17   4   -1.26    1.88
   9 -17   3    0.15    1.91
  -9  17  -2   -1.37    1.79
   9 -17   2   -0.86    1.94
  -9  17  -1   11.54    2.06
  -9  17  -1    8.71    2.68
   9 -17   1    9.83    2.69
  -9  17   0    4.18    1.60
  -9  17   0   -0.80    2.24
   9 -17   0    6.48    2.13
  -9  17   1   12.59    2.44
  -9  17   1   13.50    2.08
   9 -17  -1    8.55    2.28
  -9  17   2   -0.92    1.36
  -9  17   2    1.93    1.93
   9 -17  -2    1.81    1.93
  -9  17   3   -0.44    1.77
  -9  17   3    0.21    1.31
   9 -17  -3    1.47    1.81
  -9  17   4   -1.59    1.77
   9 -17  -4    1.22    2.03
  -9  17   5    6.21    2.22
  -9  17   6    0.24    1.89
   9 -17  -6    6.89    2.10
  -9  17   7   10.98    2.46
   9 -17  -7   14.34    2.61
  -9  17   8    3.01    2.18
  -9  17   9    1.55    2.18
  -9  17  10    1.12    2.14
  -9  17  11    1.28    2.18
  10 -18  10   -1.93    2.45
  10 -18   9    8.90    2.56
  10 -18   8    2.49    2.51
  10 -18   7   13.95    2.85
  10 -18   6   -2.59    1.81
  10 -18   5    6.11    2.30
  10 -18   4    4.87    2.23
  10 -18   3   -1.68    1.93
 -10  18  -2   -0.96    2.09
  10 -18   2    2.55    2.09
 -10  18  -1   16.55    2.74
 -10  18  -1   20.73    2.48
  10 -18   1   17.13    2.76
 -10  18   0   15.65    2.24
 -10  18   0    6.75    2.25
  10 -18   0   10.50    2.48
 -10  18   1   15.10    2.10
 -10  18   1   14.94    2.90
  10 -18  -1   17.83    2.68
 -10  18   2    1.01    1.36
 -10  18   2    0.90    1.88
  10 -18  -2    0.64    2.20
 -10  18   3    1.44    1.95
  10 -18  -3   -1.30    1.63
 -10  18   4    1.59    1.98
  10 -18  -4    5.34    2.13
 -10  18   5    8.82    2.33
  10 -18  -5    4.62    1.82
 -10  18   6    1.09    2.01
  10 -18  -6    0.26    1.95
 -10  18   7   11.67    2.67
 -10  18   8    3.69    2.32
 -10  18   9    2.86    2.20
 -10  18  10    2.51    2.39
  11 -19   9   -0.95    2.32
  11 -19   8    4.63    2.49
  11 -19   7    0.30    2.21
  11 -19   6    7.06    2.53
  11 -19   5   -1.04    2.03
  11 -19   4    1.55    2.13
  11 -19   3   -4.29    1.85
 -11  19  -2    3.15    1.80
 -11  19  -2    3.59    2.08
  11 -19   2    2.57    2.20
 -11  19  -1    0.41    1.97
 -11  19  -1    1.11    1.71
  11 -19   1   -1.82    2.03
 -11  19   0   17.34    3.17
 -11  19   0   25.08    2.65
  11 -19   0   18.13    3.09
 -11  19   1    0.58    2.01
 -11  19   1   -1.80    1.48
  11 -19  -1    0.91    1.86
 -11  19   2    1.21    2.00
 -11  19   2   -0.08    1.44
  11 -19  -2    0.49    2.27
 -11  19   3    0.63    1.97
  11 -19  -3   -0.40    2.12
 -11  19   4    3.11    2.06
  11 -19  -4    0.61    1.32
 -11  19   5    1.48    2.09
  11 -19  -5    1.34    2.12
 -11  19   6    3.01    2.20
 -11  19   7    0.11    2.10
 -11  19   8    3.97    2.33
 -11  19   9    1.42    2.26
  12 -20   8    1.79    2.51
  12 -20   7    0.27    2.30
  12 -20   6    0.87    2.33
  12 -20   5    3.90    2.53
  12 -20   4   -0.85    2.57
  12 -20   3   -0.22    2.61
 -12  20  -2    1.99    1.65
 -12  20  -2   -0.16    2.28
  12 -20   2    4.42    2.75
 -12  20  -1    6.27    2.28
 -12  20  -1    1.69    1.85
  12 -20   1    0.03    2.23
 -12  20   0    6.51    2.09
 -12  20   0    0.47    2.06
  12 -20   0    4.72    2.77
 -12  20   1    3.28    2.63
 -12  20   1    2.27    1.72
  12 -20  -1    1.05    2.13
 -12  20   2    2.81    2.17
  12 -20  -2    2.51    2.12
 -12  20   3    0.13    2.00
  12 -20  -3    2.76    2.35
 -12  20   4   -1.66    1.99
  12 -20  -4    0.74    1.10
 -12  20   5   -0.19    2.12
 -12  20   6    0.85    2.21
 -12  20   7    4.16    2.41
  13 -21   6    0.44    2.43
  13 -21   5    2.82    2.52
  13 -21   4   -3.29    2.14
  13 -21   3    5.09    2.86
 -13  21  -2   -0.31    1.56
  13 -21   2    0.10    2.37
 -13  21  -1   -0.04    2.42
 -13  21  -1   -1.20    1.74
  13 -21   1    0.83    2.63
 -13  21   0    3.10    1.92
 -13  21   0    3.60    2.64
  13 -21   0   -0.54    2.08
 -13  21   1   -0.19    2.52
  13 -21  -1   -0.88    2.01
 -13  21   2    1.60    2.10
  13 -21  -2    1.27    2.44
 -13  21   3    5.50    2.74
  13 -21  -3    2.27    2.35
 -13  21   4   -1.31    2.44
 -13  21   5    3.16    2.37
 -13  21   6   -1.09    2.20
  14 -22   4    3.63    3.05
  14 -22   3    3.56    3.08
 -14  22  -2    0.00    1.61
  14 -22   2   -0.85    2.29
 -14  22  -1   -1.49    1.98
 -14  22  -1    1.62    1.98
  14 -22   1   -0.13    2.31
 -14  22   0   -0.58    1.81
 -14  22   0    1.08    2.52
  14 -22   0    3.31    2.76
 -14  22   1    4.18    2.78
  14 -22  -1    1.73    2.24
 -14  22   2   12.26    3.16
  14 -22  -2    5.21    2.69
 -14  22   3    1.42    2.18
 -14  22   4    4.57    2.50
 -22  13   4    7.77    2.67
 -22  13   3    1.36    2.19
 -22  13   2   -1.18    2.04
 -22  13   1    0.27    2.17
 -22  13   0    0.37    2.12
 -22  13  -1    2.50    2.19
 -22  13  -2    3.45    2.61
 -22  13  -3    3.40    2.34
  22 -13   4   12.05    2.53
 -22  13  -4    6.13    2.62
 -21  12   6    2.48    1.88
 -21  12   6    0.04    2.17
 -21  12   5   -1.88    2.00
 -21  12   4    1.87    2.26
 -21  12   3   -0.60    2.01
 -21  12   2   -0.91    2.05
 -21  12   1    2.25    2.20
 -21  12   0    0.15    2.02
 -21  12  -1    3.11    2.21
 -21  12  -2    1.37    2.47
  21 -12   3    1.75    0.60
 -21  12  -3    0.81    2.15
  21 -12   4    4.25    1.83
 -21  12  -4    3.88    2.32
  21 -12   5    1.51    2.01
 -21  12  -5    1.59    2.20
  21 -12   6    2.04    1.84
 -21  12  -6    1.94    2.17
 -20  11   8   -0.01    2.65
 -20  11   7    3.40    2.35
 -20  11   6    2.43    2.34
 -20  11   5    2.79    2.30
 -20  11   5    4.19    1.16
 -20  11   4    1.55    1.62
 -20  11   4    0.27    2.16
 -20  11   3   -2.53    1.86
 -20  11   2   -0.37    2.44
 -20  11   1    2.22    2.12
 -20  11   0    2.13    2.07
 -20  11  -1    3.27    2.28
  20 -11   2    4.63    1.79
 -20  11  -2    4.64    2.40
  20 -11   3    3.44    1.41
 -20  11  -3    2.46    2.22
  20 -11   4   -0.26    1.44
 -20  11  -4    1.01    1.78
 -20  11  -4    1.09    2.24
 -20  11  -5    2.26    2.22
 -20  11  -5    2.91    1.74
 -20  11  -6    6.37    2.49
 -20  11  -6    6.32    2.00
 -20  11  -7    6.43    2.46
 -20  11  -7    5.01    1.99
 -20  11  -8    2.17    1.93
 -20  11  -8    0.44    2.48
 -19  10   9    0.38    2.17
 -19  10   8    5.43    2.90
 -19  10   7   11.94    2.86
 -19  10   6    2.76    2.20
 -19  10   5    4.39    2.66
 -19  10   4    2.40    2.14
 -19  10   3    2.12    2.20
 -19  10   2    1.78    2.12
 -19  10   1   13.81    2.80
 -19  10   0    7.19    2.41
  19 -10   1   12.79    1.90
 -19  10  -1   11.99    2.00
 -19  10  -1   10.57    2.60
 -19  10  -2    1.74    1.60
 -19  10  -2    3.31    2.18
 -19  10  -3    2.79    2.07
 -19  10  -3    1.32    1.35
 -19  10  -4    1.79    1.77
 -19  10  -4   -0.63    1.89
 -19  10  -5    0.73    1.81
 -19  10  -5    0.40    2.09
 -19  10  -6    2.52    1.70
 -19  10  -6    4.37    2.34
 -19  10  -7   10.45    2.74
 -19  10  -7   15.51    2.58
 -19  10  -8    1.38    2.14
 -19  10  -8    1.29    1.96
 -19  10  -9    1.66    2.17
 -19  10  -9    1.27    2.10
 -18   9  10   -0.38    2.17
 -18   9   9    1.09    2.20
 -18   9   8   11.93    2.81
 -18   9   7    0.30    2.11
 -18   9   6    7.76    2.49
 -18   9   5   -2.10    1.89
 -18   9   4   12.86    2.66
 -18   9   3   -0.71    1.89
 -18   9   2    3.81    2.21
 -18   9   1    4.11    2.18
 -18   9   0   30.04    3.46
 -18   9   0   33.67    2.44
 -18   9  -1    4.50    2.22
 -18   9  -1    4.90    1.55
 -18   9  -2   -0.07    1.85
 -18   9  -2    1.42    1.46
 -18   9  -3   -0.83    1.77
 -18   9  -3   -0.15    1.48
 -18   9  -4   13.95    2.06
 -18   9  -4   12.40    2.66
 -18   9  -5    2.49    2.15
 -18   9  -5   -0.39    1.73
 -18   9  -6    8.91    2.32
 -18   9  -6   14.49    2.84
 -18   9  -7    4.65    2.17
 -18   9  -7   -0.14    1.63
 -18   9  -8   14.52    2.54
 -18   9  -8   16.15    3.18
 -18   9  -9    0.24    1.73
 -18   9  -9    1.78    2.06
 -18   9 -10   -3.17    1.64
 -18   9 -10    1.94    2.09
 -17   8  11   -0.49    2.21
 -17   8  10   -2.11    2.12
 -17   8   9    6.86    2.87
 -17   8   8    0.98    2.14
 -17   8   7    6.88    2.40
 -17   8   6    2.79    2.51
 -17   8   5    8.95    2.44
 -17   8   4    1.57    2.42
 -17   8   3    0.73    1.99
 -17   8   2    0.69    1.91
 -17   8   1   12.70    2.60
 -17   8   0    1.46    1.20
 -17   8   0    5.09    2.22
 -17   8  -1   10.32    2.53
 -17   8  -1   10.76    1.75
 -17   8  -2    2.13    2.09
 -17   8  -2   -0.11    1.42
 -17   8  -3    1.25    1.95
 -17   8  -3   -1.41    1.44
 -17   8  -4    0.35    1.86
 -17   8  -4    2.56    1.66
 -17   8  -5    7.60    2.33
 -17   8  -5    7.37    2.01
 -17   8  -6    4.28    2.06
 -17   8  -6    1.06    1.58
 -17   8  -7    9.21    2.38
 -17   8  -7    8.77    2.08
 -17   8  -8    2.01    2.25
 -17   8  -8    2.34    1.77
 -17   8  -9    1.12    1.97
 -17   8  -9    2.81    1.85
 -17   8 -10   -3.80    2.08
 -17   8 -10    2.85    1.91
 -17   8 -11   -0.77    1.84
 -17   8 -11   -0.83    1.85
 -16   7  11    1.81    2.34
 -16   7  10    0.37    2.26
 -16   7   9    2.50    2.33
 -16   7   8   -0.61    1.99
 -16   7   7    4.12    2.17
 -16   7   6    9.63    2.43
 -16   7   5    0.65    2.03
 -16   7   4    0.61    2.06
 -16   7   3    7.51    2.36
 -16   7   2    3.10    2.16
 -16   7   1   11.83    2.54
 -16   7   1    6.71    1.39
 -16   7   0   13.08    2.62
 -16   7   0    9.84    1.56
 -16   7  -1    6.48    1.59
 -16   7  -1    7.90    2.37
 -16   7  -2    3.36    2.21
 -16   7  -2    4.92    1.63
 -16   7  -3   11.83    1.85
 -16   7  -3   13.96    2.63
 -16   7  -4    1.82    1.46
 -16   7  -4   -0.79    1.77
 -16   7  -5    4.74    2.16
 -16   7  -5    8.27    2.02
 -16   7  -6    8.09    2.14
 -16   7  -6    7.13    2.25
 -16   7  -7    4.36    2.29
 -16   7  -7    2.62    1.68
 -16   7  -8   -1.39    1.78
 -16   7  -8    2.81    1.95
 -16   7  -9    2.45    1.93
 -16   7  -9    0.29    1.71
 -16   7 -10   -2.07    1.93
 -16   7 -10    0.07    2.31
 -16   7 -11   -0.52    2.06
 -16   7 -11    0.41    1.79
 -15   6  12   -2.56    2.52
 -15   6  11    7.15    2.57
 -15   6  10    6.73    2.42
 -15   6   9    2.85    2.27
 -15   6   8   -1.74    2.26
 -15   6   7   13.14    2.86
 -15   6   6    3.70    2.08
 -15   6   5   11.72    2.49
 -15   6   4   15.30    2.63
 -15   6   3    9.40    2.41
 -15   6   2   26.42    1.79
 -15   6   2   28.25    3.13
 -15   6   1   17.86    1.69
 -15   6   1   18.39    2.74
 -15   6   0   29.36    3.26
 -15   6   0   34.98    2.36
 -15   6  -1   19.72    1.98
 -15   6  -1   17.90    2.77
 -15   6  -2   31.06    3.53
 -15   6  -2   32.72    2.58
 -15   6  -3   11.05    2.44
 -15   6  -3    8.51    1.92
 -15   6  -4   15.14    2.61
 -15   6  -4   10.82    1.85
 -15   6  -5   10.33    2.40
 -15   6  -5   12.02    2.01
 -15   6  -6    0.38    1.44
 -15   6  -6   -1.50    1.99
 -15   6  -7    8.94    2.48
 -15   6  -7    7.48    2.08
 -15   6  -8    1.94    1.99
 -15   6  -8    2.16    1.73
 -15   6  -9    5.74    1.93
 -15   6  -9    5.30    2.01
 -15   6 -10   11.21    2.63
 -15   6 -10    8.00    2.38
 -15   6 -11    6.55    2.27
 -15   6 -11    0.77    1.83
 -15   6 -12    0.01    1.86
 -14   5  12    3.41    2.42
 -14   5  11   -0.31    2.17
 -14   5  10   17.83    2.99
 -14   5   9    0.19    2.08
 -14   5   8    7.66    2.31
 -14   5   7    7.24    2.29
 -14   5   6   22.12    2.94
 -14   5   5    4.97    2.18
 -14   5   4   51.67    3.77
 -14   5   3   27.71    3.04
 -14   5   3   27.26    1.60
 -14   5   2   60.39    2.68
 -14   5   2   61.06    4.04
 -14   5   1   12.22    2.35
 -14   5   1   11.20    1.43
 -14   5   0   12.54    1.62
 -14   5   0   13.40    2.41
 -14   5  -1    9.00    1.54
 -14   5  -1   11.41    2.28
 -14   5  -2   61.08    3.20
 -14   5  -2   54.27    3.82
 -14   5  -3   30.37    2.58
 -14   5  -3   26.67    3.02
 -14   5  -4   49.18    3.03
 -14   5  -4   47.72    3.55
 -14   5  -5    1.56    1.48
 -14   5  -5    2.49    1.99
 -14   5  -6   20.37    2.82
 -14   5  -6   24.25    2.54
 -14   5  -7   12.60    2.35
 -14   5  -7    9.93    2.00
 -14   5  -8    5.00    1.83
 -14   5  -8   11.63    2.44
 -14   5  -9    2.30    1.68
 -14   5  -9    0.39    1.89
 -14   5 -10   20.10    2.76
 -14   5 -10   21.55    2.96
 -14   5 -11    0.89    1.74
 -14   5 -11    2.30    2.09
 -14   5 -12    5.47    2.38
 -13   4  13   -0.10    2.32
 -13   4  12    5.32    2.46
 -13   4  11   10.94    2.75
 -13   4  10   -1.97    1.89
 -13   4   9   14.47    2.66
 -13   4   8    1.12    2.01
 -13   4   7    1.50    2.05
 -13   4   6   48.74    3.65
 -13   4   5   28.06    3.02
 -13   4   4    9.70    2.20
 -13   4   3   85.47    4.53
 -13   4   3   80.86    3.06
 -13   4   2   40.96    2.06
 -13   4   2   44.59    3.35
 -13   4   1   17.42    2.55
 -13   4   1   16.56    1.53
 -13   4   0    3.64    1.83
 -13   4   0    1.52    1.01
 -13   4  -1   18.33    1.81
 -13   4  -1   19.71    2.57
 -13   4  -2   39.49    3.36
 -13   4  -2   40.88    2.57
 -13   4  -3   83.30    4.39
 -13   4  -3   77.30    3.66
 -13   4  -4    9.14    2.10
 -13   4  -4    9.53    1.90
 -13   4  -5   29.50    3.03
 -13   4  -5   26.47    2.48
 -13   4  -6   55.38    3.88
 -13   4  -6   47.55    3.21
 -13   4  -7    0.31    1.48
 -13   4  -7    0.25    1.57
 -13   4  -8    2.47    1.65
 -13   4  -8    1.99    1.58
 -13   4  -9   21.08    2.84
 -13   4  -9   19.42    2.53
 -13   4 -10    3.31    1.71
 -13   4 -10   -0.53    1.54
 -13   4 -11   12.46    2.62
 -13   4 -12    0.06    1.74
 -13   4 -13   -0.53    2.06
 -12   3  13    1.91    2.35
 -12   3  12    1.29    2.30
 -12   3  11    1.91    2.26
 -12   3  10   20.59    3.06
 -12   3   9    0.23    2.04
 -12   3   8    0.04    2.00
 -12   3   7   17.50    2.66
 -12   3   6   13.90    2.43
 -12   3   5   17.88    2.56
 -12   3   4   67.47    2.48
 -12   3   4   64.33    3.86
 -12   3   3   14.46    1.21
 -12   3   3   13.99    2.29
 -12   3   2    7.14    1.92
 -12   3   2    9.06    1.10
 -12   3   1   21.19    1.67
 -12   3   1   25.89    2.75
 -12   3   0    1.93    0.95
 -12   3   0   -1.08    1.47
 -12   3  -1   23.05    1.95
 -12   3  -1   23.90    2.56
 -12   3  -2   13.42    1.74
 -12   3  -2   11.88    2.08
 -12   3  -3   13.55    2.17
 -12   3  -3   16.08    1.93
 -12   3  -4   68.32    3.98
 -12   3  -4   61.90    3.27
 -12   3  -5   13.79    1.91
 -12   3  -5   15.77    2.44
 -12   3  -6   17.37    2.32
 -12   3  -6   17.83    2.33
 -12   3  -7   21.68    2.45
 -12   3  -7   22.96    2.78
 -12   3  -8    4.27    1.91
 -12   3  -8    2.38    1.61
 -12   3  -9    3.68    1.69
 -12   3  -9    1.40    1.79
 -12   3 -10   17.85    2.51
 -12   3 -10   16.18    2.38
 -12   3 -11    1.24    1.76
 -12   3 -12    1.79    2.13
 -12   3 -13    5.30    2.15
 -11   2  14    1.96    2.51
 -11   2  13    0.64    2.31
 -11   2  12    2.28    2.27
 -11   2  11   14.58    2.88
 -11   2  10    1.54    2.07
 -11   2   9   11.65    2.53
 -11   2   8    9.13    2.43
 -11   2   7    7.44    2.27
 -11   2   6   50.99    3.58
 -11   2   5   11.15    2.14
 -11   2   5   13.22    0.98
 -11   2   4   24.86    2.67
 -11   2   4   26.70    1.43
 -11   2   3   78.13    4.03
 -11   2   3   75.90    2.88
 -11   2   2   29.19    2.82
 -11   2   2   22.99    1.52
 -11   2   1   15.22    2.21
 -11   2   1   17.41    1.48
 -11   2   0   11.83    1.38
 -11   2   0   10.88    1.95
 -11   2  -1   18.53    2.23
 -11   2  -1   16.92    1.54
 -11   2  -2   26.12    2.10
 -11   2  -2   27.46    2.55
 -11   2  -3   78.43    4.04
 -11   2  -3   86.82    3.82
 -11   2  -4   25.73    2.23
 -11   2  -4   27.96    2.70
 -11   2  -5   12.16    2.14
 -11   2  -5   11.88    1.80
 -11   2  -6   60.19    3.66
 -11   2  -6   58.18    3.31
 -11   2  -7    4.38    1.57
 -11   2  -7    7.57    1.77
 -11   2  -8   12.56    2.10
 -11   2  -8   14.26    2.32
 -11   2  -9   12.02    2.15
 -11   2  -9   13.46    2.32
 -11   2 -10    0.72    1.56
 -11   2 -10    4.52    1.80
 -11   2 -11   10.23    2.19
 -11   2 -12    3.37    1.80
 -11   2 -13    0.70    1.78
 -11   2 -14    3.94    2.05
 -10   1  14    1.44    2.47
 -10   1  13    2.19    2.73
 -10   1  12   -0.30    2.02
 -10   1  11    2.14    2.14
 -10   1  10   45.18    4.19
 -10   1   9   10.71    2.54
 -10   1   8    5.21    2.19
 -10   1   7   43.92    3.39
 -10   1   6   29.60    1.55
 -10   1   6   30.27    2.96
 -10   1   5    8.15    1.97
 -10   1   5   10.47    0.99
 -10   1   4   73.66    3.84
 -10   1   4   71.45    2.70
 -10   1   3   35.77    2.83
 -10   1   3   32.55    1.71
 -10   1   2  162.67    5.45
 -10   1   2  167.64    6.41
 -10   1   1   24.97    1.64
 -10   1   1   32.14    2.75
 -10   1   0   -0.94    1.53
 -10   1   0    0.24    0.86
 -10   1  -1   20.97    1.59
 -10   1  -1   26.78    2.44
 -10   1  -2  174.49    6.05
 -10   1  -2  167.22    6.49
 -10   1  -3   35.26    2.69
 -10   1  -3   31.40    2.14
 -10   1  -4   73.63    3.51
 -10   1  -4   77.25    3.86
 -10   1  -5    9.86    1.86
 -10   1  -5    6.09    1.51
 -10   1  -6   32.94    2.59
 -10   1  -6   29.10    2.55
 -10   1  -7   40.16    2.87
 -10   1  -8    5.80    1.71
 -10   1  -9    6.35    1.41
 -10   1  -9   11.89    2.07
 -10   1 -10   47.77    3.83
 -10   1 -11    3.63    1.74
 -10   1 -12    4.18    1.85
 -10   1 -13    2.40    1.87
 -10   1 -14    3.95    2.28
  -9   0  14   -0.80    2.28
  -9   0  13    0.52    2.23
  -9   0  12   -0.08    2.47
  -9   0  11   12.42    2.70
  -9   0  10   76.90    4.71
  -9   0   9   18.38    2.84
  -9   0   8    8.73    2.29
  -9   0   7   65.27    2.77
  -9   0   7   65.20    3.96
  -9   0   6   31.48    1.87
  -9   0   6   30.87    2.92
  -9   0   5   22.68    2.45
  -9   0   5   24.83    1.67
  -9   0   4   24.76    1.53
  -9   0   4   28.47    2.53
  -9   0   3  148.12    5.85
  -9   0   3  148.59    4.97
  -9   0   2  218.54    7.68
  -9   0   2  205.68    6.79
  -9   0   1   60.99    2.63
  -9   0   1   62.90    3.28
  -9   0   0   99.45    3.78
  -9   0   0   98.39    4.29
  -9   0  -1   63.18    3.26
  -9   0  -1   64.18    2.89
  -9   0  -2  195.10    7.23
  -9   0  -2  209.44    6.91
  -9   0  -3  151.00    5.45
  -9   0  -3  145.38    5.65
  -9   0  -4   24.68    2.11
  -9   0  -5   17.57    1.88
  -9   0  -5    7.81    1.30
   9   0   6   29.30    1.73
  -9   0  -6   31.11    2.37
  -9   0  -6   27.82    2.45
   9   0   7   66.57    2.80
  -9   0  -7   63.78    3.40
  -9   0  -7   62.48    3.56
   9   0   8    7.57    1.36
  -9   0  -8    8.54    1.84
  -9   0  -8   13.68    1.94
  -9   0  -9   16.12    2.10
  -9   0  -9   20.02    2.41
  -9   0 -10   72.76    4.12
  -9   0 -11   12.55    2.22
  -9   0 -12    2.34    1.75
  -9   0 -13    5.73    2.05
  -9   0 -14    0.05    1.71
  -8  -1  14   -0.77    2.23
  -8  -1  13   -0.59    2.11
  -8  -1  12    9.81    2.90
  -8  -1  11   22.18    3.33
  -8  -1  10    3.65    2.12
  -8  -1   9   32.77    3.36
  -8  -1   8   32.33    2.29
  -8  -1   8   36.74    3.30
  -8  -1   7   13.46    1.55
  -8  -1   7   10.09    2.15
  -8  -1   6   11.76    2.12
  -8  -1   6   16.18    1.58
  -8  -1   5   45.65    2.29
  -8  -1   5   47.97    3.06
  -8  -1   4   14.01    1.99
  -8  -1   4   13.82    1.39
  -8  -1   3  204.91    6.66
  -8  -1   3  203.88    7.42
  -8  -1   2    7.83    1.15
  -8  -1   2    7.17    1.50
  -8  -1   1   25.39    1.67
  -8  -1   1   24.99    2.14
  -8  -1   0  145.70    5.14
  -8  -1   0  148.42    5.63
  -8  -1  -1   24.72    2.12
  -8  -1  -1   22.89    1.68
  -8  -1  -2    7.52    1.23
  -8  -1  -2    4.77    1.11
  -8  -1  -3  124.97    4.77
  -8  -1  -4   13.48    1.63
  -8  -1  -4   12.60    1.59
   8   1   5   50.14    2.37
  -8  -1  -5   49.40    2.81
  -8  -1  -5   48.63    2.67
   8   1   6   16.11    1.49
  -8  -1  -6   14.54    1.68
  -8  -1  -6   14.32    1.86
   8   1   7   15.29    1.60
  -8  -1  -7   13.22    1.77
  -8  -1  -7   14.01    1.97
   8   1   8   34.22    2.24
  -8  -1  -8   31.31    2.77
  -8  -1  -8   34.68    2.57
   8   1   9   35.39    2.40
  -8  -1  -9   28.83    2.99
  -8  -1 -10    0.82    1.52
  -8  -1 -11   22.25    2.82
  -8  -1 -12   10.92    2.20
  -8  -1 -13    0.73    1.64
  -8  -1 -14   -0.72    1.56
  -7  -2  14   -1.38    2.10
  -7  -2  13    4.81    2.40
  -7  -2  12    3.75    2.26
  -7  -2  11    1.27    2.03
  -7  -2  10    0.83    1.92
  -7  -2   9    1.38    1.43
  -7  -2   9    3.76    2.06
  -7  -2   8   24.40    2.86
  -7  -2   8   24.66    2.12
  -7  -2   7   36.82    2.38
  -7  -2   7   43.81    3.18
  -7  -2   6   28.34    2.67
  -7  -2   6   26.04    2.01
  -7  -2   5   10.20    1.42
  -7  -2   5    8.30    1.77
  -7  -2   4  120.43    4.98
  -7  -2   4  119.82    4.37
  -7  -2   3   41.08    2.58
  -7  -2   3   40.22    2.16
  -7  -2   2    0.84    0.84
  -7  -2   2    2.52    1.22
  -7  -2   1   61.07    3.06
  -7  -2   1   57.94    2.60
  -7  -2   0   20.22    1.58
  -7  -2   0   23.50    2.03
  -7  -2  -1   55.86    2.63
  -7  -2  -2    1.94    1.10
  -7  -2  -2    2.93    1.02
  -7  -2  -3   36.59    2.16
  -7  -2  -3   38.03    2.24
   7   2   4  120.32    4.29
  -7  -2  -4  117.91    4.45
  -7  -2  -4  113.70    4.61
   7   2   5    8.43    1.21
  -7  -2  -5    9.74    1.30
  -7  -2  -5    8.48    1.46
   7   2   6   27.62    1.97
  -7  -2  -6   24.34    1.96
  -7  -2  -6   28.35    2.44
   7   2   7   38.64    2.40
  -7  -2  -7   39.53    2.76
  -7  -2  -7   41.16    2.35
   7   2   8   21.48    2.00
  -7  -2  -8   17.32    2.25
   7   2   9   -1.21    1.20
  -7  -2  -9    1.58    1.56
   7   2  10    2.37    1.41
  -7  -2 -10    1.99    1.58
  -7  -2 -11    2.53    1.59
  -7  -2 -12    6.01    2.13
  -7  -2 -13    8.60    2.12
  -7  -2 -14    5.08    2.23
  -6  -3  15   -0.24    2.31
  -6  -3  14   11.63    2.86
  -6  -3  13   -1.60    2.35
  -6  -3  12    3.79    2.57
  -6  -3  11    4.34    2.23
  -6  -3  10    0.13    2.23
  -6  -3  10    1.42    1.59
  -6  -3   9    0.85    1.92
  -6  -3   9   -0.24    1.51
  -6  -3   8   41.56    3.48
  -6  -3   8   42.48    2.65
  -6  -3   7    7.44    1.96
  -6  -3   7    5.18    1.44
  -6  -3   6  143.31    5.19
  -6  -3   6  141.89    5.89
  -6  -3   5   38.77    2.72
  -6  -3   5   36.64    2.28
  -6  -3   4    3.37    1.37
  -6  -3   4    4.56    1.20
  -6  -3   3    3.66    1.18
  -6  -3   3    1.33    1.17
  -6  -3   2    5.54    1.14
  -6  -3   2    5.32    1.45
  -6  -3   1    5.43    1.21
  -6  -3   1    3.87    1.22
  -6  -3   0  244.21    8.00
  -6  -3  -1    4.37    1.16
  -6  -3  -1    4.82    1.29
  -6  -3  -2    5.84    1.16
  -6  -3  -2    4.20    1.17
   6   3   3    2.51    1.06
  -6  -3  -3    1.78    0.97
  -6  -3  -3    0.03    0.93
   6   3   4    4.48    1.16
  -6  -3  -4    5.41    1.00
  -6  -3  -4    6.32    1.28
   6   3   5   37.46    2.15
  -6  -3  -5   33.78    2.33
  -6  -3  -5   33.57    1.89
   6   3   6  135.56    5.05
  -6  -3  -6  138.16    4.88
  -6  -3  -6  138.08    5.44
   6   3   7    6.37    1.44
  -6  -3  -7    7.47    1.18
  -6  -3  -7    6.81    1.59
   6   3   8   41.17    2.59
  -6  -3  -8   44.43    2.98
   6   3   9    1.02    1.42
  -6  -3  -9    0.13    1.42
   6   3  10    0.72    1.47
  -6  -3 -10    0.10    1.41
   6   3  11    2.37    1.53
  -6  -3 -11    4.87    1.73
   6   3  12    4.36    1.72
  -6  -3 -12    4.48    1.78
  -6  -3 -13    3.45    1.81
  -6  -3 -14    8.55    2.13
  -6  -3 -15   -0.99    1.61
  -5  -4  15    7.98    2.70
  -5  -4  14    3.82    2.39
  -5  -4  13   16.17    3.02
  -5  -4  12    1.10    2.06
  -5  -4  11    0.78    1.73
  -5  -4  11    1.63    2.03
  -5  -4  10    5.46    1.80
  -5  -4  10    0.54    1.98
  -5  -4   9   15.88    2.08
  -5  -4   9   15.71    2.56
  -5  -4   8   15.78    2.44
  -5  -4   8   11.77    1.81
  -5  -4   7  144.81    6.16
  -5  -4   7  148.06    5.53
  -5  -4   6   90.29    4.34
  -5  -4   6   87.99    3.83
  -5  -4   5   67.34    3.12
  -5  -4   5   63.57    3.41
  -5  -4   4   21.37    2.06
  -5  -4   4   19.97    1.89
  -5  -4   3   27.61    2.12
  -5  -4   3   27.28    2.24
  -5  -4   2   45.83    2.42
  -5  -4   2   42.93    2.37
  -5  -4   1  190.41    6.58
  -5  -4   1  189.53    6.58
  -5  -4   0   50.29    2.63
  -5  -4   0   53.28    2.51
  -5  -4  -1  190.58    6.49
  -5  -4  -1  183.16    6.31
  -5  -4  -2   41.11    2.09
  -5  -4  -2   39.04    2.34
   5   4   3   27.72    1.93
  -5  -4  -3   19.66    1.51
  -5  -4  -3   22.37    1.97
   5   4   4   20.75    1.74
  -5  -4  -4   22.00    1.97
  -5  -4  -4   18.41    1.30
   5   4   5   65.07    2.93
  -5  -4  -5   62.42    3.19
  -5  -4  -5   63.22    2.51
   5   4   6   88.11    3.77
  -5  -4  -6   86.48    3.23
  -5  -4  -6   85.49    3.98
   5   4   7  155.21    5.77
  -5  -4  -7  152.71    6.03
   5   4   8   14.58    1.77
  -5  -4  -8   16.34    2.13
   5   4   9   15.80    2.09
  -5  -4  -9   13.72    2.27
   5   4  10    3.33    1.63
  -5  -4 -10    2.66    1.57
   5   4  11    2.44    1.63
  -5  -4 -11    1.96    1.78
   5   4  12    0.00    1.58
  -5  -4 -12    2.07    1.50
   5   4  13   18.34    2.47
  -5  -4 -13   16.69    2.68
  -5  -4 -14    5.09    2.18
  -5  -4 -15    3.65    1.89
  -4  -5  15    5.49    2.68
  -4  -5  14    5.60    2.51
  -4  -5  13   21.53    3.22
  -4  -5  12    0.62    1.91
  -4  -5  12   -0.42    1.91
  -4  -5  11    2.54    1.70
  -4  -5  11    0.40    1.90
  -4  -5  10    2.40    1.92
  -4  -5  10    0.95    1.67
  -4  -5   9   15.21    2.08
  -4  -5   9   13.79    2.43
  -4  -5   8   11.64    1.75
  -4  -5   8   11.95    2.26
  -4  -5   7  159.71    5.94
  -4  -5   7  155.50    6.46
  -4  -5   6   89.28    3.98
  -4  -5   6   92.55    4.33
  -4  -5   5   69.05    3.50
  -4  -5   5   69.41    3.33
  -4  -5   4   20.29    1.82
  -4  -5   4   23.56    2.12
  -4  -5   3   20.54    1.90
  -4  -5   3   23.41    2.08
  -4  -5   2   39.82    2.40
  -4  -5   2   43.50    2.30
  -4  -5   1  186.29    6.49
  -4  -5   0   53.39    2.77
  -4  -5   0   55.51    2.49
  -4  -5  -1  179.18    6.00
  -4  -5  -1  181.10    6.37
   4   5   2   41.60    2.32
  -4  -5  -2   38.47    1.88
  -4  -5  -2   39.11    2.39
   4   5   3   22.49    1.87
  -4  -5  -3   22.63    2.01
  -4  -5  -3   23.13    1.34
   4   5   4   23.32    1.89
  -4  -5  -4   21.99    1.20
  -4  -5  -4   22.68    2.05
   4   5   5   63.97    3.07
  -4  -5  -5   67.16    2.40
  -4  -5  -5   66.13    3.33
   4   5   6   82.48    3.71
  -4  -5  -6   91.55    4.04
   4   5   7  165.53    5.91
  -4  -5  -7  139.50    5.90
   4   5   8   14.79    1.86
  -4  -5  -8   15.43    2.04
   4   5   9   19.96    2.18
  -4  -5  -9   16.23    2.26
   4   5  10    2.41    1.49
  -4  -5 -10    1.99    1.50
   4   5  11    0.40    1.37
  -4  -5 -11    2.42    1.57
   4   5  12    1.70    1.47
  -4  -5 -12    0.13    1.47
   4   5  13   17.68    2.57
  -4  -5 -13   17.98    2.52
   4   5  14    3.51    2.07
  -4  -5 -14    6.13    2.10
  -4  -5 -15    5.94    2.02
  -3  -6  15    2.63    2.34
  -3  -6  14   11.42    2.81
  -3  -6  13    0.16    2.07
  -3  -6  13   -0.25    1.86
  -3  -6  12    8.16    2.34
  -3  -6  12    2.08    1.85
  -3  -6  11    4.05    1.87
  -3  -6  11    2.65    1.96
  -3  -6  10    2.13    1.75
  -3  -6   9   -0.25    1.37
  -3  -6   8   46.26    3.09
  -3  -6   7    5.19    1.50
  -3  -6   6  143.91    5.47
  -3  -6   5   38.91    2.47
  -3  -6   4    3.14    1.46
  -3  -6   4    3.88    1.28
  -3  -6   3    4.05    1.31
  -3  -6   3   -0.20    1.31
  -3  -6   2    5.28    1.26
  -3  -6   2    6.29    1.37
  -3  -6   1    4.39    1.03
  -3  -6   1    3.46    1.29
  -3  -6   0  241.92    8.17
  -3  -6   0  240.81    7.82
   3   6   1    3.70    1.20
  -3  -6  -1    2.94    1.29
  -3  -6  -1    6.67    0.96
   3   6   2    4.30    1.26
  -3  -6  -2    4.20    0.81
  -3  -6  -2    4.80    1.30
   3   6   3    1.92    1.14
  -3  -6  -3    1.12    1.12
  -3  -6  -3    2.62    0.57
   3   6   4    5.26    1.27
  -3  -6  -4    4.93    1.32
  -3  -6  -4    4.77    0.42
   3   6   5   38.28    2.57
  -3  -6  -5   36.05    2.49
   3   6   6  141.39    5.53
  -3  -6  -6  142.54    5.63
   3   6   7    6.53    1.49
  -3  -6  -7    8.02    1.67
   3   6   8   43.50    2.85
  -3  -6  -8   39.62    2.86
   3   6   9    0.61    1.46
  -3  -6  -9   -0.69    1.65
   3   6  10    1.25    1.74
  -3  -6 -10    0.18    1.43
   3   6  11    4.07    1.63
  -3  -6 -11    8.73    2.13
   3   6  12    5.84    1.81
  -3  -6 -12    5.70    1.82
   3   6  13    1.22    1.64
  -3  -6 -13    1.66    1.55
   3   6  14    9.33    2.38
  -3  -6 -14   14.08    2.35
   3   6  15    0.39    2.04
  -3  -6 -15   -0.25    1.49
  -2  -7  14    1.35    2.02
  -2  -7  14    5.42    2.36
  -2  -7  13    6.02    1.91
  -2  -7  12    7.18    2.12
  -2  -7  11    1.94    1.61
  -2  -7  10   -2.05    1.46
  -2  -7   9    3.29    1.62
  -2  -7   8   23.07    2.33
  -2  -7   7   36.36    2.64
  -2  -7   6   20.79    2.11
  -2  -7   5    9.51    1.65
  -2  -7   4  126.11    5.08
  -2  -7   3   39.72    2.69
  -2  -7   2    2.28    1.29
  -2  -7   1   56.61    3.02
  -2  -7   1   57.92    2.60
  -2  -7   0   21.62    2.06
  -2  -7   0   21.38    1.51
   2   7   1   57.89    3.03
  -2  -7  -1   57.05    2.32
  -2  -7  -1   59.84    3.09
   2   7   2    2.99    1.27
  -2  -7  -2    2.30    0.65
  -2  -7  -2    1.86    1.33
   2   7   3   38.72    2.45
  -2  -7  -3   41.22    2.57
   2   7   4  113.33    4.62
  -2  -7  -4  118.47    4.79
   2   7   5    7.28    1.56
  -2  -7  -5    9.59    1.65
   2   7   6   24.77    2.26
  -2  -7  -6   28.76    2.47
   2   7   7   39.18    2.69
  -2  -7  -7   38.90    2.76
   2   7   8   25.35    2.64
  -2  -7  -8   21.98    2.39
   2   7   9    0.98    1.52
  -2  -7  -9   -0.56    1.43
   2   7  10    1.94    1.56
  -2  -7 -10    2.28    1.56
   2   7  11    1.39    1.57
  -2  -7 -11   -0.28    1.37
   2   7  12    6.90    2.18
  -2  -7 -12    5.50    1.81
   2   7  13    9.20    2.42
  -2  -7 -13    5.90    1.84
   2   7  14    2.11    1.78
  -2  -7 -14    2.00    1.60
  -1  -8  14    1.04    2.20
  -1  -8  13    1.20    2.06
  -1  -8  12   11.72    2.18
  -1  -8  11   19.71    2.67
  -1  -8  10    4.15    1.74
  -1  -8   9   33.09    2.91
  -1  -8   8   38.18    3.19
  -1  -8   7   10.21    1.90
  -1  -8   6   13.89    1.99
  -1  -8   5   55.73    3.32
  -1  -8   4   14.08    1.88
  -1  -8   3  198.99    7.10
  -1  -8   2    8.43    1.78
  -1  -8   1   24.18    2.18
   1   8   0  145.50    5.56
  -1  -8   0  142.04    5.51
   1   8   1   24.56    2.24
  -1  -8  -1   26.57    1.42
  -1  -8  -1   25.70    2.27
   1   8   2    6.11    1.26
  -1  -8  -2    6.98    0.74
  -1  -8  -2    7.07    1.59
   1   8   3  189.29    7.07
  -1  -8  -3  208.73    7.22
   1   8   4   14.50    1.85
  -1  -8  -4   11.50    1.77
   1   8   5   49.09    2.90
  -1  -8  -5   48.70    2.96
   1   8   6   13.59    1.91
  -1  -8  -6   13.64    1.88
   1   8   7   13.89    1.95
  -1  -8  -7   12.72    1.95
   1   8   8   34.18    2.88
  -1  -8  -8   33.29    3.01
   1   8   9   31.00    2.89
  -1  -8  -9   33.06    2.93
   1   8  10    2.90    2.00
  -1  -8 -10    4.43    1.88
   1   8  11   22.00    2.60
  -1  -8 -11   21.45    2.57
   1   8  12    8.15    2.40
  -1  -8 -12   12.58    2.37
   1   8  13    2.74    2.09
  -1  -8 -13    1.76    1.77
   1   8  14    1.80    1.89
  -1  -8 -14    3.00    1.84
   0  -9  14    0.80    2.28
   0  -9  13    3.47    2.27
   0  -9  12   -0.95    1.66
   0  -9  11    7.63    2.04
   0  -9  10   70.92    4.06
   0  -9   9   16.99    2.37
   0  -9   8    9.28    2.02
   0  -9   7   65.46    3.67
   0  -9   6   29.49    2.62
   0  -9   5   29.59    2.70
   0  -9   4   25.33    2.39
   0  -9   3  160.52    6.11
   0  -9   2  216.75    7.67
   0  -9   1   59.54    3.22
   0   9   0  105.38    4.48
   0  -9   0   97.30    4.36
   0   9   1   65.68    3.44
   0  -9  -1   68.29    3.48
   0   9   2  209.91    7.62
   0  -9  -2  215.93    7.65
   0  -9  -2  213.22    6.63
   0   9   3  155.12    6.02
   0  -9  -3  161.73    6.15
   0   9   4   28.45    2.35
   0  -9  -4   25.83    2.39
   0   9   5   25.07    2.38
   0  -9  -5   25.22    2.42
   0   9   6   32.38    2.72
   0  -9  -6   31.52    2.71
   0   9   7   65.26    3.70
   0  -9  -7   70.76    3.73
   0   9   8   12.77    2.46
   0  -9  -8   12.34    2.09
   0   9   9   18.78    2.55
   0  -9  -9   19.25    2.41
   0   9  10   66.95    3.97
   0  -9 -10   69.03    3.93
   0   9  11   15.29    2.59
   0  -9 -11   15.11    2.24
   0   9  12    2.48    1.79
   0  -9 -12   -0.23    1.32
   0   9  13    6.40    2.09
   0  -9 -13    4.90    1.96
   0   9  14   -1.10    2.06
   0  -9 -14    0.81    1.78
   1 -10  14    3.62    2.14
   1 -10  13    1.31    1.95
   1 -10  12    1.13    2.13
   1 -10  11    2.89    2.11
   1 -10  10   39.59    3.36
   1 -10   9   13.65    2.28
   1 -10   8    4.69    2.17
   1 -10   7   46.16    3.26
   1 -10   6   27.12    2.62
   1 -10   5    8.71    1.86
   1 -10   4   81.52    4.04
   1 -10   3   31.94    2.66
   1 -10   2  182.37    6.81
   1 -10   1   26.25    2.39
  -1  10   0    0.06    1.29
   1 -10   0   -2.57    1.23
  -1  10   1   27.14    2.13
   1 -10  -1   26.61    2.44
  -1  10   2  175.39    6.64
   1 -10  -2  176.24    6.64
  -1  10   3   33.44    2.68
   1 -10  -3   32.81    2.72
  -1  10   4   79.93    3.85
   1 -10  -4   71.58    4.00
  -1  10   5    6.57    1.75
   1 -10  -5    8.22    1.73
  -1  10   6   32.45    2.82
   1 -10  -6   32.52    2.86
  -1  10   7   41.99    3.08
   1 -10  -7   40.20    3.18
  -1  10   8    2.84    1.88
   1 -10  -8    6.25    1.78
  -1  10   9   11.36    2.26
   1 -10  -9   14.60    2.32
  -1  10  10   40.04    3.41
   1 -10 -10   44.94    3.42
  -1  10  11    0.73    1.75
   1 -10 -11    1.65    1.72
  -1  10  12    1.56    2.17
   1 -10 -12    2.25    1.81
  -1  10  13   -1.10    2.10
   1 -10 -13    1.40    1.76
  -1  10  14    8.04    2.33
   1 -10 -14    7.13    2.09
   2 -11  14    5.36    2.69
   2 -11  13    1.49    2.37
   2 -11  12    0.22    1.85
   2 -11  11   12.94    2.42
   2 -11  10    6.70    2.25
   2 -11   9   11.73    2.24
   2 -11   8    7.94    2.14
   2 -11   7    6.85    2.03
   2 -11   6   58.71    3.61
   2 -11   5    9.58    2.03
   2 -11   4   23.81    2.49
   2 -11   3   85.63    4.21
   2 -11   2   27.29    2.55
  -2  11  -1   16.15    2.12
   2 -11   1   15.50    2.08
  -2  11   0   13.47    2.04
   2 -11   0   12.50    2.01
  -2  11   1   15.44    2.09
   2 -11  -1   14.52    2.08
  -2  11   2   22.79    2.38
   2 -11  -2   22.67    2.39
  -2  11   3   82.56    4.01
   2 -11  -3   76.38    4.18
  -2  11   4   26.12    2.54
   2 -11  -4   29.29    2.71
  -2  11   5   11.76    2.03
   2 -11  -5   11.92    2.21
  -2  11   6   58.46    3.58
   2 -11  -6   54.37    3.42
  -2  11   7    8.42    2.01
   2 -11  -7    8.59    1.90
  -2  11   8    8.55    2.17
   2 -11  -8    8.33    2.12
  -2  11   9   14.38    2.44
   2 -11  -9   13.40    2.28
  -2  11  10    3.59    1.90
   2 -11 -10    4.05    1.81
  -2  11  11    9.55    2.27
   2 -11 -11    9.71    2.13
  -2  11  12    1.02    1.88
   2 -11 -12    4.11    1.96
  -2  11  13   -0.47    2.21
   2 -11 -13    2.42    1.72
  -2  11  14    3.44    2.15
   3 -12  13    0.75    2.08
   3 -12  12    0.68    1.95
   3 -12  11   -0.33    1.86
   3 -12  10   18.01    2.87
   3 -12   9   -0.53    1.74
   3 -12   8    1.36    1.78
   3 -12   7   17.79    2.51
   3 -12   6   18.24    2.47
   3 -12   5   19.02    2.69
   3 -12   4   65.15    3.81
   3 -12   3   12.06    2.15
   3 -12   2   12.00    2.07
  -3  12  -1   21.19    2.44
   3 -12   1   16.37    2.22
  -3  12   0    1.06    1.58
   3 -12   0   -0.57    1.46
  -3  12   1   25.38    2.55
   3 -12  -1   23.95    2.56
  -3  12   2   11.62    1.99
   3 -12  -2    9.83    1.96
  -3  12   3   12.46    2.03
   3 -12  -3   13.97    2.20
  -3  12   4   57.35    3.34
   3 -12  -4   66.86    3.70
  -3  12   5   17.25    2.36
   3 -12  -5   18.86    2.40
  -3  12   6   17.69    2.43
   3 -12  -6   15.23    2.23
  -3  12   7   20.73    2.61
   3 -12  -7   24.29    2.71
  -3  12   8    1.98    1.92
   3 -12  -8    3.06    1.60
  -3  12   9    0.70    1.79
   3 -12  -9    1.60    1.72
  -3  12  10   16.78    2.56
   3 -12 -10   17.19    2.32
  -3  12  11    1.68    1.96
   3 -12 -11   -0.07    1.54
  -3  12  12    4.95    2.16
  -3  12  13    3.91    2.48
   4 -13  13   -1.79    1.99
   4 -13  12   -2.80    2.19
   4 -13  11   15.30    2.98
   4 -13  10    2.54    1.98
   4 -13   9   19.45    2.72
   4 -13   8   -0.13    2.17
   4 -13   7    1.88    1.93
   4 -13   6   49.12    3.59
   4 -13   5   25.47    2.80
   4 -13   4   11.76    2.20
   4 -13   3   88.46    4.58
   4 -13   2   39.73    3.25
  -4  13  -1   18.44    2.45
   4 -13   1   18.30    2.41
  -4  13   0    2.57    1.79
   4 -13   0    0.13    1.66
  -4  13   1   17.65    2.38
   4 -13  -1   15.04    2.28
  -4  13   2   33.89    2.99
   4 -13  -2   42.50    3.12
  -4  13   3   78.94    4.19
   4 -13  -3   79.13    4.20
  -4  13   4   10.88    2.14
   4 -13  -4   12.75    2.20
  -4  13   5   22.33    2.73
   4 -13  -5   37.54    3.32
  -4  13   6   48.35    3.56
   4 -13  -6   51.77    3.46
  -4  13   7   -0.16    1.73
   4 -13  -7   -2.43    1.43
  -4  13   8   -0.24    1.92
   4 -13  -8    2.52    1.59
  -4  13   9   17.88    2.71
   4 -13  -9   23.13    2.75
  -4  13  10    0.01    1.90
   4 -13 -10    2.09    0.76
  -4  13  11   10.33    2.42
   4 -13 -11    6.72    1.77
  -4  13  12    3.15    2.08
  -4  13  13    0.21    1.95
   5 -14  12   -1.02    2.05
   5 -14  11   -1.11    1.98
   5 -14  10   26.09    3.41
   5 -14   9    0.63    1.90
   5 -14   8    6.51    2.21
   5 -14   7    8.13    2.23
   5 -14   6   18.59    2.67
   5 -14   5    5.67    2.13
   5 -14   4   46.42    3.51
   5 -14   3   27.34    2.94
   5 -14   2   57.25    3.82
  -5  14  -1   10.27    2.21
   5 -14   1    7.97    2.20
  -5  14   0   14.49    2.40
   5 -14   0   13.57    2.29
  -5  14   1   11.49    2.21
   5 -14  -1    8.21    2.13
  -5  14   2   61.27    3.84
   5 -14  -2   64.27    4.13
  -5  14   3   27.97    2.65
   5 -14  -3   26.62    2.79
  -5  14   4   52.93    3.63
   5 -14  -4   47.50    3.48
  -5  14   5    3.77    1.94
   5 -14  -5    5.04    1.92
  -5  14   6   21.18    2.71
   5 -14  -6   25.25    2.78
  -5  14   7    7.91    2.13
   5 -14  -7    9.59    2.21
  -5  14   8    5.79    2.19
   5 -14  -8    7.42    2.11
  -5  14   9    1.36    1.97
  -5  14  10   19.92    2.92
   5 -14 -10   16.31    2.46
  -5  14  11   -3.81    1.74
   5 -14 -11    1.98    1.72
  -5  14  12    3.77    2.17
   6 -15  12    1.98    2.27
   6 -15  11    2.89    2.28
   6 -15  10    5.07    2.27
   6 -15   9    4.10    2.14
   6 -15   8   -0.69    1.91
   6 -15   7    6.32    2.15
   6 -15   6   -1.07    2.16
   6 -15   5    9.73    2.32
   6 -15   4   12.93    2.44
   6 -15   3   11.49    2.41
   6 -15   2   29.70    3.33
  -6  15  -1   14.36    2.52
   6 -15   1   17.03    2.62
  -6  15   0   35.11    3.39
   6 -15   0   35.13    3.20
  -6  15   1   15.53    2.51
   6 -15  -1   15.17    2.56
  -6  15   2   27.54    3.04
   6 -15  -2   26.91    2.96
  -6  15   3   12.09    2.35
  -6  15   3   11.59    1.50
   6 -15  -3    7.48    2.14
  -6  15   4   14.85    2.47
   6 -15  -4   14.48    2.46
  -6  15   5    9.56    2.24
   6 -15  -5   10.78    2.22
  -6  15   6   -1.71    1.66
   6 -15  -6    1.51    1.64
  -6  15   7    9.04    2.27
   6 -15  -7   12.23    2.36
  -6  15   8   -0.94    1.78
  -6  15   9    6.75    2.33
   6 -15  -9    4.58    1.99
  -6  15  10    6.50    2.36
   6 -15 -10    9.17    2.20
  -6  15  11    2.69    2.17
  -6  15  12   -1.09    2.08
   7 -16  11   -2.22    1.98
   7 -16  10    0.41    2.10
   7 -16   9   -2.76    2.01
   7 -16   8    0.55    2.34
   7 -16   7    2.94    2.33
   7 -16   6   10.61    2.39
   7 -16   5    5.69    2.22
   7 -16   4    0.52    1.96
   7 -16   3   17.57    3.06
   7 -16   2    6.31    2.23
  -7  16  -1    9.28    2.32
   7 -16   1    7.19    2.28
  -7  16   0   11.21    2.36
   7 -16   0   10.84    2.38
  -7  16   1    6.31    2.21
   7 -16  -1    7.24    2.53
  -7  16   2    3.60    2.05
  -7  16   2    2.07    1.23
   7 -16  -2    5.34    2.44
  -7  16   3   11.51    2.49
   7 -16  -3   10.76    2.27
  -7  16   4    2.50    1.94
   7 -16  -4    0.29    2.12
  -7  16   5    1.02    1.85
   7 -16  -5    3.79    2.16
  -7  16   6    8.01    2.25
   7 -16  -6    5.19    2.12
  -7  16   7    2.07    2.03
  -7  16   8    1.58    2.00
   7 -16  -8    1.99    1.95
  -7  16   9    5.46    2.25
   7 -16  -9   -0.07    1.74
  -7  16  10   -0.29    2.02
  -7  16  11    1.81    2.15
   8 -17  11    0.30    2.28
   8 -17  10    0.11    2.58
   8 -17   9    1.23    2.14
   8 -17   8    4.90    2.24
   8 -17   7   11.25    2.57
   8 -17   6    5.11    2.25
   8 -17   5    7.44    2.34
   8 -17   4   -3.43    1.77
   8 -17   3   -0.76    1.88
   8 -17   2   -2.54    1.86
  -8  17  -1    9.90    2.46
   8 -17   1   10.13    2.45
  -8  17   0    3.63    2.08
   8 -17   0   -0.58    1.93
  -8  17   1   12.70    2.48
  -8  17   1   14.49    1.92
   8 -17  -1    8.93    2.34
  -8  17   2    1.39    1.93
  -8  17   2    2.74    1.34
   8 -17  -2    2.09    2.25
  -8  17   3    4.65    2.04
   8 -17  -3   -0.78    1.74
  -8  17   4   -2.43    1.77
   8 -17  -4   -1.78    1.93
  -8  17   5    5.39    2.07
   8 -17  -5    7.85    2.31
  -8  17   6    2.51    2.02
   8 -17  -6    5.60    1.72
  -8  17   7   10.39    2.51
   8 -17  -7   10.29    2.20
  -8  17   8    2.86    2.13
   8 -17  -8    3.72    2.05
  -8  17   9    0.35    2.01
  -8  17  10   -0.43    2.10
  -8  17  11    0.76    2.31
   9 -18  10    0.26    2.31
   9 -18   9    0.98    2.19
   9 -18   8   11.38    2.72
   9 -18   7    0.68    2.14
   9 -18   6    8.71    2.57
   9 -18   5   -0.52    1.97
   9 -18   4   12.25    2.68
   9 -18   3    0.80    2.12
   9 -18   2    1.41    2.11
  -9  18  -1    6.65    2.26
   9 -18   1    3.61    2.17
  -9  18   0   33.78    3.48
   9 -18   0   35.67    3.47
  -9  18   1    5.78    1.62
  -9  18   1    7.49    2.30
   9 -18  -1    6.27    2.52
  -9  18   2    1.23    1.95
   9 -18  -2   -0.68    2.14
  -9  18   3   -0.12    1.89
   9 -18  -3   -0.80    2.04
  -9  18   4   14.17    2.57
   9 -18  -4   13.36    2.65
  -9  18   5    0.71    2.02
   9 -18  -5    0.84    2.05
  -9  18   6   10.96    2.52
  -9  18   7    2.20    2.11
   9 -18  -7    1.45    1.98
  -9  18   8   15.75    2.99
  -9  18   9   -0.41    2.10
  -9  18  10   -1.68    2.01
  10 -19   9   -1.85    2.20
  10 -19   8    2.44    2.31
  10 -19   7   14.53    2.94
  10 -19   6    4.70    2.43
  10 -19   5    3.35    2.28
  10 -19   4    1.12    2.20
  10 -19   3    4.20    2.32
  10 -19   2    0.47    2.10
 -10  19  -1    8.15    2.40
  10 -19   1   11.42    2.97
 -10  19   0    5.45    1.80
 -10  19   0   12.35    2.56
  10 -19   0    4.21    2.27
 -10  19   1   12.35    2.14
 -10  19   1   11.81    2.56
  10 -19  -1   14.81    2.99
 -10  19   2    1.96    2.05
  10 -19  -2    1.67    2.27
 -10  19   3    1.82    2.07
  10 -19  -3   -0.13    1.85
 -10  19   4    0.88    1.97
  10 -19  -4   -1.30    2.11
 -10  19   5    4.41    2.22
  10 -19  -5    6.06    2.01
 -10  19   6    1.56    2.11
  10 -19  -6    4.68    2.23
 -10  19   7   12.30    2.82
 -10  19   8    1.70    2.25
 -10  19   9   -2.43    2.02
  11 -20   8   -0.80    2.35
  11 -20   7    4.36    2.55
  11 -20   6    1.09    2.35
  11 -20   5   -0.47    2.16
  11 -20   4   -3.98    2.09
  11 -20   3    3.46    2.46
  11 -20   2    4.34    2.41
 -11  20  -1    2.51    2.58
  11 -20   1    2.79    2.25
 -11  20   0   -0.14    1.66
 -11  20   0    0.20    2.03
  11 -20   0    2.13    2.57
 -11  20   1    5.33    2.32
  11 -20  -1    3.97    2.63
 -11  20   2    1.32    2.05
  11 -20  -2    0.82    2.45
 -11  20   3   -0.37    2.36
  11 -20  -3   -2.37    1.77
 -11  20   4   -3.13    2.30
  11 -20  -4    0.56    2.19
 -11  20   5    1.63    2.22
  11 -20  -5    1.50    0.69
 -11  20   6    5.36    2.80
 -11  20   7    4.82    2.75
 -11  20   8   -0.82    2.22
  12 -21   6    0.73    2.46
  12 -21   5    2.15    2.48
  12 -21   4   -0.57    2.29
  12 -21   3    0.73    2.30
  12 -21   2   -3.77    2.12
 -12  21  -1    2.79    2.60
  12 -21   1   -2.74    2.54
 -12  21   0    3.35    1.93
 -12  21   0    2.24    2.18
  12 -21   0   -0.91    2.56
 -12  21   1    4.25    2.37
  12 -21  -1   -0.57    2.45
 -12  21   2    0.16    2.11
  12 -21  -2    0.28    2.00
 -12  21   3    0.61    2.51
  12 -21  -3   -3.12    2.15
 -12  21   4    1.21    2.27
  12 -21  -4    1.62    2.14
 -12  21   5    2.30    2.28
 -12  21   6   -0.83    2.10
  13 -22   4    2.90    2.63
  13 -22   3   -1.90    2.35
  13 -22   2   -1.75    2.80
 -13  22  -1    3.81    2.33
  13 -22   1   -1.53    2.69
 -13  22   0    2.07    2.21
  13 -22   0    0.21    2.74
 -13  22   1   -3.19    1.98
  13 -22  -1   -3.32    2.46
 -13  22   2    2.01    2.34
  13 -22  -2    3.18    2.60
 -13  22   3   -3.39    2.39
  13 -22  -3   -0.41    2.38
 -13  22   4    9.61    2.69
 -23  13   1    4.63    2.83
 -23  13   0    0.85    2.18
 -23  13  -1    5.00    2.58
 -22  12   4    2.68    2.29
 -22  12   3    1.66    2.23
 -22  12   2    1.45    2.18
 -22  12   1    1.03    2.56
 -22  12   0    0.82    2.59
 -22  12  -1   -1.78    2.03
 -22  12  -2    2.20    2.31
 -22  12  -3    2.40    2.32
  22 -12   4    2.36    1.95
 -22  12  -4    2.82    2.53
 -21  11   6    0.55    2.25
 -21  11   5    0.03    2.52
 -21  11   4   -0.35    2.09
 -21  11   3    4.30    2.32
 -21  11   2   -0.66    1.99
 -21  11   1    0.52    2.08
 -21  11   0    1.25    2.26
 -21  11  -1   -0.42    1.98
 -21  11  -2    1.64    2.25
 -21  11  -3   -1.92    1.62
 -21  11  -3   -0.65    1.95
 -21  11  -4    0.11    2.54
 -21  11  -4    0.01    1.87
 -21  11  -5    2.87    2.30
 -21  11  -5    1.45    1.71
 -21  11  -6    4.70    2.27
 -21  11  -6    4.64    2.27
 -20  10   8   -2.24    2.10
 -20  10   7    1.11    2.67
 -20  10   6   13.56    2.86
 -20  10   5    0.33    2.13
 -20  10   4    1.58    2.12
 -20  10   3    0.58    2.17
 -20  10   2    5.85    2.33
 -20  10   1    1.14    2.10
 -20  10   0    7.66    2.55
 -20  10  -1   -0.91    1.97
 -20  10  -2    0.64    2.14
 -20  10  -2    3.80    1.73
 -20  10  -3    1.37    1.67
 -20  10  -3    0.43    2.45
 -20  10  -4    1.34    1.78
 -20  10  -4    1.71    2.14
 -20  10  -5    0.74    1.86
 -20  10  -5    2.90    2.28
 -20  10  -6   17.95    3.19
 -20  10  -6   15.71    2.52
 -20  10  -7    6.58    2.86
 -20  10  -7    1.27    1.78
 -20  10  -8    0.93    2.11
 -20  10  -8   -0.04    1.85
 -19   9   9    3.53    2.88
 -19   9   8    2.41    2.22
 -19   9   7   13.50    2.93
 -19   9   6    4.07    2.37
 -19   9   5    3.00    2.21
 -19   9   4    1.33    2.13
 -19   9   3    1.02    2.06
 -19   9   2    2.47    2.17
 -19   9   1    8.69    2.45
 -19   9   0    6.78    2.37
 -19   9  -1    5.26    2.38
 -19   9  -1    9.61    1.81
 -19   9  -2    2.02    2.09
 -19   9  -2    3.51    1.63
 -19   9  -3    0.65    1.54
 -19   9  -3    3.94    2.23
 -19   9  -4    1.72    1.52
 -19   9  -4   -0.16    1.97
 -19   9  -5    6.25    2.10
 -19   9  -5    6.81    2.45
 -19   9  -6    3.02    2.19
 -19   9  -6   -0.11    1.57
 -19   9  -7   13.88    2.50
 -19   9  -7   15.16    3.09
 -19   9  -8    1.77    2.14
 -19   9  -8    1.12    1.81
 -19   9  -9    0.05    2.15
 -19   9  -9   -0.77    1.89
 -18   8  10   -0.91    2.24
 -18   8   9   -2.06    2.03
 -18   8   8    4.92    2.41
 -18   8   7    9.57    3.00
 -18   8   6    1.79    2.14
 -18   8   5   10.55    2.64
 -18   8   4    5.15    2.22
 -18   8   3    2.44    2.03
 -18   8   2   -1.60    1.87
 -18   8   1   14.57    2.74
 -18   8   0   13.54    1.77
 -18   8   0   13.86    2.77
 -18   8  -1   15.40    2.83
 -18   8  -1   17.43    2.15
 -18   8  -2    3.40    2.15
 -18   8  -2    1.85    1.51
 -18   8  -3    2.17    1.59
 -18   8  -3    3.92    2.16
 -18   8  -4   -0.58    1.59
 -18   8  -4    3.43    2.13
 -18   8  -5    9.43    2.11
 -18   8  -5    6.60    2.44
 -18   8  -6    1.20    1.97
 -18   8  -6   -1.40    1.48
 -18   8  -7   14.36    2.78
 -18   8  -7   14.02    2.41
 -18   8  -8    5.85    2.66
 -18   8  -8    4.91    2.33
 -18   8  -9    0.27    1.76
 -18   8  -9    1.82    2.00
 -18   8 -10   -0.22    2.16
 -18   8 -10   -0.93    1.80
 -17   7  11   -1.53    2.26
 -17   7  10    1.23    2.31
 -17   7   9    4.16    2.39
 -17   7   8    2.37    2.24
 -17   7   7   -0.44    1.98
 -17   7   6   10.44    2.65
 -17   7   5    0.86    1.98
 -17   7   4    1.29    2.01
 -17   7   3    2.53    2.07
 -17   7   2   -1.55    1.83
 -17   7   1    3.23    2.15
 -17   7   0    6.39    2.39
 -17   7   0    4.83    1.49
 -17   7  -1    2.76    1.41
 -17   7  -1    4.08    2.14
 -17   7  -2    2.26    1.47
 -17   7  -2   -3.08    1.75
 -17   7  -3    0.37    1.90
 -17   7  -3   -0.48    1.22
 -17   7  -4    1.01    2.21
 -17   7  -4    1.17    1.38
 -17   7  -5   -0.34    1.64
 -17   7  -5    0.24    1.85
 -17   7  -6    8.56    2.19
 -17   7  -6   14.68    2.71
 -17   7  -7   -1.10    1.52
 -17   7  -7    1.40    1.86
 -17   7  -8    4.19    2.19
 -17   7  -8    3.20    2.39
 -17   7  -9    2.30    2.15
 -17   7  -9    5.59    2.51
 -17   7 -10    1.68    1.94
 -17   7 -10    0.95    1.83
 -17   7 -11   -0.25    1.81
 -17   7 -11   -0.12    1.94
 -16   6  11    3.22    2.83
 -16   6  10    5.23    2.51
 -16   6   9    4.12    2.73
 -16   6   8    0.98    2.13
 -16   6   7    4.57    2.19
 -16   6   6    6.00    2.25
 -16   6   5    4.32    2.12
 -16   6   4    1.02    2.04
 -16   6   3   18.57    2.89
 -16   6   2   17.42    2.77
 -16   6   1   14.22    1.67
 -16   6   1   10.67    2.52
 -16   6   0   -0.09    1.13
 -16   6   0   -1.55    1.98
 -16   6  -1   11.87    2.62
 -16   6  -1   10.92    1.71
 -16   6  -2   19.53    2.98
 -16   6  -2   21.55    2.30
 -16   6  -3   20.01    2.33
 -16   6  -3   14.34    2.63
 -16   6  -4    4.90    1.62
 -16   6  -4    3.81    2.29
 -16   6  -5    2.93    1.55
 -16   6  -5    0.90    2.19
 -16   6  -6    1.49    1.53
 -16   6  -6    4.53    2.00
 -16   6  -7    6.05    2.08
 -16   6  -7    3.61    1.71
 -16   6  -8    1.37    1.60
 -16   6  -8    0.09    1.65
 -16   6  -9    3.24    1.95
 -16   6  -9    2.12    1.80
 -16   6 -10    5.02    2.39
 -16   6 -10    4.42    2.42
 -16   6 -11   -1.65    1.70
 -16   6 -11   -1.87    2.00
 -15   5  12    2.10    2.47
 -15   5  11    7.10    2.71
 -15   5  10   -0.15    2.19
 -15   5   9    9.65    2.62
 -15   5   8    4.26    2.28
 -15   5   7    2.31    2.08
 -15   5   6    5.97    2.26
 -15   5   5   14.76    2.66
 -15   5   4    2.34    2.13
 -15   5   3   41.14    3.72
 -15   5   2   -1.19    0.98
 -15   5   2    1.20    2.01
 -15   5   1    9.94    1.45
 -15   5   1    5.12    2.24
 -15   5   0   42.99    3.76
 -15   5   0   39.34    2.47
 -15   5  -1    7.93    1.58
 -15   5  -1    8.09    2.31
 -15   5  -2   -1.97    1.72
 -15   5  -2    3.32    1.45
 -15   5  -3   43.69    3.84
 -15   5  -3   48.61    3.18
 -15   5  -4   -1.87    1.69
 -15   5  -4    1.39    1.42
 -15   5  -5   15.71    2.17
 -15   5  -5   10.87    2.39
 -15   5  -6    6.90    2.18
 -15   5  -6    7.96    1.86
 -15   5  -7    0.36    1.54
 -15   5  -7    1.93    1.73
 -15   5  -8    5.37    2.21
 -15   5  -8    3.18    1.75
 -15   5  -9   16.68    2.88
 -15   5  -9    9.84    2.45
 -15   5 -10    0.03    1.72
 -15   5 -10    3.83    1.90
 -15   5 -11    8.63    2.40
 -15   5 -11    4.30    2.37
 -15   5 -12    0.65    1.85
 -14   4  12    3.94    2.47
 -14   4  11    3.93    2.37
 -14   4  10    6.11    2.45
 -14   4   9   15.87    2.84
 -14   4   8    0.02    2.06
 -14   4   7   14.04    2.62
 -14   4   6    1.96    2.40
 -14   4   5   23.41    2.99
 -14   4   4   41.52    3.61
 -14   4   3   26.50    3.03
 -14   4   3   28.07    1.68
 -14   4   2   13.45    1.39
 -14   4   2   12.04    2.45
 -14   4   1   48.10    2.55
 -14   4   1   50.27    3.70
 -14   4   0   -0.67    1.01
 -14   4   0    0.28    1.82
 -14   4  -1   49.52    2.78
 -14   4  -1   45.53    3.57
 -14   4  -2   13.26    1.86
 -14   4  -2   12.40    2.36
 -14   4  -3   29.98    2.57
 -14   4  -3   30.27    3.36
 -14   4  -4   37.96    3.50
 -14   4  -4   41.58    2.82
 -14   4  -5   24.68    2.52
 -14   4  -5   23.23    2.90
 -14   4  -6    1.52    1.51
 -14   4  -6    2.63    1.81
 -14   4  -7   14.18    2.40
 -14   4  -7   19.19    2.46
 -14   4  -8    0.67    1.76
 -14   4  -8    0.56    1.49
 -14   4  -9   13.52    2.37
 -14   4  -9   20.36    2.66
 -14   4 -10   10.75    2.30
 -14   4 -10   12.09    2.63
 -14   4 -11    3.41    1.89
 -14   4 -11    4.07    1.88
 -14   4 -12    3.63    1.98
 -13   3  13    0.81    2.49
 -13   3  12    2.95    2.48
 -13   3  11    5.51    2.53
 -13   3  10   14.90    2.93
 -13   3   9    1.09    2.06
 -13   3   8   -0.38    1.94
 -13   3   7   14.49    2.91
 -13   3   6    9.37    2.42
 -13   3   5    2.79    2.03
 -13   3   4    8.27    2.26
 -13   3   3   11.27    1.22
 -13   3   3   11.33    2.33
 -13   3   2   74.78    4.24
 -13   3   2   70.04    2.99
 -13   3   1    0.78    1.84
 -13   3   1    0.62    1.04
 -13   3   0    0.08    1.72
 -13   3   0    2.56    1.10
 -13   3  -1   -3.10    1.50
 -13   3  -1    1.67    1.23
 -13   3  -2   75.69    4.46
 -13   3  -2   70.72    3.55
 -13   3  -3   18.56    2.47
 -13   3  -3   12.53    1.76
 -13   3  -4   11.59    1.74
 -13   3  -4   11.76    2.13
 -13   3  -5    2.84    1.71
 -13   3  -5    2.78    1.68
 -13   3  -6    9.07    2.13
 -13   3  -6    9.22    1.88
 -13   3  -7   13.99    2.14
 -13   3  -7   14.14    2.32
 -13   3  -8    4.70    2.00
 -13   3  -8    6.45    1.87
 -13   3  -9    1.90    1.78
 -13   3  -9    1.44    1.56
 -13   3 -10   14.90    2.43
 -13   3 -10   12.58    2.29
 -13   3 -11    5.52    1.97
 -13   3 -12    4.77    2.05
 -13   3 -13    2.52    1.96
 -12   2  13    4.42    2.62
 -12   2  12    1.87    2.35
 -12   2  11    7.43    2.54
 -12   2  10    6.31    2.41
 -12   2   9    4.88    2.24
 -12   2   8    1.09    2.02
 -12   2   7    4.43    2.20
 -12   2   6    0.00    1.84
 -12   2   5   17.06    2.54
 -12   2   4   12.31    1.13
 -12   2   4    8.50    2.14
 -12   2   3   37.62    3.23
 -12   2   3   35.80    1.87
 -12   2   2    4.29    1.04
 -12   2   2    4.35    1.84
 -12   2   1   -0.02    1.57
 -12   2   1    1.80    1.00
 -12   2   0    0.05    0.98
 -12   2   0   -0.41    1.55
 -12   2  -1    1.52    1.18
 -12   2  -1    1.35    1.57
 -12   2  -2    6.09    1.83
 -12   2  -2    4.88    1.41
 -12   2  -3   38.60    2.99
 -12   2  -3   38.91    2.71
 -12   2  -4   12.00    2.11
 -12   2  -4   11.85    1.95
 -12   2  -5   11.83    2.08
 -12   2  -5   14.56    2.33
 -12   2  -6   -0.18    1.54
 -12   2  -6   -0.04    1.72
 -12   2  -7    2.63    1.85
 -12   2  -7    1.13    1.52
 -12   2  -8    0.44    1.38
 -12   2  -8    2.32    1.58
 -12   2  -9    1.46    1.75
 -12   2  -9    2.35    1.58
 -12   2 -10    7.88    2.01
 -12   2 -10    6.58    1.89
 -12   2 -11    7.15    2.02
 -12   2 -12    1.73    1.76
 -12   2 -13    6.04    2.18
 -11   1  13    2.84    2.55
 -11   1  12    5.43    2.88
 -11   1  11    0.84    2.14
 -11   1  10    7.04    2.44
 -11   1   9    6.91    2.35
 -11   1   8    2.82    2.11
 -11   1   7    8.47    2.32
 -11   1   6   19.59    2.69
 -11   1   5   12.68    2.29
 -11   1   5   14.33    1.20
 -11   1   4   79.38    3.06
 -11   1   4   82.36    4.26
 -11   1   3   40.83    2.06
 -11   1   3   44.79    3.09
 -11   1   2    7.46    1.88
 -11   1   2    4.66    1.04
 -11   1   1    9.26    1.92
 -11   1   1    8.93    1.27
 -11   1   0    0.88    1.49
 -11   1   0    1.57    1.00
 -11   1  -1    8.80    1.44
 -11   1  -1    7.72    1.78
 -11   1  -2    6.17    1.71
 -11   1  -2    6.22    1.42
 -11   1  -3   50.00    2.75
 -11   1  -3   46.49    3.28
 -11   1  -4   83.36    4.22
 -11   1  -4   78.80    3.79
 -11   1  -5   14.44    2.07
 -11   1  -5   12.44    2.11
 -11   1  -6   18.46    2.31
 -11   1  -6   16.17    2.16
 -11   1  -7    4.95    1.67
 -11   1  -7    0.70    0.80
 -11   1  -8    4.96    1.71
 -11   1  -9    5.46    1.72
 -11   1  -9    7.18    1.89
 -11   1 -10    9.26    2.01
 -11   1 -10    9.81    2.07
 -11   1 -11    1.68    1.71
 -11   1 -12    4.61    1.98
 -11   1 -13    5.55    2.04
 -10   0  14    2.94    2.59
 -10   0  13    0.70    2.68
 -10   0  12    3.81    2.32
 -10   0  11   12.71    2.80
 -10   0  10    1.02    2.05
 -10   0   9   23.93    3.10
 -10   0   8   18.11    2.78
 -10   0   7    1.45    1.89
 -10   0   6    8.15    2.12
 -10   0   6    9.09    1.18
 -10   0   5   38.89    2.01
 -10   0   5   35.31    3.12
 -10   0   4    5.11    1.03
 -10   0   4    6.62    1.86
 -10   0   3  166.38    5.70
 -10   0   3  176.01    6.79
 -10   0   2    5.73    1.11
 -10   0   2    6.37    1.69
 -10   0   1   14.54    2.01
 -10   0   1   10.94    1.34
 -10   0   0   27.24    1.91
 -10   0   0   32.27    2.66
 -10   0  -1   12.35    1.45
 -10   0  -1   15.08    1.96
 -10   0  -2    7.36    1.72
 -10   0  -2    4.12    1.33
 -10   0  -3  174.01    6.19
 -10   0  -3  164.62    6.42
 -10   0  -4    3.97    1.36
 -10   0  -4    4.57    1.39
 -10   0  -6    7.85    1.74
 -10   0  -6   10.66    1.87
 -10   0  -7   -0.05    1.37
 -10   0  -7    1.33    1.42
 -10   0  -8   15.98    2.09
 -10   0  -8   15.01    2.24
 -10   0  -9   31.50    2.86
 -10   0  -9   23.83    2.68
 -10   0 -10   -0.38    1.47
 -10   0 -11   13.05    2.32
 -10   0 -12   -0.32    1.61
 -10   0 -13    1.92    1.81
 -10   0 -14    6.67    2.50
  -9  -1  14    4.43    2.97
  -9  -1  13   -1.11    2.17
  -9  -1  12    0.95    2.20
  -9  -1  11    5.58    2.38
  -9  -1  10   42.29    3.88
  -9  -1   9   13.95    2.65
  -9  -1   8    4.74    2.13
  -9  -1   7   43.46    3.44
  -9  -1   7   40.33    2.31
  -9  -1   6   30.78    2.98
  -9  -1   6   30.82    2.02
  -9  -1   5    9.03    1.36
  -9  -1   5    6.86    1.92
  -9  -1   4   83.87    4.10
  -9  -1   4   78.40    3.23
  -9  -1   3   34.17    2.60
  -9  -1   3   32.34    1.90
  -9  -1   2  169.54    5.87
  -9  -1   2  178.01    6.57
  -9  -1   1   31.81    2.63
  -9  -1   1   22.03    1.74
  -9  -1   0   -0.85    1.16
  -9  -1   0   -0.01    0.79
  -9  -1  -1   28.65    2.07
  -9  -1  -1   30.24    2.60
  -9  -1  -2  167.56    5.83
  -9  -1  -2  154.96    6.02
  -9  -1  -4   73.46    3.53
  -9  -1  -4   68.49    3.39
  -9  -1  -5   11.07    1.68
  -9  -1  -5    9.10    1.70
   9   1   6   32.60    2.02
  -9  -1  -6   36.05    2.61
  -9  -1  -6   33.59    2.73
   9   1   7   39.09    2.25
  -9  -1  -7   41.27    2.67
  -9  -1  -7   40.06    2.93
   9   1   8    2.96    1.27
  -9  -1  -8    5.11    1.79
  -9  -1  -8    2.63    1.38
  -9  -1  -9   14.34    1.93
  -9  -1  -9   11.88    2.13
  -9  -1 -10   43.46    3.25
  -9  -1 -11    2.02    1.68
  -9  -1 -12    3.55    2.10
  -9  -1 -13   -3.28    1.40
  -9  -1 -14    3.61    2.01
  -8  -2  14    0.88    2.33
  -8  -2  13    1.31    2.68
  -8  -2  12   -4.51    1.86
  -8  -2  11    4.85    2.29
  -8  -2  10   14.17    2.64
  -8  -2   9    5.47    2.53
  -8  -2   8    0.47    1.48
  -8  -2   8    4.88    2.11
  -8  -2   7   17.63    1.84
  -8  -2   7   17.90    2.56
  -8  -2   6   22.76    2.61
  -8  -2   6   25.33    2.02
  -8  -2   5   12.68    1.56
  -8  -2   5   14.42    2.13
  -8  -2   4   64.26    3.56
  -8  -2   4   68.73    2.98
  -8  -2   3   43.75    2.82
  -8  -2   3   45.56    2.41
  -8  -2   2   23.95    1.85
  -8  -2   2   26.36    2.29
  -8  -2   1   13.05    1.70
  -8  -2   1   15.37    1.55
  -8  -2   0   35.95    2.53
  -8  -2   0   34.64    2.17
  -8  -2  -1   13.47    1.66
  -8  -2  -1   11.27    1.41
  -8  -2  -2   23.28    1.93
  -8  -2  -2   20.12    1.97
  -8  -2  -3   40.69    2.47
  -8  -2  -3   43.29    2.53
  -8  -2  -4   62.70    3.19
  -8  -2  -4   64.50    3.09
   8   2   5   15.06    1.55
  -8  -2  -5   14.35    1.70
  -8  -2  -5   10.98    1.75
   8   2   6   25.84    1.99
  -8  -2  -6   24.19    2.39
  -8  -2  -6   24.59    2.10
   8   2   7   12.47    1.69
  -8  -2  -7   19.08    1.82
  -8  -2  -7   15.74    2.28
   8   2   8    1.04    1.37
  -8  -2  -8    5.20    1.44
  -8  -2  -8    0.52    1.48
   8   2   9    4.46    1.44
  -8  -2  -9    7.04    1.88
  -8  -2 -10   21.38    2.62
  -8  -2 -11    9.36    2.26
  -8  -2 -12    0.02    1.52
  -8  -2 -13    0.77    1.93
  -8  -2 -14    1.18    1.73
  -7  -3  14    0.98    2.29
  -7  -3  13    4.55    2.42
  -7  -3  12    0.57    2.11
  -7  -3  11    7.20    2.42
  -7  -3  10    3.00    2.11
  -7  -3   9    5.75    2.21
  -7  -3   9    3.71    1.72
  -7  -3   8   17.83    2.04
  -7  -3   8   17.37    2.61
  -7  -3   7   75.68    4.33
  -7  -3   7   79.40    3.69
  -7  -3   6    5.97    1.89
  -7  -3   6    4.71    1.44
  -7  -3   5   39.27    2.45
  -7  -3   5   43.96    2.99
  -7  -3   4    5.29    1.80
  -7  -3   4    6.67    1.37
  -7  -3   3   71.43    3.45
  -7  -3   3   64.80    3.00
  -7  -3   2   20.68    1.75
  -7  -3   2   20.97    2.01
  -7  -3   1   74.30    3.31
  -7  -3   1   75.05    3.41
  -7  -3   0  116.36    4.45
  -7  -3   0  117.05    4.59
  -7  -3  -1   78.88    3.45
  -7  -3  -1   74.33    3.30
  -7  -3  -2   16.98    1.87
  -7  -3  -2   20.22    1.79
  -7  -3  -3   70.17    3.12
  -7  -3  -3   72.35    3.38
   7   3   4    7.21    1.27
  -7  -3  -4    6.09    1.21
  -7  -3  -4    6.30    1.38
   7   3   5   41.25    2.36
  -7  -3  -5   42.21    2.30
  -7  -3  -5   42.75    2.69
   7   3   6    4.50    1.28
  -7  -3  -6    7.69    1.24
  -7  -3  -6    5.98    1.55
   7   3   7   76.88    3.56
  -7  -3  -7   75.18    3.29
  -7  -3  -7   70.41    3.84
   7   3   8   14.41    1.87
  -7  -3  -8   21.96    2.41
   7   3   9    5.91    1.74
  -7  -3  -9    3.44    1.67
   7   3  10    4.85    1.62
  -7  -3 -10    7.27    1.86
  -7  -3 -11    3.53    1.72
  -7  -3 -12    6.08    1.91
  -7  -3 -13   10.03    2.21
  -7  -3 -14    0.24    2.01
  -6  -4  14    3.17    2.40
  -6  -4  13    9.70    2.79
  -6  -4  12    2.49    2.21
  -6  -4  11    0.49    1.99
  -6  -4  10    2.53    1.74
  -6  -4  10    1.11    1.99
  -6  -4   9   15.41    2.23
  -6  -4   9   11.71    2.50
  -6  -4   8   21.92    2.84
  -6  -4   8   26.60    2.42
  -6  -4   7  119.78    5.01
  -6  -4   7  130.41    5.71
  -6  -4   6   42.67    3.44
  -6  -4   6   40.43    2.67
  -6  -4   5   73.55    3.71
  -6  -4   5   65.29    3.31
  -6  -4   4    1.92    1.36
  -6  -4   4    2.08    1.32
  -6  -4   3   29.38    2.26
  -6  -4   3   28.04    2.41
  -6  -4   2    9.94    1.44
  -6  -4   2    9.90    1.66
  -6  -4   1  159.54    5.81
  -6  -4   1  163.84    5.92
  -6  -4   0   42.72    2.19
  -6  -4  -1  154.30    5.48
  -6  -4  -1  146.14    5.49
  -6  -4  -2    8.92    1.37
  -6  -4  -2    8.04    1.39
   6   4   3   26.25    2.02
  -6  -4  -3   27.83    1.77
  -6  -4  -3   27.10    2.07
   6   4   4    2.93    1.07
  -6  -4  -4    3.72    1.27
  -6  -4  -4    1.17    0.82
   6   4   5   65.99    3.16
  -6  -4  -5   67.06    2.73
  -6  -4  -5   62.92    3.33
   6   4   6   41.68    2.44
  -6  -4  -6   42.09    2.08
  -6  -4  -6   42.32    2.80
   6   4   7  115.59    4.68
  -6  -4  -7  110.61    4.97
   6   4   8   22.94    2.26
  -6  -4  -8   21.27    2.46
   6   4   9   12.52    2.02
  -6  -4  -9   13.81    2.19
   6   4  10   -1.35    1.45
  -6  -4 -10    0.41    1.49
   6   4  11   -0.76    1.57
  -6  -4 -11    0.56    1.56
   6   4  12    2.02    1.79
  -6  -4 -12    5.51    1.91
  -6  -4 -13   16.05    2.57
  -6  -4 -14    3.47    1.89
  -5  -5  14   16.38    3.16
  -5  -5  13    2.13    2.32
  -5  -5  12    5.36    2.33
  -5  -5  11    8.73    2.45
  -5  -5  11    7.72    1.97
  -5  -5  10    7.22    2.25
  -5  -5  10    6.11    1.89
  -5  -5   9   13.57    2.57
  -5  -5   9   18.09    2.31
  -5  -5   8   87.73    4.18
  -5  -5   8   86.11    4.72
  -5  -5   7   10.78    2.20
  -5  -5   7    9.60    1.69
  -5  -5   6  314.37   10.97
  -5  -5   6  310.18   10.29
  -5  -5   5   53.81    3.04
  -5  -5   5   53.59    3.19
  -5  -5   4    1.24    1.38
  -5  -5   4    0.06    1.20
  -5  -5   3   89.06    3.91
  -5  -5   3   86.35    3.82
  -5  -5   2  133.28    5.17
  -5  -5   2  143.99    5.24
  -5  -5   1   59.23    3.00
  -5  -5   0  265.32    8.89
  -5  -5   0  266.76    8.76
  -5  -5  -1   55.34    2.87
  -5  -5  -1   53.29    2.58
  -5  -5  -2  137.86    5.23
  -5  -5  -2  134.66    4.80
   5   5   3   90.94    3.81
  -5  -5  -3   83.56    3.24
  -5  -5  -3   83.07    3.76
   5   5   4    2.86    1.17
  -5  -5  -4    1.22    1.18
  -5  -5  -4    0.52    0.68
   5   5   5   50.14    2.74
  -5  -5  -5   51.59    2.11
  -5  -5  -5   53.95    3.04
   5   5   6  297.42    9.83
  -5  -5  -6  288.52    9.20
  -5  -5  -6  299.80   10.10
   5   5   7   12.78    1.96
  -5  -5  -7   12.13    2.15
   5   5   8   75.52    3.86
  -5  -5  -8   75.11    4.01
   5   5   9   21.24    2.41
  -5  -5  -9   17.64    2.43
   5   5  10    4.20    1.81
  -5  -5 -10    6.04    1.86
   5   5  11    8.12    2.02
  -5  -5 -11    8.43    1.99
   5   5  12    6.08    2.03
  -5  -5 -12    7.85    2.26
   5   5  13   -0.39    1.87
  -5  -5 -13    1.91    1.68
  -5  -5 -14   18.13    2.93
  -4  -6  14    1.25    2.29
  -4  -6  13   12.92    2.90
  -4  -6  12    4.89    2.25
  -4  -6  12    1.15    2.12
  -4  -6  11    4.56    2.09
  -4  -6  11    0.90    1.76
  -4  -6  10    1.07    1.73
  -4  -6  10    2.71    1.99
  -4  -6   9   13.21    2.22
  -4  -6   9   12.07    2.46
  -4  -6   8   23.20    2.32
  -4  -6   8   20.00    2.68
  -4  -6   7  115.52    5.02
  -4  -6   7  120.26    5.43
  -4  -6   6   48.62    3.13
  -4  -6   6   50.74    3.26
  -4  -6   5   67.66    3.57
  -4  -6   5   70.69    3.40
  -4  -6   4    2.43    1.52
  -4  -6   4    1.18    1.23
  -4  -6   3   29.36    2.43
  -4  -6   3   30.28    2.17
  -4  -6   2    6.54    1.48
  -4  -6   2    7.69    1.29
  -4  -6   1  155.59    5.88
  -4  -6   0   80.44    3.63
  -4  -6   0   75.34    3.16
  -4  -6  -1  159.02    5.92
  -4  -6  -1  157.09    5.42
   4   6   2    5.23    1.35
  -4  -6  -2    5.20    1.40
  -4  -6  -2    8.52    1.10
   4   6   3   31.55    2.16
  -4  -6  -3   22.54    1.40
  -4  -6  -3   28.00    2.28
   4   6   4    3.75    1.45
  -4  -6  -4    3.29    0.60
  -4  -6  -4    5.51    1.46
   4   6   5   65.74    3.28
  -4  -6  -5   67.61    2.32
  -4  -6  -5   67.71    3.47
   4   6   6   46.11    2.96
  -4  -6  -6   43.02    2.92
   4   6   7  120.47    4.92
  -4  -6  -7  113.58    5.06
   4   6   8   20.09    2.41
  -4  -6  -8   22.89    2.50
   4   6   9   11.70    1.96
  -4  -6  -9   12.25    2.14
   4   6  10    0.37    1.47
  -4  -6 -10    1.30    1.50
   4   6  11    2.12    1.60
  -4  -6 -11    2.20    1.61
   4   6  12    1.38    1.90
  -4  -6 -12    1.67    1.89
   4   6  13   12.94    2.54
  -4  -6 -13   12.26    2.62
   4   6  14    3.87    2.21
  -4  -6 -14    4.39    1.88
  -3  -7  14    0.92    2.20
  -3  -7  13    6.85    2.01
  -3  -7  13    3.86    2.39
  -3  -7  12    6.41    2.29
  -3  -7  12    0.18    1.59
  -3  -7  11    7.69    2.15
  -3  -7  11    6.38    2.22
  -3  -7  10    4.75    1.73
  -3  -7  10    1.51    1.89
  -3  -7   9    5.67    2.06
  -3  -7   8   16.86    2.34
  -3  -7   7   72.84    3.74
  -3  -7   6    5.34    1.83
  -3  -7   5   42.73    2.77
  -3  -7   4    5.49    1.43
  -3  -7   4    6.96    1.70
  -3  -7   3   68.97    3.47
  -3  -7   3   73.98    3.47
  -3  -7   2   15.37    1.90
  -3  -7   2   18.90    1.76
  -3  -7   1   78.53    3.69
  -3  -7   1   79.32    3.29
  -3  -7   0  120.70    4.86
  -3  -7   0  116.85    4.32
   3   7   1   76.24    3.56
  -3  -7  -1   75.00    3.63
  -3  -7  -1   75.48    2.99
   3   7   2   18.34    1.90
  -3  -7  -2   15.76    1.27
  -3  -7  -2   22.38    2.09
   3   7   3   71.59    3.49
  -3  -7  -3   61.05    2.27
  -3  -7  -3   64.90    3.34
   3   7   4    4.71    1.61
  -3  -7  -4    5.88    1.53
   3   7   5   42.95    2.68
  -3  -7  -5   40.91    2.79
   3   7   6    6.24    1.62
  -3  -7  -6    5.42    1.63
   3   7   7   75.92    3.82
  -3  -7  -7   76.24    3.96
   3   7   8   15.14    2.14
  -3  -7  -8   18.15    2.30
   3   7   9    4.17    1.68
  -3  -7  -9    6.01    1.83
   3   7  10    5.03    2.04
  -3  -7 -10    4.07    1.76
   3   7  11    8.22    2.21
  -3  -7 -11    4.76    1.74
   3   7  12    3.30    2.12
  -3  -7 -12    4.52    2.00
   3   7  13    5.91    2.21
  -3  -7 -13    7.81    2.06
   3   7  14   -1.85    2.00
  -3  -7 -14   -0.97    1.46
  -2  -8  14    0.28    2.35
  -2  -8  14    3.64    2.37
  -2  -8  13    0.54    2.16
  -2  -8  12   -2.67    1.88
  -2  -8  11    6.28    1.93
  -2  -8  10   18.54    2.64
  -2  -8   9    4.10    2.06
  -2  -8   8    2.29    1.97
  -2  -8   7   16.04    2.16
  -2  -8   6   27.83    2.53
  -2  -8   5   11.83    1.89
  -2  -8   4   70.53    3.58
  -2  -8   3   43.19    2.79
  -2  -8   2   19.26    2.16
  -2  -8   1   12.70    1.87
  -2  -8   1   13.42    1.45
  -2  -8   0   36.79    1.96
  -2  -8   0   33.30    2.55
   2   8   1   15.99    1.95
  -2  -8  -1   16.75    1.29
  -2  -8  -1   13.17    1.92
   2   8   2   22.55    2.16
  -2  -8  -2   22.11    2.25
  -2  -8  -2   22.34    1.33
   2   8   3   43.24    2.73
  -2  -8  -3   41.11    2.77
  -2  -8  -3   41.07    1.42
   2   8   4   66.84    3.42
  -2  -8  -4   66.44    3.53
   2   8   5   12.58    2.08
  -2  -8  -5   12.46    1.95
   2   8   6   23.09    2.32
  -2  -8  -6   22.95    2.43
   2   8   7   18.71    2.24
  -2  -8  -7   21.69    2.41
   2   8   8    3.26    1.99
  -2  -8  -8    1.96    1.82
   2   8   9    7.23    1.90
  -2  -8  -9    6.82    1.86
   2   8  10   17.70    2.68
  -2  -8 -10   14.52    2.43
   2   8  11    8.23    2.06
  -2  -8 -11    7.58    1.97
   2   8  12    1.81    1.79
  -2  -8 -12   -1.48    1.40
   2   8  13   -1.86    1.61
  -2  -8 -13    0.98    1.80
   2   8  14    1.50    1.82
  -2  -8 -14    1.57    1.62
  -1  -9  14    3.02    2.16
  -1  -9  13    1.04    1.96
  -1  -9  12    1.48    1.84
  -1  -9  11    7.56    2.33
  -1  -9  10   49.59    3.83
  -1  -9   9   12.46    2.25
  -1  -9   8    4.24    1.84
  -1  -9   7   44.86    3.19
  -1  -9   6   32.18    2.83
  -1  -9   5    9.11    1.92
  -1  -9   4   77.70    3.91
  -1  -9   3   32.92    2.67
  -1  -9   2  170.62    6.45
  -1  -9   1   26.25    2.42
  -1  -9   0    0.47    1.41
   1   9   1   29.46    2.55
  -1  -9  -1   25.44    1.52
  -1  -9  -1   32.52    2.61
   1   9   2  174.87    6.59
  -1  -9  -2  179.35    6.61
  -1  -9  -2  167.99    5.53
   1   9   3   33.93    2.56
  -1  -9  -3   32.94    2.77
   1   9   4   72.84    3.73
  -1  -9  -4   75.19    3.82
   1   9   5    9.13    1.79
  -1  -9  -5    5.32    1.69
   1   9   6   32.12    2.80
  -1  -9  -6   32.74    2.86
   1   9   7   40.97    3.06
  -1  -9  -7   43.51    3.08
   1   9   8    5.35    1.93
  -1  -9  -8    3.88    1.97
   1   9   9   13.52    2.53
  -1  -9  -9    8.96    1.98
   1   9  10   40.25    3.42
  -1  -9 -10   41.74    3.21
   1   9  11    3.38    2.22
  -1  -9 -11    3.01    1.65
   1   9  12    2.22    1.94
  -1  -9 -12    3.39    1.89
   1   9  13    0.92    2.14
  -1  -9 -13   -0.46    1.72
   1   9  14    4.22    2.00
  -1  -9 -14    5.49    2.15
   0 -10  14    1.55    2.09
   0 -10  13    2.38    2.08
   0 -10  12    3.83    2.35
   0 -10  11   13.46    2.46
   0 -10  10    0.02    1.75
   0 -10   9   26.22    3.12
   0 -10   8   15.35    2.42
   0 -10   7    1.34    1.71
   0 -10   6    9.12    2.03
   0 -10   5   38.27    3.04
   0 -10   4    8.90    1.92
   0 -10   3  184.12    6.97
   0 -10   2    3.56    1.61
   0 -10   1   13.02    2.02
   0  10   0   33.41    2.78
   0 -10   0   29.22    2.60
   0  10   1   13.07    2.02
   0 -10  -1   13.26    2.05
   0  10   2    4.69    1.63
   0 -10  -2    7.17    1.79
   0 -10  -2    5.43    0.79
   0  10   3  181.77    6.87
   0 -10  -3  179.87    6.91
   0  10   4    9.11    1.82
   0 -10  -4    3.68    1.65
   0  10   5   35.42    2.93
   0 -10  -5   35.84    3.02
   0  10   6   10.18    2.00
   0 -10  -6   11.23    1.99
   0  10   7   -1.38    1.61
   0 -10  -7    0.75    1.52
   0  10   8   16.32    2.47
   0 -10  -8   21.40    2.83
   0  10   9   29.39    3.05
   0 -10  -9   35.94    3.33
   0  10  10    0.21    1.70
   0 -10 -10   -0.22    1.41
   0  10  11   16.88    2.56
   0 -10 -11   17.68    2.45
   0  10  12    2.40    1.96
   0 -10 -12    0.66    1.51
   0  10  13    0.75    1.92
   0 -10 -13    4.93    2.03
   0  10  14    2.24    2.06
   0 -10 -14    3.86    2.00
   1 -11  13    2.96    2.55
   1 -11  12    2.75    2.12
   1 -11  11    0.85    1.89
   1 -11  10   12.46    2.36
   1 -11   9    5.88    2.06
   1 -11   8    5.38    2.29
   1 -11   7    5.49    2.00
   1 -11   6   19.74    2.48
   1 -11   5   11.09    2.19
   1 -11   4   84.31    4.32
   1 -11   3   39.71    3.02
   1 -11   2    7.00    1.81
   1 -11   1   10.63    1.96
  -1  11   0    4.19    1.67
   1 -11   0    2.27    1.57
  -1  11   1   12.17    2.01
   1 -11  -1   10.38    1.99
  -1  11   2    4.38    1.68
   1 -11  -2    6.14    1.80
  -1  11   3   47.59    3.13
   1 -11  -3   47.45    3.44
   1 -11  -3   44.00    1.65
  -1  11   4   73.64    3.98
   1 -11  -4   82.90    4.20
  -1  11   5   14.00    2.19
   1 -11  -5   11.08    2.07
  -1  11   6   15.48    2.30
   1 -11  -6   15.19    2.27
  -1  11   7    4.14    1.88
   1 -11  -7    6.77    1.94
  -1  11   8    2.14    1.80
   1 -11  -8    3.21    1.69
  -1  11   9    5.01    2.04
   1 -11  -9   11.75    2.14
  -1  11  10   10.09    2.37
   1 -11 -10   11.24    2.13
  -1  11  11    0.90    1.89
   1 -11 -11    2.48    1.88
  -1  11  12    1.74    1.99
   1 -11 -12    2.59    1.89
  -1  11  13    0.77    1.96
   1 -11 -13    6.48    2.09
   2 -12  13    2.65    2.32
   2 -12  12   -0.08    2.36
   2 -12  11   11.64    2.50
   2 -12  10   10.09    2.62
   2 -12   9    1.86    1.92
   2 -12   8    2.31    1.91
   2 -12   7   -0.41    1.79
   2 -12   6    1.41    1.83
   2 -12   5   16.66    2.43
   2 -12   4   12.54    2.28
   2 -12   3   34.58    3.07
   2 -12   2    4.40    1.78
   2 -12   1    1.88    1.97
  -2  12   0    0.88    1.67
   2 -12   0   -0.53    1.58
  -2  12   1    2.38    1.68
   2 -12  -1    1.11    1.64
  -2  12   2    4.90    1.77
   2 -12  -2    4.86    1.88
  -2  12   3   38.07    3.01
   2 -12  -3   41.48    3.29
  -2  12   4   12.54    2.17
   2 -12  -4   14.76    2.54
  -2  12   5    7.79    2.05
   2 -12  -5   12.69    2.20
  -2  12   6    1.47    1.85
   2 -12  -6   -0.02    1.90
  -2  12   7    0.88    1.77
   2 -12  -7    1.09    1.90
  -2  12   8   -0.74    1.76
   2 -12  -8    2.32    1.97
  -2  12   9    3.97    1.94
   2 -12  -9    2.01    1.63
  -2  12  10    8.36    2.29
   2 -12 -10    9.30    2.22
  -2  12  11    9.42    2.44
   2 -12 -11   13.13    2.49
  -2  12  12    0.54    1.92
   2 -12 -12    0.30    1.82
  -2  12  13    3.16    2.19
   2 -12 -13    4.51    1.92
   3 -13  13    1.39    2.29
   3 -13  12    6.09    2.74
   3 -13  11    3.57    2.52
   3 -13  10    8.58    2.39
   3 -13   9    3.80    2.35
   3 -13   8    2.23    1.95
   3 -13   7   12.41    2.48
   3 -13   6    8.23    2.23
   3 -13   5    1.08    1.87
   3 -13   4   12.72    2.37
   3 -13   3   12.08    2.28
   3 -13   2   73.24    4.19
  -3  13  -1   -0.30    1.67
   3 -13   1    3.93    1.89
  -3  13   0    3.43    1.81
   3 -13   0    3.50    1.87
  -3  13   1    3.10    1.79
   3 -13  -1    1.33    1.77
  -3  13   2   74.76    4.10
   3 -13  -2   69.83    4.08
  -3  13   3   11.99    2.21
   3 -13  -3    9.88    2.16
  -3  13   4   10.59    2.17
   3 -13  -4   10.36    2.16
  -3  13   5    2.60    1.92
   3 -13  -5    0.16    1.69
  -3  13   6    9.20    2.24
   3 -13  -6    9.61    2.16
  -3  13   7   12.63    2.34
   3 -13  -7   13.01    2.58
  -3  13   8    3.24    1.98
   3 -13  -8    2.14    2.00
  -3  13   9    2.68    1.98
   3 -13  -9    2.93    1.96
  -3  13  10   13.78    2.68
   3 -13 -10   13.68    2.28
  -3  13  11    0.46    2.03
   3 -13 -11    2.84    1.87
  -3  13  12    3.98    2.25
   3 -13 -12    3.37    1.74
  -3  13  13    2.06    2.23
   4 -14  12    0.57    2.21
   4 -14  11    5.64    2.32
   4 -14  10   12.93    2.69
   4 -14   9   10.96    2.76
   4 -14   8    0.33    1.91
   4 -14   7   12.43    2.49
   4 -14   6    0.70    1.93
   4 -14   5   26.28    2.95
   4 -14   4   43.41    3.61
   4 -14   3   29.71    3.28
   4 -14   2    8.14    2.23
  -4  14  -1   46.27    3.55
   4 -14   1   46.46    3.49
  -4  14   0   -0.71    1.72
   4 -14   0   -1.74    1.75
  -4  14   1   47.78    3.62
   4 -14  -1   56.24    3.97
  -4  14   2   13.11    2.33
   4 -14  -2   10.83    2.24
  -4  14   3   31.85    3.11
   4 -14  -3   36.13    3.48
  -4  14   4   41.11    3.47
   4 -14  -4   48.04    3.79
  -4  14   5   22.20    2.76
   4 -14  -5   21.29    2.74
  -4  14   6   -0.21    1.78
   4 -14  -6    1.13    2.05
  -4  14   7   10.72    2.36
   4 -14  -7   11.23    2.20
  -4  14   8    2.17    1.92
   4 -14  -8   -1.21    1.53
  -4  14   9   13.42    2.59
   4 -14  -9   11.80    2.32
  -4  14  10    8.47    2.53
   4 -14 -10    8.92    2.23
  -4  14  11    6.36    2.40
   4 -14 -11    2.54    1.05
  -4  14  12    2.65    2.23
   5 -15  12    1.08    2.31
   5 -15  11    4.90    2.47
   5 -15  10   -1.23    2.06
   5 -15   9   12.19    2.61
   5 -15   8   -0.08    2.32
   5 -15   7    0.78    1.97
   5 -15   6    8.73    2.30
   5 -15   5   14.25    2.52
   5 -15   4    0.91    2.02
   5 -15   3   41.35    3.53
   5 -15   2   -0.18    1.93
  -5  15  -1    8.99    2.35
   5 -15   1   10.90    2.32
  -5  15   0   40.19    3.50
   5 -15   0   41.79    3.54
  -5  15   1   11.37    2.39
   5 -15  -1    8.81    2.32
  -5  15   2    3.38    2.00
   5 -15  -2   -1.78    1.77
  -5  15   3   39.35    3.42
   5 -15  -3   43.20    3.63
  -5  15   4    1.09    1.89
   5 -15  -4    4.66    2.33
  -5  15   5   15.03    2.54
   5 -15  -5   13.28    2.42
  -5  15   6    2.89    1.94
   5 -15  -6   12.05    2.44
  -5  15   7    2.15    1.93
   5 -15  -7    1.23    1.99
  -5  15   8    3.90    2.08
   5 -15  -8    1.83    1.69
  -5  15   9   14.77    2.66
   5 -15  -9   12.95    2.46
  -5  15  10    2.20    2.16
  -5  15  11    4.44    2.40
  -5  15  12    3.90    2.74
   6 -16  11   -4.59    1.91
   6 -16  10    2.86    2.64
   6 -16   9    6.25    2.76
   6 -16   8   -0.40    1.96
   6 -16   7    4.22    2.18
   6 -16   6    4.83    2.19
   6 -16   5    2.40    2.01
   6 -16   4    4.66    2.21
   6 -16   3   12.74    2.51
   6 -16   2   19.67    2.90
  -6  16  -1   12.93    2.54
   6 -16   1   12.40    2.85
  -6  16   0    1.52    2.31
   6 -16   0    0.97    2.02
  -6  16   1   12.78    2.51
   6 -16  -1   12.17    2.58
  -6  16   2   19.63    2.81
   6 -16  -2   22.31    2.88
  -6  16   3   15.82    2.60
   6 -16  -3   15.81    2.88
  -6  16   4    6.86    2.15
   6 -16  -4    4.07    2.05
  -6  16   5    3.66    1.94
   6 -16  -5    3.46    1.97
  -6  16   6    3.79    2.01
   6 -16  -6    1.90    2.12
  -6  16   7    6.69    2.30
   6 -16  -7    6.63    2.01
  -6  16   8   -1.19    1.84
   6 -16  -8    2.40    1.98
  -6  16   9    6.48    2.34
  -6  16  10    4.52    2.36
   6 -16 -10    9.26    2.36
  -6  16  11    0.21    2.16
   7 -17  11    2.19    2.42
   7 -17  10    2.13    2.70
   7 -17   9    1.09    2.21
   7 -17   8   -0.12    2.03
   7 -17   7   -0.70    2.07
   7 -17   6    8.94    2.48
   7 -17   5    2.34    2.08
   7 -17   4    2.42    2.12
   7 -17   3    1.55    2.04
   7 -17   2   -0.24    1.98
  -7  17  -1    3.51    2.03
   7 -17   1    0.64    2.06
  -7  17   0    7.33    2.26
   7 -17   0    3.79    2.14
  -7  17   1    2.17    2.04
   7 -17  -1   -1.09    2.25
  -7  17   2   -1.18    1.75
   7 -17  -2    1.07    1.94
  -7  17   3   -0.10    1.90
   7 -17  -3    1.83    1.93
  -7  17   4    1.06    1.88
   7 -17  -4    1.55    1.87
  -7  17   5    1.60    1.90
   7 -17  -5   -3.04    1.56
  -7  17   6   10.24    2.43
   7 -17  -6   10.85    2.47
  -7  17   7    2.12    2.12
   7 -17  -7    1.02    2.04
  -7  17   8    1.57    2.02
  -7  17   9    1.86    2.25
   7 -17  -9    2.20    2.03
  -7  17  10   -2.12    2.00
  -7  17  11    0.66    2.27
   8 -18  10   -2.74    2.62
   8 -18   9   -0.53    2.12
   8 -18   8    6.52    2.47
   8 -18   7    9.46    2.55
   8 -18   6   -0.45    2.05
   8 -18   5    5.22    2.40
   8 -18   4    3.51    2.18
   8 -18   3   -0.80    1.97
   8 -18   2    0.00    2.04
  -8  18  -1   15.47    3.01
   8 -18   1   18.60    2.82
  -8  18   0   14.53    2.91
   8 -18   0   14.06    2.90
  -8  18   1   18.75    2.81
   8 -18  -1   16.22    2.79
  -8  18   2    0.57    1.96
   8 -18  -2   -0.38    2.00
  -8  18   3    4.02    2.09
   8 -18  -3    3.04    2.37
  -8  18   4    4.73    2.20
   8 -18  -4    1.38    2.21
  -8  18   5    5.44    2.20
   8 -18  -5    9.76    2.56
  -8  18   6    2.21    2.10
   8 -18  -6   -4.41    1.99
  -8  18   7   13.12    2.73
   8 -18  -7   10.12    1.99
  -8  18   8    7.03    2.48
   8 -18  -8    7.21    2.28
  -8  18   9    1.05    2.12
  -8  18  10   -0.76    2.09
   9 -19   9    3.10    2.49
   9 -19   8    1.60    2.35
   9 -19   7   15.77    3.12
   9 -19   6    5.84    2.46
   9 -19   5    2.02    2.24
   9 -19   4    0.71    2.19
   9 -19   3   -0.39    2.10
   9 -19   2    0.32    2.13
  -9  19  -1   12.88    2.67
   9 -19   1   11.19    2.62
  -9  19   0    8.66    2.45
   9 -19   0    9.84    2.81
  -9  19   1   14.41    2.74
   9 -19  -1    7.86    2.76
  -9  19   2    3.17    2.15
   9 -19  -2    3.16    2.12
  -9  19   3    1.47    1.94
   9 -19  -3    2.02    2.40
  -9  19   4    2.71    2.15
   9 -19  -4    4.16    2.36
  -9  19   5    2.06    2.15
   9 -19  -5    3.20    2.03
  -9  19   6    2.93    2.31
   9 -19  -6    4.58    1.96
  -9  19   7   10.94    2.71
   9 -19  -7    8.35    1.87
  -9  19   8   -1.19    2.08
  -9  19   9   -2.24    2.03
  10 -20   8    0.16    2.77
  10 -20   7    1.90    2.37
  10 -20   6   14.16    2.96
  10 -20   5    0.20    2.75
  10 -20   4    0.09    2.26
  10 -20   3    2.75    2.40
  10 -20   2    3.99    2.45
 -10  20  -1    2.14    2.17
  10 -20   1   -1.33    2.50
 -10  20   0    4.22    2.29
  10 -20   0   11.95    2.99
 -10  20   1   -0.23    2.05
  10 -20  -1    3.01    2.64
 -10  20   2    4.93    2.28
  10 -20  -2    2.99    2.21
 -10  20   3    2.65    2.17
  10 -20  -3    3.18    2.46
 -10  20   4   -1.31    1.98
  10 -20  -4    0.19    1.86
 -10  20   5    4.67    2.31
  10 -20  -5    5.43    2.38
 -10  20   6   12.00    2.86
 -10  20   7   -1.78    2.09
 -10  20   8   -3.27    2.06
  11 -21   6    1.70    2.51
  11 -21   5    2.22    2.47
  11 -21   4   -4.15    2.10
  11 -21   3    0.68    2.30
  11 -21   2   -4.91    2.03
 -11  21  -1    3.94    2.34
  11 -21   1    3.24    2.36
 -11  21   0   -1.59    2.03
  11 -21   0    3.32    2.37
 -11  21   1    2.17    2.11
  11 -21  -1    1.42    2.20
 -11  21   2   -0.35    2.11
  11 -21  -2    0.07    2.05
 -11  21   3    0.35    2.10
  11 -21  -3    2.34    2.09
 -11  21   4   -1.23    2.01
  11 -21  -4    3.70    2.49
 -11  21   5    4.15    2.43
  11 -21  -5   -0.09    2.21
 -11  21   6   -1.25    2.14
  12 -22   4    0.09    2.41
  12 -22   3   -1.19    2.41
  12 -22   2    0.50    2.42
 -12  22  -1    0.11    2.13
  12 -22   1   -1.67    2.69
 -12  22   0    1.83    2.25
  12 -22   0    4.33    2.40
 -12  22   1   -0.91    2.12
  12 -22  -1   -1.11    2.65
 -12  22   2    2.92    2.29
  12 -22  -2   -0.09    2.59
 -12  22   3    0.75    2.69
  12 -22  -3    6.09    2.73
 -12  22   4    0.61    2.27
  12 -22  -4    5.53    2.48
 -13  23   0    0.26    2.19
  13 -23   0   -1.11    2.27
  13 -23  -1    3.66    2.94
 -23  12   1    3.25    2.50
 -23  12   0    0.15    2.14
 -23  12  -1    3.17    2.43
 -22  11   5    0.28    2.30
 -22  11   4   -0.12    2.18
 -22  11   3    0.41    2.15
 -22  11   2    6.76    2.61
 -22  11   1    1.34    2.17
 -22  11   0    5.83    2.55
 -22  11  -1   -0.61    2.11
 -22  11  -2    7.39    2.60
 -22  11  -3    2.94    2.39
 -22  11  -4   -0.18    1.53
 -22  11  -4    1.99    2.46
 -22  11  -5   -0.68    2.20
 -21  10   6   -0.05    2.14
 -21  10   5    0.31    2.15
 -21  10   4    0.72    2.19
 -21  10   3   -2.68    1.99
 -21  10   2   -0.98    2.06
 -21  10   1    0.39    2.09
 -21  10   0   -3.48    1.85
 -21  10  -1    4.53    2.41
 -21  10  -2    0.12    2.16
 -21  10  -3    2.51    1.82
 -21  10  -3   -1.44    1.90
 -21  10  -4    3.14    1.94
 -21  10  -4    1.03    2.16
 -21  10  -5   -0.31    1.59
 -21  10  -5    3.10    2.37
 -21  10  -6    0.13    2.12
 -21  10  -6   -0.84    1.95
 -20   9   8    0.61    2.35
 -20   9   7    5.57    2.55
 -20   9   6    2.06    2.29
 -20   9   5    4.03    2.36
 -20   9   4    0.42    2.10
 -20   9   3   -0.58    2.02
 -20   9   2    2.45    2.19
 -20   9   1    3.79    2.27
 -20   9   0    1.03    2.16
 -20   9  -1    0.16    2.50
 -20   9  -2    1.18    2.06
 -20   9  -2    2.50    1.67
 -20   9  -3   -3.23    1.47
 -20   9  -3   -2.25    2.27
 -20   9  -4   -0.92    1.71
 -20   9  -4    2.47    2.20
 -20   9  -5    0.95    2.22
 -20   9  -5    1.24    1.65
 -20   9  -6    1.66    2.31
 -20   9  -6    4.45    1.90
 -20   9  -7    3.53    2.22
 -20   9  -7    3.54    1.91
 -20   9  -8    1.67    2.53
 -20   9  -8   -2.59    1.61
 -19   8   9   -0.75    2.30
 -19   8   8    5.66    2.95
 -19   8   7    5.43    2.46
 -19   8   6    3.37    2.36
 -19   8   5   -0.17    2.12
 -19   8   4   -0.10    1.93
 -19   8   3   -0.14    2.01
 -19   8   2    4.17    2.25
 -19   8   1   -0.24    1.92
 -19   8   0   14.85    2.85
 -19   8  -1    0.53    1.54
 -19   8  -1    3.17    2.21
 -19   8  -2    4.45    2.23
 -19   8  -2    2.16    1.58
 -19   8  -3   -0.14    1.90
 -19   8  -3   -0.38    1.56
 -19   8  -4   -0.17    2.00
 -19   8  -4   -0.93    1.41
 -19   8  -5    1.07    1.63
 -19   8  -5    2.34    2.48
 -19   8  -6    3.86    2.35
 -19   8  -6    9.20    2.29
 -19   8  -7   -1.64    2.22
 -19   8  -7   -0.85    1.97
 -19   8  -8    3.89    2.23
 -19   8  -8    6.48    2.12
 -19   8  -9   -0.31    1.91
 -19   8  -9   -0.94    2.12
 -18   7  10    3.37    2.87
 -18   7   9   -1.51    2.13
 -18   7   8   -2.19    2.07
 -18   7   7    4.28    2.41
 -18   7   6    2.47    2.25
 -18   7   5   -1.15    1.97
 -18   7   4   -0.33    2.04
 -18   7   3    2.10    2.09
 -18   7   2    2.31    2.21
 -18   7   1    5.05    2.61
 -18   7   0    3.62    2.20
 -18   7   0    1.51    1.40
 -18   7  -1    1.58    1.40
 -18   7  -1    7.34    2.42
 -18   7  -2    2.51    2.09
 -18   7  -2    2.45    1.48
 -18   7  -3    3.51    2.11
 -18   7  -3    3.87    1.72
 -18   7  -4    2.68    2.04
 -18   7  -4    1.63    1.71
 -18   7  -5   -1.29    1.87
 -18   7  -5    0.98    1.50
 -18   7  -6    3.28    1.75
 -18   7  -6    3.83    2.25
 -18   7  -7    7.23    2.34
 -18   7  -7    2.06    2.10
 -18   7  -8    3.68    1.94
 -18   7  -8   -0.12    2.31
 -18   7  -9    0.77    1.80
 -18   7  -9    1.47    2.34
 -18   7 -10   -3.17    1.62
 -18   7 -10   -2.31    1.77
 -17   6  10   -0.22    2.30
 -17   6   9   -1.56    2.12
 -17   6   8   -1.24    2.11
 -17   6   7    0.21    2.07
 -17   6   6    3.52    2.26
 -17   6   5   -2.16    1.85
 -17   6   4    2.57    2.12
 -17   6   3    5.51    2.30
 -17   6   2   -1.14    1.93
 -17   6   1   -1.25    1.90
 -17   6   0    1.48    1.34
 -17   6   0    2.16    2.08
 -17   6  -1    2.00    2.10
 -17   6  -1   -0.35    1.27
 -17   6  -2    2.02    2.06
 -17   6  -2   -0.90    1.36
 -17   6  -3    6.70    1.69
 -17   6  -3    6.86    2.38
 -17   6  -4    2.87    1.76
 -17   6  -4    3.09    2.05
 -17   6  -5    1.37    1.85
 -17   6  -5    1.94    1.55
 -17   6  -6    1.34    1.62
 -17   6  -6    4.59    2.08
 -17   6  -7    3.02    1.73
 -17   6  -7    6.26    2.22
 -17   6  -8    1.19    1.71
 -17   6  -8    1.49    2.24
 -17   6  -9    4.47    2.07
 -17   6  -9    1.10    2.10
 -17   6 -10   -2.46    1.57
 -17   6 -10    0.33    1.78
 -16   5  11    3.11    2.50
 -16   5  10    5.72    2.61
 -16   5   9    2.25    2.31
 -16   5   8    0.25    2.09
 -16   5   7    2.81    2.18
 -16   5   6    2.38    2.07
 -16   5   5    2.37    2.04
 -16   5   4   10.67    2.55
 -16   5   3    7.17    2.37
 -16   5   2   10.78    2.51
 -16   5   1    1.93    1.22
 -16   5   1   -0.30    2.01
 -16   5   0    0.33    1.22
 -16   5   0    0.97    2.04
 -16   5  -1   -0.05    1.98
 -16   5  -1    2.21    1.38
 -16   5  -2    5.25    1.71
 -16   5  -2    7.47    2.34
 -16   5  -3    5.87    2.48
 -16   5  -3    6.10    1.82
 -16   5  -4   17.05    2.29
 -16   5  -4   11.22    2.76
 -16   5  -5    3.91    1.97
 -16   5  -5    4.44    1.86
 -16   5  -6    2.09    1.80
 -16   5  -6    0.34    1.81
 -16   5  -7    0.42    1.53
 -16   5  -7    1.85    1.80
 -16   5  -8    1.20    1.78
 -16   5  -8   -0.64    1.53
 -16   5  -9    0.93    1.77
 -16   5  -9    0.85    1.75
 -16   5 -10    6.32    2.50
 -16   5 -10    7.64    2.26
 -16   5 -11    1.74    1.90
 -16   5 -11    1.00    2.13
 -15   4  12    0.20    2.37
 -15   4  11   -1.53    2.16
 -15   4  10    1.68    2.26
 -15   4   9    2.20    2.27
 -15   4   8    8.13    2.46
 -15   4   7    2.49    2.13
 -15   4   6   -0.32    1.95
 -15   4   5    0.46    1.96
 -15   4   4   39.84    3.71
 -15   4   3   14.40    2.71
 -15   4   2    1.31    1.04
 -15   4   2    0.87    2.06
 -15   4   1    2.19    2.06
 -15   4   1    4.89    1.36
 -15   4   0   30.53    2.25
 -15   4   0   30.71    3.36
 -15   4  -1    4.45    1.50
 -15   4  -1    2.88    2.04
 -15   4  -2   -1.51    1.80
 -15   4  -2    1.93    1.47
 -15   4  -3    6.90    2.25
 -15   4  -3   13.03    2.08
 -15   4  -4   43.39    3.96
 -15   4  -4   43.77    3.22
 -15   4  -5    1.23    2.14
 -15   4  -5   -1.00    1.31
 -15   4  -6    0.22    1.68
 -15   4  -6   -0.84    1.95
 -15   4  -7    3.53    1.68
 -15   4  -7    7.55    2.33
 -15   4  -8    7.80    2.11
 -15   4  -8    9.34    2.14
 -15   4  -9    1.33    2.00
 -15   4  -9    2.97    1.79
 -15   4 -10    2.00    1.77
 -15   4 -10    3.02    2.16
 -15   4 -11    2.84    1.83
 -15   4 -11    2.43    1.83
 -15   4 -12    1.83    1.92
 -14   3  12    3.06    2.54
 -14   3  11    4.02    2.57
 -14   3  10    0.23    2.57
 -14   3   9    8.43    2.60
 -14   3   8    6.41    2.34
 -14   3   7    2.10    2.15
 -14   3   6    7.35    2.27
 -14   3   5    9.97    2.41
 -14   3   4    1.78    2.07
 -14   3   3   12.44    2.52
 -14   3   3   18.04    1.50
 -14   3   2   -2.01    1.75
 -14   3   2    0.55    1.00
 -14   3   1   -0.87    2.21
 -14   3   1    2.83    1.23
 -14   3   0   49.58    3.68
 -14   3   0   45.40    2.65
 -14   3  -1    0.62    2.20
 -14   3  -1    2.13    1.18
 -14   3  -2   -0.53    1.33
 -14   3  -2   -1.11    2.05
 -14   3  -3   13.08    2.45
 -14   3  -3   19.91    2.12
 -14   3  -4    0.92    1.35
 -14   3  -4    0.48    1.74
 -14   3  -5   10.43    2.47
 -14   3  -5    9.84    1.88
 -14   3  -6    5.33    1.96
 -14   3  -6    7.12    2.29
 -14   3  -7    1.55    1.53
 -14   3  -7    2.70    1.64
 -14   3  -8    9.55    2.30
 -14   3  -8    7.62    1.95
 -14   3  -9   10.60    2.17
 -14   3  -9    8.23    2.10
 -14   3 -10   -0.87    1.87
 -14   3 -10    0.78    1.67
 -14   3 -11    3.87    1.93
 -14   3 -11    5.34    2.13
 -14   3 -12   -0.44    2.10
 -13   2  13    3.89    2.70
 -13   2  12    2.59    2.58
 -13   2  11    1.51    2.35
 -13   2  10   15.43    2.97
 -13   2   9   -2.04    2.00
 -13   2   8   13.45    2.67
 -13   2   7    3.34    2.10
 -13   2   6    1.11    2.03
 -13   2   5    0.77    1.94
 -13   2   4    3.33    0.93
 -13   2   4    6.09    2.12
 -13   2   3    3.24    1.06
 -13   2   3    6.08    2.09
 -13   2   2   36.76    2.12
 -13   2   2   39.77    3.44
 -13   2   1    5.69    1.19
 -13   2   1    2.31    1.87
 -13   2   0   75.10    3.41
 -13   2   0   77.30    4.33
 -13   2  -1    4.66    1.92
 -13   2  -1    5.44    1.49
 -13   2  -2   45.18    3.30
 -13   2  -2   37.32    2.52
 -13   2  -3    5.15    1.91
 -13   2  -3    1.81    1.29
 -13   2  -4    3.73    1.80
 -13   2  -4    2.70    1.41
 -13   2  -5   -0.97    1.47
 -13   2  -5    0.09    1.62
 -13   2  -6   -0.43    1.30
 -13   2  -6   -1.34    1.79
 -13   2  -7    2.79    1.57
 -13   2  -7    5.18    1.73
 -13   2  -8   14.65    2.25
 -13   2  -8   14.35    2.39
 -13   2  -9    0.23    1.55
 -13   2  -9    0.31    1.65
 -13   2 -10   11.53    2.28
 -13   2 -10    7.50    1.63
 -13   2 -11    0.99    1.77
 -13   2 -12    4.71    2.03
 -13   2 -13    0.74    1.84
 -12   1  13    0.73    2.47
 -12   1  12    4.49    2.56
 -12   1  11    5.26    2.47
 -12   1  10   -3.07    1.93
 -12   1   9    0.94    2.08
 -12   1   8    3.55    2.20
 -12   1   7    1.89    2.07
 -12   1   6    1.10    1.99
 -12   1   5    8.00    1.10
 -12   1   5    6.56    2.13
 -12   1   4    8.65    1.11
 -12   1   4    5.28    2.08
 -12   1   3   35.06    3.21
 -12   1   3   34.89    2.02
 -12   1   2    2.12    1.81
 -12   1   2    3.33    1.11
 -12   1   1    8.90    1.34
 -12   1   1    5.32    1.93
 -12   1   0   46.18    2.55
 -12   1   0   47.58    3.35
 -12   1  -1    7.41    1.93
 -12   1  -1    8.98    1.43
 -12   1  -2    3.27    1.26
 -12   1  -2    2.16    1.65
 -12   1  -3   38.69    3.32
 -12   1  -3   36.86    2.74
 -12   1  -4    7.01    2.00
 -12   1  -4    8.34    1.65
 -12   1  -5    6.69    1.93
 -12   1  -5    6.48    1.63
 -12   1  -6   -0.72    1.67
 -12   1  -6    0.81    1.44
 -12   1  -7    1.08    0.80
 -12   1  -7    0.71    1.49
 -12   1  -8    1.17    0.73
 -12   1  -8    4.80    1.70
 -12   1  -9    0.52    1.45
 -12   1  -9    1.77    1.58
 -12   1 -10    0.52    1.57
 -12   1 -10    0.32    1.56
 -12   1 -11    7.13    2.05
 -12   1 -12    2.89    1.95
 -12   1 -13    4.42    2.12
 -11   0  13    4.42    2.63
 -11   0  12    7.52    2.66
 -11   0  11    5.03    2.45
 -11   0  10    2.63    2.24
 -11   0   9    1.04    2.04
 -11   0   8   27.81    3.22
 -11   0   7    4.68    2.13
 -11   0   6   15.37    1.50
 -11   0   6   13.09    2.48
 -11   0   5    3.94    1.08
 -11   0   5    3.87    2.01
 -11   0   4  139.91    4.84
 -11   0   4  130.69    5.86
 -11   0   3    6.62    1.96
 -11   0   3    6.96    1.22
 -11   0   2    0.19    1.85
 -11   0   2   -0.01    0.94
 -11   0   1   14.30    2.11
 -11   0   1   15.95    1.60
 -11   0   0   36.89    2.18
 -11   0   0   41.97    3.20
 -11   0  -1   17.76    2.48
 -11   0  -1   16.04    1.79
 -11   0  -2    0.33    1.07
 -11   0  -2   -0.40    1.39
 -11   0  -3    7.33    1.51
 -11   0  -3    8.09    1.77
 -11   0  -4  141.07    5.68
 -11   0  -4  137.25    5.80
 -11   0  -5    3.07    1.45
 -11   0  -5    0.94    0.34
 -11   0  -6   15.53    2.12
 -11   0  -6   19.24    2.31
 -11   0  -7   10.65    1.96
 -11   0  -7    3.79    1.72
 -11   0  -8   36.28    3.03
 -11   0  -8   28.94    2.90
 -11   0  -9    0.49    1.53
 -11   0  -9    0.84    1.46
 -11   0 -10    0.76    1.38
 -11   0 -10    2.01    1.86
 -11   0 -11    1.90    1.68
 -11   0 -12    7.93    2.23
 -11   0 -13    2.71    1.88
 -10  -1  13    1.02    2.38
 -10  -1  12    1.36    2.26
 -10  -1  11    4.00    2.35
 -10  -1  10    8.48    2.51
 -10  -1   9    4.26    2.24
 -10  -1   8    3.46    2.16
 -10  -1   7    5.11    2.19
 -10  -1   6   19.75    2.70
 -10  -1   6   22.16    1.88
 -10  -1   5   16.13    2.44
 -10  -1   5   16.07    1.58
 -10  -1   4   76.56    4.15
 -10  -1   4   77.30    3.27
 -10  -1   3   45.32    2.47
 -10  -1   3   49.52    3.18
 -10  -1   2    4.67    1.24
 -10  -1   2    7.63    1.79
 -10  -1   1    9.89    1.40
 -10  -1   1   13.77    2.02
 -10  -1   0    5.91    1.81
 -10  -1   0    0.85    1.12
 -10  -1  -1    8.83    1.92
 -10  -1  -1   10.25    1.54
 -10  -1  -2    4.12    1.24
 -10  -1  -2    4.65    1.66
 -10  -1  -3   42.53    2.63
 -10  -1  -4   82.18    3.80
 -10  -1  -4   75.11    3.85
 -10  -1  -5   15.49    2.02
 -10  -1  -5   13.23    1.92
 -10  -1  -6   21.58    2.28
 -10  -1  -6   18.23    2.25
 -10  -1  -7    7.73    1.83
 -10  -1  -7    6.29    1.63
 -10  -1  -8    3.88    1.72
 -10  -1  -8    4.52    1.53
 -10  -1  -9   11.61    1.89
 -10  -1  -9    8.71    1.97
 -10  -1 -10    8.22    1.93
 -10  -1 -11    3.19    1.77
 -10  -1 -12    3.92    2.15
 -10  -1 -13    4.66    2.31
  -9  -2  14    1.77    2.48
  -9  -2  13   -1.40    2.22
  -9  -2  12    2.43    2.75
  -9  -2  11   17.10    2.94
  -9  -2  10   -0.39    2.01
  -9  -2   9   14.20    2.70
  -9  -2   8    7.23    1.78
  -9  -2   8    8.84    2.33
  -9  -2   7    9.82    2.33
  -9  -2   7    9.01    1.62
  -9  -2   6   61.19    3.88
  -9  -2   6   60.56    3.04
  -9  -2   5   11.33    2.16
  -9  -2   5   12.92    1.66
  -9  -2   4   26.48    2.05
  -9  -2   4   23.01    2.50
  -9  -2   3   81.52    3.44
  -9  -2   3   82.07    4.06
  -9  -2   2   24.64    1.95
  -9  -2   2   24.33    2.52
  -9  -2   1   14.51    2.05
  -9  -2   1   14.55    1.66
  -9  -2   0   11.57    1.74
  -9  -2   0   10.42    1.40
  -9  -2  -1   16.85    1.93
  -9  -2  -1   15.39    1.64
  -9  -2  -2   25.66    2.14
  -9  -2  -3   83.49    3.83
  -9  -2  -3   79.84    3.70
  -9  -2  -4   28.67    2.37
  -9  -2  -4   26.62    2.38
  -9  -2  -5   10.96    1.71
  -9  -2  -5   12.76    1.87
   9   2   6   60.32    2.94
  -9  -2  -6   61.56    3.16
  -9  -2  -6   58.67    3.49
   9   2   7    6.14    1.42
  -9  -2  -7    6.91    1.72
  -9  -2  -7    6.53    1.55
   9   2   8    8.40    1.63
  -9  -2  -8    6.31    1.88
  -9  -2  -8   10.89    1.83
  -9  -2  -9   12.96    2.43
  -9  -2 -10    3.34    1.72
  -9  -2 -11   12.31    2.27
  -9  -2 -12    2.33    1.74
  -9  -2 -13    0.61    2.05
  -9  -2 -14    4.20    2.10
  -8  -3  14    1.55    2.52
  -8  -3  13   -1.31    2.58
  -8  -3  12   -0.76    2.07
  -8  -3  11    4.34    2.29
  -8  -3  10    9.77    2.55
  -8  -3   9    7.33    1.83
  -8  -3   9    8.39    2.33
  -8  -3   8    1.64    1.50
  -8  -3   8    4.23    2.16
  -8  -3   7   11.45    1.76
  -8  -3   7    9.28    2.29
  -8  -3   6    7.38    1.65
  -8  -3   6    8.53    2.11
  -8  -3   5    5.19    1.85
  -8  -3   5    6.21    1.43
  -8  -3   4    8.46    1.62
  -8  -3   4    8.38    1.86
  -8  -3   3   37.46    2.43
  -8  -3   3   36.20    2.66
  -8  -3   2    7.13    1.61
  -8  -3   2    8.71    1.48
  -8  -3   1   12.64    1.55
  -8  -3   1   15.60    1.88
  -8  -3   0   16.43    1.73
  -8  -3   0   21.01    1.98
  -8  -3  -1    6.07    1.23
  -8  -3  -1   15.40    1.66
  -8  -3  -2    4.70    1.47
  -8  -3  -2    5.28    1.30
  -8  -3  -3   34.55    2.32
  -8  -3  -3   40.04    2.68
  -8  -3  -4    7.17    1.74
  -8  -3  -4    7.31    1.44
   8   3   5    9.68    1.60
  -8  -3  -5    8.31    1.34
  -8  -3  -5    5.46    1.54
   8   3   6    5.55    1.51
  -8  -3  -6    5.64    1.33
  -8  -3  -6    6.93    1.75
   8   3   7   10.06    1.66
  -8  -3  -7   14.42    2.14
  -8  -3  -7   13.76    1.63
   8   3   8    2.38    1.53
  -8  -3  -8    3.74    1.68
  -8  -3  -8    1.99    1.27
   8   3   9    8.84    1.72
  -8  -3  -9    4.30    1.83
  -8  -3 -10   14.23    2.33
  -8  -3 -11    3.36    1.74
  -8  -3 -12   -0.17    1.60
  -8  -3 -13    3.83    2.13
  -8  -3 -14    5.17    2.13
  -7  -4  14    4.43    2.96
  -7  -4  13    3.37    2.43
  -7  -4  12    4.52    2.82
  -7  -4  11    0.67    2.07
  -7  -4  10   25.38    2.66
  -7  -4  10   25.65    3.24
  -7  -4   9    0.04    1.68
  -7  -4   9    1.58    2.01
  -7  -4   8   23.17    2.32
  -7  -4   8   27.35    3.08
  -7  -4   7    8.41    1.76
  -7  -4   7    2.75    1.99
  -7  -4   6   24.22    2.26
  -7  -4   6   19.02    2.52
  -7  -4   5   -0.04    1.42
  -7  -4   5   -0.57    1.83
  -7  -4   4    6.08    1.56
  -7  -4   4   10.22    1.86
  -7  -4   3    6.39    1.79
  -7  -4   3    4.17    1.31
  -7  -4   2   17.25    1.94
  -7  -4   2   18.95    2.14
  -7  -4   1   11.74    1.59
  -7  -4   1   11.62    1.63
  -7  -4   0  218.80    7.58
  -7  -4  -1   12.11    1.59
  -7  -4  -1    9.69    1.59
  -7  -4  -2   15.29    1.66
  -7  -4  -2   10.52    1.66
  -7  -4  -3    4.66    1.17
  -7  -4  -3    6.07    1.43
   7   4   4    6.66    1.29
  -7  -4  -4    8.32    1.30
  -7  -4  -4    5.10    1.46
   7   4   5    0.15    1.22
  -7  -4  -5    0.26    1.25
  -7  -4  -5    2.14    0.98
   7   4   6   16.58    1.95
  -7  -4  -6   18.37    2.22
  -7  -4  -6   20.75    1.68
   7   4   7    6.39    1.63
  -7  -4  -7    8.39    1.33
  -7  -4  -7    4.84    1.67
   7   4   8   27.06    2.47
  -7  -4  -8   29.37    2.92
   7   4   9   -0.12    1.55
  -7  -4  -9    1.96    1.85
   7   4  10   27.17    2.66
  -7  -4 -10   25.75    2.87
  -7  -4 -11   -1.74    1.36
  -7  -4 -12   15.37    2.75
  -7  -4 -13   -1.20    1.88
  -7  -4 -14    2.97    2.18
  -6  -5  14    5.75    2.59
  -6  -5  13   11.17    2.83
  -6  -5  12   -1.34    2.03
  -6  -5  11   -0.59    2.28
  -6  -5  10   -2.36    1.57
  -6  -5  10    1.32    2.05
  -6  -5   9    1.35    1.70
  -6  -5   9   -0.99    1.88
  -6  -5   8    5.88    1.84
  -6  -5   8    5.04    2.13
  -6  -5   7   85.15    4.10
  -6  -5   7   87.41    4.68
  -6  -5   6   23.31    2.65
  -6  -5   6   27.00    2.48
  -6  -5   5   23.74    2.47
  -6  -5   5   20.95    2.27
  -6  -5   4    9.81    1.78
  -6  -5   4   11.88    1.88
  -6  -5   3    2.56    1.35
  -6  -5   3    3.66    1.51
  -6  -5   2   20.04    2.00
  -6  -5   2   18.61    2.05
  -6  -5   1   74.84    3.56
  -6  -5   1   96.36    4.02
  -6  -5   0   23.29    2.10
  -6  -5   0   23.79    1.99
  -6  -5  -1   86.70    3.62
  -6  -5  -1   86.61    3.86
  -6  -5  -2   19.64    2.05
  -6  -5  -2   20.56    1.73
   6   5   3    1.64    1.13
  -6  -5  -3    3.60    1.30
  -6  -5  -3    3.05    1.06
   6   5   4    8.40    1.43
  -6  -5  -4    8.03    1.18
  -6  -5  -4    9.54    1.63
   6   5   5   17.86    1.93
  -6  -5  -5   24.05    2.38
  -6  -5  -5   22.24    1.47
   6   5   6   22.95    2.13
  -6  -5  -6   20.66    2.33
  -6  -5  -6   24.04    1.52
   6   5   7   81.42    4.03
  -6  -5  -7   87.26    4.30
   6   5   8    5.79    1.54
  -6  -5  -8    7.94    1.97
   6   5   9   -0.41    1.61
  -6  -5  -9    1.15    1.54
   6   5  10   -1.12    1.55
  -6  -5 -10    0.41    1.45
   6   5  11   -0.64    1.64
  -6  -5 -11    1.20    1.60
   6   5  12   -1.24    1.75
  -6  -5 -12    1.56    1.90
  -6  -5 -13    9.98    2.25
  -6  -5 -14    2.50    1.76
  -5  -6  14    6.25    2.65
  -5  -6  13    6.28    2.93
  -5  -6  12    2.48    2.26
  -5  -6  11    3.51    1.92
  -5  -6  11    0.90    2.02
  -5  -6  10    1.93    1.77
  -5  -6  10    1.60    2.07
  -5  -6   9    4.29    1.90
  -5  -6   9   -0.16    1.94
  -5  -6   8    6.59    2.23
  -5  -6   8    4.26    2.00
  -5  -6   7   93.99    4.48
  -5  -6   7   93.53    4.85
  -5  -6   6   27.89    2.81
  -5  -6   6   23.47    2.48
  -5  -6   5   22.45    2.58
  -5  -6   5   22.53    2.41
  -5  -6   4    9.74    1.87
  -5  -6   4    8.52    1.70
  -5  -6   3    2.58    1.26
  -5  -6   3    2.84    1.37
  -5  -6   2   22.33    2.09
  -5  -6   2   24.62    2.28
  -5  -6   1   90.94    4.06
  -5  -6   0   23.11    2.19
  -5  -6   0   23.71    1.84
  -5  -6  -1   89.67    4.06
  -5  -6  -1   91.46    3.59
  -5  -6  -2   15.58    1.92
  -5  -6  -2   22.58    1.71
   5   6   3    1.85    1.24
  -5  -6  -3    3.40    0.92
  -5  -6  -3    2.86    1.35
   5   6   4    9.55    1.57
  -5  -6  -4    9.55    0.99
  -5  -6  -4    9.53    1.71
   5   6   5   21.28    2.24
  -5  -6  -5   20.55    1.22
  -5  -6  -5   23.49    2.48
   5   6   6   25.97    2.47
  -5  -6  -6   22.26    2.45
   5   6   7   88.71    4.28
  -5  -6  -7   88.00    4.37
   5   6   8    7.34    1.73
  -5  -6  -8    6.80    1.86
   5   6   9   -0.26    1.72
  -5  -6  -9    1.10    1.59
   5   6  10    1.86    1.50
  -5  -6 -10    0.96    1.62
   5   6  11    1.38    1.86
  -5  -6 -11    1.46    1.87
   5   6  12   -0.43    1.89
  -5  -6 -12    0.73    1.92
   5   6  13   12.80    2.29
  -5  -6 -13   19.64    2.78
  -5  -6 -14    2.62    1.84
  -4  -7  14    0.72    2.28
  -4  -7  13   -0.10    2.13
  -4  -7  12    3.97    2.27
  -4  -7  12    6.85    2.30
  -4  -7  11    0.22    1.92
  -4  -7  11   -2.40    1.78
  -4  -7  10   27.56    2.88
  -4  -7  10   23.46    3.10
  -4  -7   9   -1.29    1.76
  -4  -7   9   -1.50    1.80
  -4  -7   8   32.93    3.06
  -4  -7   8   27.61    3.06
  -4  -7   7    6.74    2.01
  -4  -7   7    5.85    2.03
  -4  -7   6   18.88    2.24
  -4  -7   6   16.87    2.36
  -4  -7   5    1.60    1.63
  -4  -7   5    1.89    1.49
  -4  -7   4    6.34    1.62
  -4  -7   4    7.20    1.64
  -4  -7   3    5.54    1.60
  -4  -7   3    6.37    1.61
  -4  -7   2   14.50    1.93
  -4  -7   2   14.13    1.72
  -4  -7   1   10.79    1.78
  -4  -7   1    9.96    1.44
  -4  -7   0  213.95    7.56
  -4  -7   0  207.19    7.09
  -4  -7  -1   12.65    1.93
  -4  -7  -1   12.57    1.42
   4   7   2   13.78    1.88
  -4  -7  -2   16.52    1.40
  -4  -7  -2   17.42    2.06
   4   7   3    6.40    1.54
  -4  -7  -3    4.04    1.45
  -4  -7  -3    8.29    0.97
   4   7   4    7.74    1.65
  -4  -7  -4    7.72    0.72
  -4  -7  -4    8.05    1.65
   4   7   5    1.54    1.37
  -4  -7  -5    1.35    1.39
   4   7   6   20.25    2.23
  -4  -7  -6   15.29    2.17
   4   7   7    5.70    1.68
  -4  -7  -7    4.19    1.73
   4   7   8   29.54    2.70
  -4  -7  -8   25.35    2.91
   4   7   9    2.23    1.90
  -4  -7  -9    0.82    1.52
   4   7  10   29.62    3.01
  -4  -7 -10   26.04    3.12
   4   7  11    1.49    1.95
  -4  -7 -11   -0.06    1.50
   4   7  12    8.74    2.17
  -4  -7 -12    8.69    2.36
   4   7  13    0.33    2.09
  -4  -7 -13    3.80    2.15
   4   7  14   -0.56    2.20
  -4  -7 -14   -0.13    1.92
  -3  -8  14   -0.35    2.58
  -3  -8  13   -3.61    2.03
  -3  -8  13   -2.04    1.94
  -3  -8  12   -0.50    1.97
  -3  -8  12    0.71    2.12
  -3  -8  11    4.50    2.19
  -3  -8  11    1.67    2.03
  -3  -8  10   13.80    2.44
  -3  -8  10   12.48    2.52
  -3  -8   9    7.41    1.95
  -3  -8   8    2.70    1.78
  -3  -8   7    9.34    1.97
  -3  -8   6    6.63    1.84
  -3  -8   5    7.82    1.78
  -3  -8   5    6.63    1.77
  -3  -8   4    6.24    1.55
  -3  -8   4    7.15    1.77
  -3  -8   3   34.57    2.51
  -3  -8   3   32.30    2.67
  -3  -8   2    6.80    1.71
  -3  -8   1   15.88    1.68
  -3  -8   1   16.98    2.11
  -3  -8   0   18.52    1.65
  -3  -8   0   20.50    2.27
  -3  -8  -1   14.20    1.95
  -3  -8  -1   13.92    1.33
   3   8   2    6.10    1.57
  -3  -8  -2    7.12    0.97
  -3  -8  -2    6.75    1.71
   3   8   3   37.04    2.65
  -3  -8  -3   38.07    2.75
  -3  -8  -3   36.49    1.59
   3   8   4    7.28    1.71
  -3  -8  -4    8.65    1.78
   3   8   5    7.08    1.71
  -3  -8  -5    3.89    1.64
   3   8   6    5.19    1.70
  -3  -8  -6    6.07    1.76
   3   8   7    9.80    1.96
  -3  -8  -7   11.43    2.10
   3   8   8    1.66    2.04
  -3  -8  -8    3.21    1.73
   3   8   9    9.95    2.05
  -3  -8  -9    7.66    1.97
   3   8  10   14.45    2.27
  -3  -8 -10   10.03    2.13
   3   8  11    4.90    1.86
  -3  -8 -11    2.36    1.75
   3   8  12    2.29    1.84
  -3  -8 -12    1.79    1.74
   3   8  13   -2.82    2.11
  -3  -8 -13    0.32    1.50
   3   8  14    1.79    2.36
  -3  -8 -14    2.30    2.11
  -2  -9  14    7.20    2.67
  -2  -9  14    3.91    2.36
  -2  -9  13    0.80    2.25
  -2  -9  13    1.70    2.09
  -2  -9  12    1.56    2.22
  -2  -9  11   11.89    2.59
  -2  -9  10    6.00    1.94
  -2  -9   9   14.18    2.33
  -2  -9   8    6.53    2.00
  -2  -9   7    9.64    2.40
  -2  -9   6   60.91    3.64
  -2  -9   5   13.17    2.36
  -2  -9   4   27.73    2.58
  -2  -9   3   81.10    4.04
  -2  -9   2   27.58    2.61
  -2  -9   1   16.96    1.74
  -2  -9   1   18.32    2.23
  -2  -9   0   10.01    1.90
  -2  -9   0   10.07    1.31
   2   9   1   13.96    2.05
  -2  -9  -1   17.64    2.17
  -2  -9  -1   17.93    1.42
   2   9   2   24.90    2.40
  -2  -9  -2   24.95    2.55
  -2  -9  -2   23.45    1.46
   2   9   3   82.24    4.04
  -2  -9  -3   80.15    2.64
  -2  -9  -3   84.96    4.10
   2   9   4   26.93    2.49
  -2  -9  -4   23.15    2.48
   2   9   5   12.91    2.05
  -2  -9  -5   12.74    2.16
   2   9   6   62.60    3.81
  -2  -9  -6   61.13    3.68
   2   9   7    5.92    1.87
  -2  -9  -7    7.29    1.91
   2   9   8   11.81    2.16
  -2  -9  -8    9.55    2.13
   2   9   9   11.14    2.39
  -2  -9  -9   11.65    2.16
   2   9  10    1.52    1.75
  -2  -9 -10    1.88    1.65
   2   9  11   13.39    2.39
  -2  -9 -11   10.97    2.23
   2   9  12   -1.11    1.75
  -2  -9 -12    0.46    1.58
   2   9  13    2.74    2.36
  -2  -9 -13    2.33    1.68
   2   9  14    7.67    2.65
  -2  -9 -14    2.65    2.03
  -1 -10  13   -2.66    2.20
  -1 -10  12    0.97    2.31
  -1 -10  11    0.21    1.86
  -1 -10  10   10.01    2.23
  -1 -10   9    7.15    2.14
  -1 -10   8    3.35    2.22
  -1 -10   7    6.12    2.02
  -1 -10   6   16.39    2.40
  -1 -10   5   10.33    2.11
  -1 -10   4   78.55    4.14
  -1 -10   3   41.89    3.04
  -1 -10   2    3.28    1.72
  -1 -10   1    6.48    1.80
  -1 -10   0    4.32    1.69
   1  10   1   10.44    1.97
  -1 -10  -1   11.66    2.02
  -1 -10  -1    9.23    1.13
   1  10   2    5.83    1.77
  -1 -10  -2    9.06    1.97
  -1 -10  -2    6.09    0.91
   1  10   3   48.49    3.19
  -1 -10  -3   44.53    3.16
   1  10   4   77.58    4.10
  -1 -10  -4   86.09    4.45
   1  10   5   15.76    2.20
  -1 -10  -5   14.15    2.20
   1  10   6   15.69    2.37
  -1 -10  -6   21.99    2.71
   1  10   7    5.03    1.96
  -1 -10  -7    3.70    2.02
   1  10   8    5.63    1.94
  -1 -10  -8    4.18    1.88
   1  10   9    7.32    2.08
  -1 -10  -9    5.81    2.10
   1  10  10    9.41    2.19
  -1 -10 -10    8.02    2.25
   1  10  11    2.54    2.24
  -1 -10 -11    4.60    2.05
   1  10  12    5.14    2.14
  -1 -10 -12    2.55    2.04
   1  10  13    0.26    1.94
  -1 -10 -13    4.44    1.94
   0 -11  13    3.48    2.54
   0 -11  12    4.84    2.19
   0 -11  11   -0.25    2.26
   0 -11  10    0.44    2.18
   0 -11   9    0.67    1.90
   0 -11   8   31.49    3.30
   0 -11   7    9.37    2.56
   0 -11   6   15.83    2.46
   0 -11   5    1.93    1.87
   0 -11   4  131.33    5.72
   0 -11   3    5.84    1.91
   0 -11   2    1.21    1.72
   0 -11   1   19.51    2.40
   0  11   0   40.36    3.08
   0 -11   0   44.90    3.19
   0  11   1   16.29    2.28
   0 -11  -1   16.72    2.30
   0  11   2    0.16    1.56
   0 -11  -2   -0.28    0.72
   0 -11  -2    0.42    1.64
   0  11   3    5.89    1.81
   0 -11  -3    5.79    1.84
   0  11   4  134.49    5.78
   0 -11  -4  137.42    5.84
   0  11   5    5.36    1.88
   0 -11  -5    3.30    1.73
   0  11   6   15.24    2.38
   0 -11  -6   20.45    2.85
   0  11   7    7.40    2.06
   0 -11  -7    6.75    2.00
   0  11   8   34.16    3.20
   0 -11  -8   36.24    3.29
   0  11   9    2.12    1.93
   0 -11  -9    2.01    1.87
   0  11  10    0.35    1.87
   0 -11 -10    1.62    1.57
   0  11  11   -1.30    2.15
   0 -11 -11    3.59    2.03
   0  11  12    6.93    2.29
   0 -11 -12    9.74    2.36
   0  11  13    2.75    2.24
   0 -11 -13    2.01    1.74
   1 -12  13    0.49    2.54
   1 -12  12    0.57    2.38
   1 -12  11    5.08    2.57
   1 -12  10    1.15    2.31
   1 -12   9    0.88    1.83
   1 -12   8    3.33    2.03
   1 -12   7    2.43    1.98
   1 -12   6    1.83    2.33
   1 -12   5    8.49    2.14
   1 -12   4    7.55    2.10
   1 -12   3   40.44    3.34
   1 -12   2    3.30    1.84
   1 -12   1    6.80    2.00
  -1  12   0   47.59    3.46
   1 -12   0   57.47    3.60
  -1  12   1   10.41    2.07
   1 -12  -1    8.12    2.07
  -1  12   2    3.44    1.80
   1 -12  -2    2.66    1.82
  -1  12   3   35.41    3.02
   1 -12  -3   37.90    3.21
  -1  12   4    6.24    1.95
   1 -12  -4    9.24    2.11
  -1  12   5    4.87    1.94
   1 -12  -5    3.57    1.85
  -1  12   6    1.64    1.80
   1 -12  -6    1.30    1.79
  -1  12   7    5.11    2.05
   1 -12  -7    0.35    1.69
  -1  12   8    4.62    2.08
   1 -12  -8    9.01    2.34
  -1  12   9   -0.07    1.82
   1 -12  -9    1.46    1.96
  -1  12  10   -2.52    1.77
   1 -12 -10    1.70    1.63
  -1  12  11    4.92    2.21
   1 -12 -11    5.36    2.16
  -1  12  12    1.10    2.07
   1 -12 -12    2.12    1.89
  -1  12  13   -0.23    2.02
   1 -12 -13    1.06    1.88
   2 -13  13    2.59    2.37
   2 -13  12    2.48    2.26
   2 -13  11    0.25    2.04
   2 -13  10   10.13    2.52
   2 -13   9    1.55    2.00
   2 -13   8   11.89    2.47
   2 -13   7    2.78    2.04
   2 -13   6    1.09    1.97
   2 -13   5    1.97    2.08
   2 -13   4    1.70    1.93
   2 -13   3   -0.26    1.87
   2 -13   2   38.02    3.28
   2 -13   1    4.12    2.00
  -2  13   0   79.36    4.34
   2 -13   0   72.99    4.23
  -2  13   1    4.92    1.98
   2 -13  -1    4.74    1.94
  -2  13   2   42.24    3.33
   2 -13  -2   44.04    3.52
  -2  13   3    3.82    1.85
   2 -13  -3    4.22    2.24
  -2  13   4    1.41    1.81
   2 -13  -4    0.53    1.85
  -2  13   5    2.70    1.51
   2 -13  -5   -0.71    1.66
  -2  13   6   -1.63    1.71
   2 -13  -6    0.45    2.11
  -2  13   7    2.87    1.99
   2 -13  -7    2.55    1.86
  -2  13   8   10.85    2.38
   2 -13  -8   15.58    2.61
  -2  13   9    0.26    2.26
   2 -13  -9    0.37    1.65
  -2  13  10   13.92    2.67
   2 -13 -10   16.25    2.74
  -2  13  11   -1.67    1.90
   2 -13 -11    2.36    1.94
  -2  13  12    1.73    2.59
   2 -13 -12    9.30    2.35
  -2  13  13    1.49    2.26
   2 -13 -13    0.66    1.92
   3 -14  12    0.37    2.19
   3 -14  11    7.16    2.48
   3 -14  10   -0.21    2.41
   3 -14   9   11.15    2.52
   3 -14   8    5.99    2.22
   3 -14   7    0.32    1.85
   3 -14   6    6.28    2.24
   3 -14   5    4.88    2.28
   3 -14   4    2.67    2.03
   3 -14   3   17.07    2.62
   3 -14   2    0.18    1.85
   3 -14   1    0.29    1.88
  -3  14   0   41.63    3.61
   3 -14   0   46.65    3.57
  -3  14   1    1.65    1.89
   3 -14  -1    1.72    1.96
  -3  14   2   -1.69    1.74
   3 -14  -2   -3.97    1.73
  -3  14   3   14.35    2.47
   3 -14  -3   17.87    2.68
  -3  14   4    5.70    2.12
   3 -14  -4    0.76    2.15
  -3  14   5   10.13    2.29
   3 -14  -5   14.34    2.53
  -3  14   6    5.17    2.06
   3 -14  -6    5.20    1.99
  -3  14   7    1.07    1.90
   3 -14  -7    6.50    2.30
  -3  14   8    5.36    2.13
   3 -14  -8    6.49    2.01
  -3  14   9    8.67    2.41
   3 -14  -9   12.15    2.49
  -3  14  10   -0.77    1.95
   3 -14 -10   -0.43    1.85
  -3  14  11    6.08    2.35
   3 -14 -11    7.02    2.28
  -3  14  12    1.18    2.13
   3 -14 -12    4.37    2.01
   4 -15  12    0.95    2.34
   4 -15  11    0.40    2.18
   4 -15  10    5.40    2.39
   4 -15   9    2.36    2.15
   4 -15   8   10.45    2.85
   4 -15   7    1.27    1.97
   4 -15   6    1.42    2.04
   4 -15   5    0.84    2.04
   4 -15   4   38.40    3.52
   4 -15   3   13.43    2.56
   4 -15   2    1.98    2.05
  -4  15  -1    5.25    2.15
   4 -15   1    7.81    2.29
  -4  15   0   31.54    3.23
   4 -15   0   26.82    3.16
  -4  15   1    8.90    2.32
   4 -15  -1    0.75    1.99
  -4  15   2    1.43    1.98
   4 -15  -2    2.19    2.07
  -4  15   3   11.06    2.34
   4 -15  -3   10.75    2.39
  -4  15   4   36.72    3.43
   4 -15  -4   48.03    3.94
  -4  15   5    0.72    1.32
   4 -15  -5    0.52    1.83
  -4  15   6   -0.70    1.84
   4 -15  -6    0.29    2.09
  -4  15   7    1.78    2.01
   4 -15  -7    4.97    2.22
  -4  15   8    7.37    2.30
   4 -15  -8    7.43    2.11
  -4  15   9    0.44    1.94
   4 -15  -9    1.24    2.00
  -4  15  10    3.31    2.33
   4 -15 -10    7.31    2.33
  -4  15  11   -0.76    1.98
   4 -15 -11    5.67    1.96
  -4  15  12    0.75    2.22
   5 -16  11   -2.45    2.22
   5 -16  10   10.80    2.71
   5 -16   9    1.30    2.26
   5 -16   8   -0.67    2.03
   5 -16   7    2.12    2.08
   5 -16   6   -1.48    1.90
   5 -16   5    3.76    2.15
   5 -16   4   14.60    2.61
   5 -16   3    6.76    2.39
   5 -16   2    7.24    2.34
  -5  16  -1    2.50    2.11
   5 -16   1    1.41    2.14
  -5  16   0   -2.29    1.80
   5 -16   0    2.47    2.21
  -5  16   1    1.41    2.06
   5 -16  -1    0.58    2.03
  -5  16   2    6.00    2.22
   5 -16  -2    3.06    2.11
  -5  16   3    7.45    2.19
   5 -16  -3    3.44    2.12
  -5  16   4   10.48    2.31
   5 -16  -4   13.70    2.48
  -5  16   5    2.57    1.92
   5 -16  -5    0.98    1.95
  -5  16   6   -1.11    1.83
   5 -16  -6    3.64    1.93
  -5  16   7    0.38    1.92
   5 -16  -7   -0.15    2.03
  -5  16   8    0.72    2.03
   5 -16  -8    2.93    2.14
  -5  16   9    1.86    2.11
   5 -16  -9    3.23    2.08
  -5  16  10    7.38    2.48
   5 -16 -10   10.35    2.53
  -5  16  11   -0.44    2.15
   6 -17  10    3.17    2.75
   6 -17   9   -0.53    2.52
   6 -17   8    3.22    2.23
   6 -17   7    6.49    2.33
   6 -17   6    3.02    2.20
   6 -17   5   -1.07    1.98
   6 -17   4    0.77    2.02
   6 -17   3    3.64    2.25
   6 -17   2    0.63    2.06
  -6  17  -1    1.17    1.99
   6 -17   1   -1.23    1.95
  -6  17   0    1.63    2.01
   6 -17   0    2.68    2.11
  -6  17   1    0.38    1.88
   6 -17  -1   -1.81    1.84
  -6  17   2    0.08    1.96
   6 -17  -2    1.78    1.97
  -6  17   3    3.97    2.02
   6 -17  -3    4.63    2.06
  -6  17   4    2.34    1.53
   6 -17  -4    5.40    2.41
  -6  17   5    1.41    1.97
   6 -17  -5    1.33    1.86
  -6  17   6    5.81    2.27
   6 -17  -6    3.58    2.23
  -6  17   7    4.67    2.23
   6 -17  -7    2.31    1.90
  -6  17   8    4.26    2.25
   6 -17  -8    4.02    2.23
  -6  17   9   -1.32    1.98
   6 -17  -9    2.57    2.07
  -6  17  10   -1.57    1.94
   7 -18  10   -2.29    2.19
   7 -18   9    0.46    2.19
   7 -18   8   -4.67    1.97
   7 -18   7    4.32    2.39
   7 -18   6    4.64    2.33
   7 -18   5    2.91    2.60
   7 -18   4    1.71    2.12
   7 -18   3    4.28    2.26
   7 -18   2    2.85    2.16
  -7  18  -1    6.84    2.31
   7 -18   1    5.41    2.25
  -7  18   0   -1.68    1.87
   7 -18   0   -0.04    1.98
  -7  18   1    4.31    2.19
   7 -18  -1    2.25    2.16
  -7  18   2   -0.54    2.25
   7 -18  -2    1.35    2.04
  -7  18   3    1.64    1.93
   7 -18  -3    4.29    2.15
  -7  18   4   -2.13    1.72
   7 -18  -4    0.45    1.86
  -7  18   5    2.31    2.06
   7 -18  -5    2.74    2.01
  -7  18   6    3.45    2.26
   7 -18  -6    7.22    2.48
  -7  18   7    5.57    2.37
   7 -18  -7   12.13    2.65
  -7  18   8    1.10    2.10
   7 -18  -8    2.26    2.13
  -7  18   9    0.14    2.15
  -7  18  10    0.06    2.18
   8 -19   9    1.66    2.40
   8 -19   8    1.43    2.37
   8 -19   7   -1.48    2.10
   8 -19   6    7.39    2.65
   8 -19   5    1.10    2.29
   8 -19   4    0.21    2.17
   8 -19   3    0.78    2.19
   8 -19   2    0.26    2.10
  -8  19  -1    1.30    2.13
   8 -19   1   -0.68    2.43
  -8  19   0   14.21    2.76
   8 -19   0   14.37    2.78
  -8  19   1    1.07    2.36
   8 -19  -1    0.55    2.07
  -8  19   2    2.11    2.09
   8 -19  -2    2.61    2.19
  -8  19   3    0.24    2.29
   8 -19  -3    0.31    1.90
  -8  19   4   -1.46    1.95
   8 -19  -4   -0.06    2.28
  -8  19   5    0.39    2.08
   8 -19  -5    2.88    2.30
  -8  19   6    4.25    2.28
   8 -19  -6    6.17    2.18
  -8  19   7    1.92    2.23
   8 -19  -7    1.81    2.23
  -8  19   8    4.02    2.35
  -8  19   9    0.38    2.75
   9 -20   8    0.68    2.27
   9 -20   7    5.65    2.66
   9 -20   6    6.14    2.67
   9 -20   5   -0.54    2.24
   9 -20   4   -2.75    2.51
   9 -20   3    1.33    2.26
   9 -20   2    0.73    2.27
  -9  20  -1    1.68    2.20
   9 -20   1    0.95    2.28
  -9  20   0   -0.44    1.95
   9 -20   0   -1.95    2.09
  -9  20   1    4.41    2.28
   9 -20  -1    3.28    2.66
  -9  20   2    1.32    2.15
   9 -20  -2    1.90    2.60
  -9  20   3   -1.66    1.94
   9 -20  -3    0.77    2.45
  -9  20   4    0.41    2.09
   9 -20  -4    2.32    2.06
  -9  20   5    2.66    2.30
   9 -20  -5    2.52    2.35
  -9  20   6    3.65    2.35
   9 -20  -6    8.34    2.68
  -9  20   7    7.68    2.68
   9 -20  -7    6.17    2.13
  -9  20   8   -1.62    2.12
  10 -21   6    2.74    2.57
  10 -21   5   -2.49    2.24
  10 -21   4   -3.41    2.71
  10 -21   3   -0.29    2.70
  10 -21   2    0.55    2.28
 -10  21  -1   -1.32    2.00
  10 -21   1    1.05    2.29
 -10  21   0    0.04    2.09
  10 -21   0   -1.81    2.14
 -10  21   1    2.45    2.24
  10 -21  -1    0.83    2.69
 -10  21   2   -0.30    2.15
  10 -21  -2   -2.34    2.41
 -10  21   3   -1.84    2.03
  10 -21  -3    2.47    2.27
 -10  21   4   -1.45    2.04
  10 -21  -4   -1.88    2.28
 -10  21   5    4.68    2.46
  10 -21  -5    0.93    1.94
 -10  21   6    0.85    2.18
  10 -21  -6   -0.47    1.85
  11 -22   5   -0.69    2.34
  11 -22   4    0.87    2.52
  11 -22   3    2.10    3.02
  11 -22   2    0.42    2.40
 -11  22  -1   -0.08    2.51
  11 -22   1   -2.98    2.18
 -11  22   0    2.44    2.34
  11 -22   0    3.87    2.88
 -11  22   1    3.49    2.74
  11 -22  -1   -0.43    2.12
 -11  22   2   -0.05    2.18
  11 -22  -2    1.50    2.26
 -11  22   3    1.06    2.30
  11 -22  -3   -2.78    2.36
 -11  22   4   -0.19    2.13
  11 -22  -4    2.22    2.49
  11 -22  -5   -0.89    2.33
  12 -23   1   -3.47    2.25
 -12  23   0    3.86    2.43
  12 -23   0    0.49    2.98
 -12  23   1   -4.05    2.01
  12 -23  -1    3.24    2.87
 -23  11   1   -1.12    2.10
 -23  11   0   -0.66    2.11
 -23  11  -1    0.52    2.23
 -22  10   4    2.39    2.33
 -22  10   3    0.63    2.21
 -22  10   2   -1.23    2.05
 -22  10   1    0.16    2.16
 -22  10   0    1.32    2.24
 -22  10  -1    1.21    2.25
 -22  10  -2   -1.99    2.12
 -22  10  -3    8.93    2.76
 -22  10  -4    0.19    1.94
 -22  10  -4    0.25    2.47
 -21   9   6   -0.60    2.15
 -21   9   5    0.39    2.20
 -21   9   4    1.69    2.30
 -21   9   3    3.20    2.35
 -21   9   2    1.27    2.28
 -21   9   1    6.01    2.46
 -21   9   0    1.34    2.26
 -21   9  -1    3.10    2.37
 -21   9  -2   -1.01    2.11
 -21   9  -3   -1.54    2.45
 -21   9  -3   -1.03    1.64
 -21   9  -4    4.64    2.05
 -21   9  -4   -0.46    2.05
 -21   9  -5    7.18    2.64
 -21   9  -5    0.63    1.66
 -21   9  -6    2.15    1.80
 -21   9  -6   -1.90    2.45
 -20   8   8   -0.34    2.24
 -20   8   7   -1.15    2.21
 -20   8   6   -0.28    2.16
 -20   8   5    1.62    2.20
 -20   8   4    1.76    2.62
 -20   8   3   -0.14    2.15
 -20   8   2    0.46    2.13
 -20   8   1    2.18    2.19
 -20   8   0    3.84    2.32
 -20   8  -1    3.46    2.26
 -20   8  -2   -1.68    1.48
 -20   8  -2   -0.17    2.10
 -20   8  -3    1.50    2.18
 -20   8  -3    0.21    1.69
 -20   8  -4   -1.29    1.40
 -20   8  -4   -0.56    1.99
 -20   8  -5   -0.43    2.09
 -20   8  -5    0.66    1.64
 -20   8  -6    0.94    2.18
 -20   8  -6    2.30    2.07
 -20   8  -7    1.30    2.13
 -20   8  -7    2.38    2.64
 -20   8  -8    0.61    1.81
 -20   8  -8   -1.21    2.34
 -19   7   9    2.20    2.47
 -19   7   8    0.53    2.27
 -19   7   7    3.25    2.44
 -19   7   6    4.94    2.39
 -19   7   5    0.84    2.23
 -19   7   4    3.01    2.31
 -19   7   3    3.37    2.30
 -19   7   2    0.16    2.05
 -19   7   1    3.15    2.22
 -19   7   0    0.89    2.07
 -19   7  -1    6.91    1.69
 -19   7  -1    4.49    2.33
 -19   7  -2    0.13    1.48
 -19   7  -2    1.39    2.14
 -19   7  -3    0.70    2.03
 -19   7  -3    2.13    1.67
 -19   7  -4    3.31    2.08
 -19   7  -4    3.80    1.84
 -19   7  -5    2.19    1.61
 -19   7  -5    0.18    1.97
 -19   7  -6   -2.03    1.52
 -19   7  -6    1.19    2.09
 -19   7  -7    5.08    2.64
 -19   7  -7    0.78    1.74
 -19   7  -8   -3.11    1.55
 -19   7  -8    2.08    1.99
 -19   7  -9   -0.80    1.73
 -19   7  -9    3.46    2.16
 -18   6   9    0.53    2.26
 -18   6   8    0.05    2.15
 -18   6   7    3.71    2.32
 -18   6   6    4.63    2.34
 -18   6   5    1.98    2.16
 -18   6   4    5.46    2.33
 -18   6   3    2.54    2.18
 -18   6   2   -0.37    2.02
 -18   6   1    7.29    2.43
 -18   6   0    0.05    1.21
 -18   6   0    3.12    2.20
 -18   6  -1    8.55    1.73
 -18   6  -1    3.67    2.23
 -18   6  -2    0.27    1.97
 -18   6  -2   -1.60    1.36
 -18   6  -3    1.01    1.37
 -18   6  -3    7.47    2.41
 -18   6  -4    8.83    2.42
 -18   6  -4    7.90    2.08
 -18   6  -5    4.37    2.22
 -18   6  -5    2.00    1.88
 -18   6  -6    3.62    2.51
 -18   6  -6    2.64    1.75
 -18   6  -7    2.45    2.06
 -18   6  -7    2.00    1.80
 -18   6  -8    0.72    1.73
 -18   6  -8   -0.44    1.78
 -18   6  -9   -1.81    1.56
 -18   6  -9   -0.12    1.88
 -18   6 -10    3.34    2.12
 -17   5  10    1.87    2.88
 -17   5   9    6.18    2.65
 -17   5   8    2.41    2.26
 -17   5   7    2.26    2.30
 -17   5   6   -1.42    1.96
 -17   5   5   -1.55    1.94
 -17   5   4    2.50    2.09
 -17   5   3   12.71    2.63
 -17   5   2    1.72    2.13
 -17   5   1    8.09    1.57
 -17   5   1    7.07    2.40
 -17   5   0    5.53    1.46
 -17   5   0    3.19    2.18
 -17   5  -1    6.87    1.62
 -17   5  -1    6.18    2.32
 -17   5  -2    2.66    2.09
 -17   5  -2    0.09    1.48
 -17   5  -3   15.26    2.26
 -17   5  -3   15.44    2.76
 -17   5  -4    1.71    1.64
 -17   5  -4    2.08    1.94
 -17   5  -5    0.49    1.69
 -17   5  -5    0.34    1.79
 -17   5  -6   -1.56    2.11
 -17   5  -6    0.11    1.52
 -17   5  -7    3.28    2.39
 -17   5  -7    2.33    2.01
 -17   5  -8    2.08    1.78
 -17   5  -8    3.35    2.06
 -17   5  -9    5.65    2.36
 -17   5  -9    7.06    2.33
 -17   5 -10    1.23    1.80
 -17   5 -10    0.00    1.73
 -16   4  11    4.52    2.70
 -16   4  10    1.28    2.40
 -16   4   9    3.15    2.39
 -16   4   8   -0.01    2.07
 -16   4   7    1.60    2.19
 -16   4   6   -0.76    1.97
 -16   4   5    1.27    2.04
 -16   4   4   -0.96    1.94
 -16   4   3   10.26    2.51
 -16   4   2    7.63    2.46
 -16   4   1    4.97    1.42
 -16   4   1    2.99    2.12
 -16   4   0    4.00    2.13
 -16   4   0    1.97    1.31
 -16   4  -1    2.90    2.09
 -16   4  -1    2.35    1.44
 -16   4  -2    5.83    1.52
 -16   4  -2    6.95    2.66
 -16   4  -3   12.14    1.99
 -16   4  -3   11.29    2.80
 -16   4  -4    1.53    1.64
 -16   4  -4    1.64    1.90
 -16   4  -5    4.85    2.01
 -16   4  -5    4.39    1.65
 -16   4  -6    0.10    1.70
 -16   4  -6   -0.93    1.66
 -16   4  -7    0.83    2.06
 -16   4  -7    3.85    1.75
 -16   4  -8   -0.73    1.51
 -16   4  -8   -0.13    1.98
 -16   4  -9    2.64    1.94
 -16   4  -9    5.20    2.24
 -16   4 -10   -0.63    1.64
 -16   4 -10    4.13    2.24
 -16   4 -11    6.28    2.39
 -16   4 -11    6.45    2.19
 -15   3  11    3.63    2.50
 -15   3  10    1.40    2.29
 -15   3   9    2.91    2.36
 -15   3   8    1.39    2.16
 -15   3   7   -0.19    1.97
 -15   3   6    7.53    2.35
 -15   3   5    5.36    2.26
 -15   3   4   18.95    2.82
 -15   3   3    3.02    2.14
 -15   3   2    4.73    2.60
 -15   3   2    3.32    1.19
 -15   3   1    0.27    2.03
 -15   3   1    2.33    1.21
 -15   3   0    4.94    2.18
 -15   3   0    2.36    1.46
 -15   3  -1    3.39    1.30
 -15   3  -1    6.56    2.29
 -15   3  -2    5.28    2.15
 -15   3  -2    3.93    1.61
 -15   3  -3    4.79    2.14
 -15   3  -3    3.76    1.48
 -15   3  -4   20.47    2.48
 -15   3  -4   14.69    2.58
 -15   3  -5    9.26    2.20
 -15   3  -5   10.00    2.12
 -15   3  -6    4.95    1.96
 -15   3  -6   10.27    2.50
 -15   3  -7    1.22    1.55
 -15   3  -7    5.46    2.26
 -15   3  -8   -0.60    1.53
 -15   3  -8    0.59    1.89
 -15   3  -9   -0.92    1.59
 -15   3  -9    2.37    1.98
 -15   3 -10   -0.35    1.59
 -15   3 -10    1.34    2.04
 -15   3 -11    1.70    2.00
 -15   3 -11    1.90    1.84
 -14   2  12    0.78    2.48
 -14   2  11    1.97    2.83
 -14   2  10   -0.53    2.19
 -14   2   9    1.32    2.15
 -14   2   8    1.21    2.41
 -14   2   7   21.47    3.02
 -14   2   6    0.49    2.03
 -14   2   5    2.22    2.11
 -14   2   4    2.49    2.22
 -14   2   3    2.11    2.40
 -14   2   3    2.72    1.08
 -14   2   2    0.55    1.00
 -14   2   2   -1.01    1.91
 -14   2   1   17.42    1.87
 -14   2   1   23.36    2.95
 -14   2   0   -0.47    1.16
 -14   2   0    2.50    1.95
 -14   2  -1   21.46    2.02
 -14   2  -1   16.91    2.60
 -14   2  -2   -2.69    1.32
 -14   2  -2    2.77    1.83
 -14   2  -3    0.67    1.32
 -14   2  -3   -1.65    1.65
 -14   2  -4    4.54    1.58
 -14   2  -4    4.91    1.98
 -14   2  -5    1.29    1.65
 -14   2  -5    0.63    1.45
 -14   2  -6    0.99    1.67
 -14   2  -6    2.66    2.00
 -14   2  -7   20.02    2.53
 -14   2  -7   26.58    3.10
 -14   2  -8    0.82    1.52
 -14   2  -8    0.20    1.47
 -14   2  -9    1.46    1.80
 -14   2  -9   -0.45    1.57
 -14   2 -10    2.72    1.80
 -14   2 -10    0.30    0.66
 -14   2 -11    4.46    2.34
 -14   2 -11    0.46    1.24
 -14   2 -12    1.94    1.92
 -13   1  12    1.62    2.46
 -13   1  11    1.79    2.42
 -13   1  10   -0.94    2.13
 -13   1   9   -1.63    2.02
 -13   1   8    3.45    2.22
 -13   1   7   16.76    2.79
 -13   1   6    1.27    2.02
 -13   1   5    7.94    2.40
 -13   1   4    9.93    1.32
 -13   1   4   11.66    2.41
 -13   1   3    2.25    1.08
 -13   1   3    3.71    2.07
 -13   1   2    4.33    2.00
 -13   1   2    7.16    1.38
 -13   1   1   28.06    3.00
 -13   1   1   29.25    2.12
 -13   1   0   42.75    2.63
 -13   1   0   44.60    3.64
 -13   1  -1   33.60    3.39
 -13   1  -1   28.44    2.22
 -13   1  -2    3.49    2.09
 -13   1  -2    5.23    1.61
 -13   1  -3    1.54    1.65
 -13   1  -3    5.91    1.70
 -13   1  -4    8.17    2.02
 -13   1  -4   10.07    1.81
 -13   1  -5    7.91    2.17
 -13   1  -5    5.67    1.66
 -13   1  -6    2.63    1.85
 -13   1  -6    0.51    1.49
 -13   1  -7    9.82    2.03
 -13   1  -7    5.37    1.33
 -13   1  -8    3.54    1.69
 -13   1  -8    1.56    0.94
 -13   1  -9    2.49    1.68
 -13   1  -9    1.10    1.55
 -13   1 -10    0.79    1.67
 -13   1 -10    5.31    1.92
 -13   1 -11    1.52    1.71
 -13   1 -12    2.66    1.88
 -12   0  13    1.38    2.58
 -12   0  12   -0.12    2.81
 -12   0  11    2.61    2.37
 -12   0  10   -1.54    1.99
 -12   0   9   -0.41    2.06
 -12   0   8    0.50    2.02
 -12   0   7    2.13    2.14
 -12   0   6   32.20    3.37
 -12   0   5    2.76    2.03
 -12   0   5    1.38    1.02
 -12   0   4   -0.54    0.91
 -12   0   4    0.61    1.84
 -12   0   3    3.90    1.18
 -12   0   3    3.16    1.92
 -12   0   2    1.21    1.15
 -12   0   2   -0.66    1.72
 -12   0   1    3.66    2.21
 -12   0   1    4.43    1.28
 -12   0   0   94.18    4.72
 -12   0   0   93.91    4.05
 -12   0  -1    1.94    1.19
 -12   0  -1    1.82    1.96
 -12   0  -2   -2.15    1.76
 -12   0  -2   -0.15    1.10
 -12   0  -3    1.87    1.86
 -12   0  -3    2.59    1.59
 -12   0  -4   -1.19    1.46
 -12   0  -4    0.51    1.73
 -12   0  -5   -1.15    1.56
 -12   0  -5    1.27    0.61
 -12   0  -6   29.59    2.87
 -12   0  -6   31.28    2.86
 -12   0  -7    3.74    1.74
 -12   0  -7    6.33    1.82
 -12   0  -8    0.19    1.50
 -12   0  -8    2.76    1.62
 -12   0  -9    0.52    1.50
 -12   0  -9    0.21    1.79
 -12   0 -10   -1.96    1.29
 -12   0 -10   -1.08    1.46
 -12   0 -11    2.16    1.81
 -12   0 -12    2.42    1.92
 -12   0 -13   -1.41    1.63
 -11  -1  13    2.58    2.55
 -11  -1  12    0.02    2.32
 -11  -1  11    4.59    2.48
 -11  -1  10    2.00    2.27
 -11  -1   9   -0.47    2.04
 -11  -1   8    5.45    2.33
 -11  -1   7    1.13    2.05
 -11  -1   6   -0.22    1.17
 -11  -1   6    2.56    2.04
 -11  -1   5    5.93    2.19
 -11  -1   5    7.52    1.34
 -11  -1   4   10.01    1.46
 -11  -1   4    8.14    2.11
 -11  -1   3   38.00    3.23
 -11  -1   3   38.82    2.38
 -11  -1   2    2.85    1.17
 -11  -1   2    3.40    1.81
 -11  -1   1    6.69    1.41
 -11  -1   1   11.94    2.01
 -11  -1   0   47.14    2.74
 -11  -1   0   46.93    3.22
 -11  -1  -1    8.53    1.93
 -11  -1  -1    5.10    1.33
 -11  -1  -2    3.39    1.34
 -11  -1  -2    0.64    1.45
 -11  -1  -3   27.63    2.59
 -11  -1  -3   37.29    2.56
 -11  -1  -4    4.20    1.50
 -11  -1  -4    5.69    1.66
 -11  -1  -5    6.32    1.80
 -11  -1  -5    6.88    1.69
 -11  -1  -6    2.00    1.59
 -11  -1  -6    0.98    1.47
 -11  -1  -7    3.59    1.56
 -11  -1  -7    2.45    1.61
 -11  -1  -8    8.62    1.93
 -11  -1  -8    3.97    1.54
 -11  -1  -9    1.43    1.56
 -11  -1  -9    1.63    1.58
 -11  -1 -10    0.61    1.57
 -11  -1 -11    3.57    1.83
 -11  -1 -12    3.36    1.89
 -11  -1 -13    1.07    1.81
 -10  -2  13    5.15    2.63
 -10  -2  12    0.41    2.27
 -10  -2  11    8.47    2.69
 -10  -2  10    8.48    2.52
 -10  -2   9    4.80    2.26
 -10  -2   8    2.10    2.10
 -10  -2   7    2.80    1.45
 -10  -2   7   -0.66    1.96
 -10  -2   6   -0.60    1.28
 -10  -2   6    0.13    1.92
 -10  -2   5   13.38    2.39
 -10  -2   5   13.38    1.77
 -10  -2   4    8.01    2.10
 -10  -2   4   11.67    1.56
 -10  -2   3   40.87    3.40
 -10  -2   3   38.23    2.40
 -10  -2   2    5.68    1.79
 -10  -2   2    7.06    1.43
 -10  -2   1    0.30    1.20
 -10  -2   1    0.11    1.46
 -10  -2   0    1.13    1.43
 -10  -2   0   -0.58    1.16
 -10  -2  -1    2.18    1.49
 -10  -2  -1    0.85    1.12
 -10  -2  -2    5.19    1.40
 -10  -2  -3   39.11    2.84
 -10  -2  -3   35.92    2.57
 -10  -2  -4   13.45    1.88
 -10  -2  -4   10.11    1.87
 -10  -2  -5   15.47    2.00
 -10  -2  -5   16.70    2.15
 -10  -2  -6    0.64    1.48
 -10  -2  -6    2.44    1.55
  10   2   7    1.55    1.30
 -10  -2  -7    2.18    1.47
 -10  -2  -7    1.80    1.54
 -10  -2  -8    0.49    1.56
 -10  -2  -8    5.06    1.53
 -10  -2  -9    1.51    1.57
 -10  -2 -10    6.57    1.97
 -10  -2 -11    8.97    2.13
 -10  -2 -12    1.67    2.10
 -10  -2 -13    3.57    2.03
  -9  -3  13   -0.51    2.44
  -9  -3  12    0.89    2.75
  -9  -3  11    3.07    2.26
  -9  -3  10   19.96    3.08
  -9  -3   9   -0.39    1.99
  -9  -3   8    2.15    1.62
  -9  -3   8    0.25    2.01
  -9  -3   7   19.82    2.84
  -9  -3   7   21.35    2.21
  -9  -3   6   18.81    2.09
  -9  -3   6   14.79    2.52
  -9  -3   5   17.54    1.95
  -9  -3   5   13.91    2.33
  -9  -3   4   60.78    3.69
  -9  -3   4   63.44    3.22
  -9  -3   3   14.48    1.81
  -9  -3   3   12.06    2.08
  -9  -3   2   13.28    2.20
  -9  -3   2   10.26    1.64
  -9  -3   1   18.54    2.32
  -9  -3   1   22.43    2.02
  -9  -3   0   -0.81    1.20
  -9  -3   0    1.49    1.36
  -9  -3  -1   18.80    1.89
  -9  -3  -2   10.46    1.79
  -9  -3  -2    9.92    1.60
  -9  -3  -3   19.21    2.04
  -9  -3  -3   13.49    1.91
  -9  -3  -4   62.27    3.25
  -9  -3  -4   65.15    3.46
  -9  -3  -5   15.67    2.12
  -9  -3  -5   16.71    1.93
   9   3   6   17.07    1.83
  -9  -3  -6   16.51    1.90
  -9  -3  -6   14.00    2.10
   9   3   7   21.92    2.16
  -9  -3  -7   20.23    2.04
  -9  -3  -7   21.05    2.53
   9   3   8    1.49    1.51
  -9  -3  -8    3.55    1.65
  -9  -3  -8    2.37    1.34
  -9  -3  -9    1.52    1.53
  -9  -3 -10   11.98    2.27
  -9  -3 -11    2.98    2.13
  -9  -3 -12    2.24    1.79
  -9  -3 -13    4.27    2.03
  -8  -4  13    1.05    2.34
  -8  -4  12    2.45    2.31
  -8  -4  11    1.34    2.14
  -8  -4  10    9.91    2.52
  -8  -4   9   13.47    2.08
  -8  -4   9   12.70    2.62
  -8  -4   8    6.93    2.25
  -8  -4   8    8.57    1.87
  -8  -4   7   35.71    2.76
  -8  -4   7   35.06    3.37
  -8  -4   6   12.38    2.32
  -8  -4   6    6.03    1.85
  -8  -4   5    9.27    2.08
  -8  -4   5    9.31    1.77
  -8  -4   4   24.77    2.35
  -8  -4   4   23.79    2.59
  -8  -4   3   23.20    2.20
  -8  -4   3   27.20    2.78
  -8  -4   2   39.21    2.71
  -8  -4   2   37.69    2.46
  -8  -4   1   61.17    3.22
  -8  -4   1   58.30    3.15
  -8  -4   0    1.62    1.22
  -8  -4   0    0.08    0.65
  -8  -4  -1   56.69    3.13
  -8  -4  -1   58.01    3.06
  -8  -4  -2   33.84    2.43
  -8  -4  -2   34.18    2.55
  -8  -4  -3   27.15    2.19
  -8  -4  -3   23.45    2.30
  -8  -4  -4   27.88    2.53
  -8  -4  -4   24.28    2.10
   8   4   5    9.52    1.78
  -8  -4  -5    8.82    1.78
  -8  -4  -5    9.11    1.45
   8   4   6    8.73    1.68
  -8  -4  -6    9.21    1.86
  -8  -4  -6    9.75    1.47
   8   4   7   33.35    2.62
  -8  -4  -7   36.45    2.21
  -8  -4  -7   37.21    3.15
   8   4   8    5.96    1.81
  -8  -4  -8    3.72    1.73
   8   4   9   13.08    2.11
  -8  -4  -9   15.40    2.57
  -8  -4 -10   11.12    2.16
  -8  -4 -11    0.75    1.64
  -8  -4 -12    2.26    1.78
  -8  -4 -13    3.59    1.88
  -7  -5  13    4.74    2.56
  -7  -5  12    5.98    2.52
  -7  -5  11   11.78    2.73
  -7  -5  10    6.49    1.90
  -7  -5  10    5.10    2.30
  -7  -5   9    9.67    2.15
  -7  -5   9    8.59    2.44
  -7  -5   8    9.88    2.04
  -7  -5   8    6.97    2.33
  -7  -5   7   17.78    2.32
  -7  -5   7   15.69    2.57
  -7  -5   6   10.28    1.98
  -7  -5   6   11.12    2.26
  -7  -5   5   17.84    2.02
  -7  -5   5   16.54    2.58
  -7  -5   4    4.02    1.68
  -7  -5   4    5.45    1.99
  -7  -5   3   57.15    3.13
  -7  -5   3   58.18    3.29
  -7  -5   2    2.60    1.50
  -7  -5   2   -0.58    1.48
  -7  -5   1   81.43    3.77
  -7  -5   1   79.28    3.79
  -7  -5   0   54.23    3.00
  -7  -5   0   52.11    2.90
  -7  -5  -1   74.13    3.65
  -7  -5  -1   77.74    3.53
  -7  -5  -2    0.51    1.23
  -7  -5  -2   -1.08    1.05
  -7  -5  -3   57.02    2.79
  -7  -5  -3   54.00    3.15
   7   5   4    5.13    1.36
  -7  -5  -4    2.82    1.45
  -7  -5  -4    4.33    1.13
   7   5   5   15.03    2.07
  -7  -5  -5   18.68    2.24
  -7  -5  -5   20.03    1.66
   7   5   6   13.42    1.95
  -7  -5  -6   10.12    1.26
  -7  -5  -6    9.76    1.88
   7   5   7   15.63    1.94
  -7  -5  -7   14.71    2.24
   7   5   8   10.43    1.93
  -7  -5  -8    6.56    1.94
   7   5   9   13.48    2.13
  -7  -5  -9   12.54    2.25
   7   5  10    4.98    1.81
  -7  -5 -10    5.72    1.92
  -7  -5 -11    9.92    2.41
  -7  -5 -12   10.27    2.33
  -7  -5 -13    3.19    1.85
  -6  -6  14    1.88    2.98
  -6  -6  13   -0.22    2.26
  -6  -6  12    2.94    2.34
  -6  -6  11    2.36    2.15
  -6  -6  11    2.49    1.97
  -6  -6  10    5.23    2.01
  -6  -6  10    6.51    2.34
  -6  -6   9    4.97    1.95
  -6  -6   9    4.92    2.22
  -6  -6   8    3.35    2.10
  -6  -6   8    4.44    1.89
  -6  -6   7    7.23    2.00
  -6  -6   7    8.59    2.23
  -6  -6   6   39.71    3.10
  -6  -6   6   38.46    3.29
  -6  -6   5   22.49    2.52
  -6  -6   5   29.07    2.93
  -6  -6   4   38.81    2.98
  -6  -6   4   35.16    2.87
  -6  -6   3   17.55    2.04
  -6  -6   3   14.90    2.01
  -6  -6   2    5.51    1.64
  -6  -6   2    5.94    1.45
  -6  -6   1   76.00    3.72
  -6  -6   0   19.02    2.13
  -6  -6   0   23.87    2.07
  -6  -6  -1   68.43    3.22
  -6  -6  -1   81.71    3.92
  -6  -6  -2    3.93    1.22
  -6  -6  -2    4.36    1.52
  -6  -6  -3   16.89    1.54
  -6  -6  -3   16.47    2.05
   6   6   4   31.77    2.45
  -6  -6  -4   32.78    2.75
  -6  -6  -4   32.83    1.90
   6   6   5   24.86    2.42
  -6  -6  -5   22.84    2.47
  -6  -6  -5   23.82    1.54
   6   6   6   38.22    2.89
  -6  -6  -6   35.61    3.02
   6   6   7    8.14    1.95
  -6  -6  -7    7.42    1.92
   6   6   8    4.45    1.93
  -6  -6  -8    3.58    1.76
   6   6   9    3.48    1.80
  -6  -6  -9    4.66    1.76
   6   6  10    6.91    1.79
  -6  -6 -10    4.59    1.87
   6   6  11    0.24    1.86
  -6  -6 -11    1.07    1.74
   6   6  12   -1.21    1.90
  -6  -6 -12   -1.74    1.48
  -6  -6 -13    0.73    1.82
  -6  -6 -14    4.32    2.28
  -5  -7  13   -1.35    2.12
  -5  -7  12    2.06    2.28
  -5  -7  11    3.91    2.32
  -5  -7  11    3.12    2.20
  -5  -7  10    2.05    2.09
  -5  -7  10    7.38    2.19
  -5  -7   9   14.30    2.42
  -5  -7   9   13.63    2.63
  -5  -7   8    5.95    1.89
  -5  -7   8    9.96    2.41
  -5  -7   7   20.15    2.75
  -5  -7   7   13.49    2.38
  -5  -7   6   10.85    1.97
  -5  -7   6    6.15    2.00
  -5  -7   5   20.12    2.58
  -5  -7   5   14.27    2.11
  -5  -7   4    4.81    1.65
  -5  -7   4    6.69    1.68
  -5  -7   3   64.13    3.48
  -5  -7   3   64.92    3.52
  -5  -7   2    1.50    1.46
  -5  -7   2    0.82    1.13
  -5  -7   1   81.28    3.98
  -5  -7   1   79.84    3.63
  -5  -7   0   54.58    2.76
  -5  -7   0   51.85    3.17
  -5  -7  -1   81.83    3.93
  -5  -7  -1   75.82    3.33
  -5  -7  -2   -0.07    0.93
  -5  -7  -2   -0.70    1.30
   5   7   3   56.41    3.21
  -5  -7  -3   57.24    3.35
  -5  -7  -3   59.25    2.55
   5   7   4    5.41    1.53
  -5  -7  -4    8.31    1.76
  -5  -7  -4    5.30    0.83
   5   7   5   17.17    2.26
  -5  -7  -5   16.43    2.21
   5   7   6   11.30    1.86
  -5  -7  -6   11.30    2.07
   5   7   7   16.65    2.19
  -5  -7  -7   10.73    2.12
   5   7   8   10.95    2.24
  -5  -7  -8    8.98    2.08
   5   7   9   13.98    2.39
  -5  -7  -9   11.60    2.22
   5   7  10    6.04    1.86
  -5  -7 -10    4.05    2.05
   5   7  11    8.40    2.32
  -5  -7 -11    4.17    1.95
   5   7  12    6.69    2.29
  -5  -7 -12    6.09    2.03
   5   7  13    1.85    2.19
  -5  -7 -13    4.70    2.27
  -4  -8  13    4.07    2.42
  -4  -8  12    2.74    2.21
  -4  -8  12    2.03    2.12
  -4  -8  11    2.50    2.14
  -4  -8  11    2.71    2.19
  -4  -8  10   11.44    2.46
  -4  -8  10   11.78    2.52
  -4  -8   9   16.22    2.58
  -4  -8   9   17.83    2.74
  -4  -8   8    4.06    2.07
  -4  -8   8    7.22    1.96
  -4  -8   7   38.79    3.17
  -4  -8   7   37.49    3.39
  -4  -8   6   11.16    2.03
  -4  -8   6    9.56    2.06
  -4  -8   5    8.34    1.89
  -4  -8   5    8.70    1.99
  -4  -8   4   31.23    2.95
  -4  -8   4   24.37    2.47
  -4  -8   3   25.00    2.52
  -4  -8   3   25.20    2.30
  -4  -8   2   36.18    2.92
  -4  -8   1   60.91    3.45
  -4  -8   1   57.34    2.94
  -4  -8   0   -0.79    0.95
  -4  -8   0    1.70    1.49
  -4  -8  -1   52.73    2.59
  -4  -8  -1   59.66    3.43
   4   8   2   35.96    2.68
  -4  -8  -2   33.84    1.91
  -4  -8  -2   37.06    2.75
   4   8   3   28.80    2.58
  -4  -8  -3   19.61    2.37
  -4  -8  -3   23.50    1.46
   4   8   4   24.24    2.39
  -4  -8  -4   23.71    1.06
  -4  -8  -4   17.62    2.32
   4   8   5    8.53    1.85
  -4  -8  -5    7.54    1.87
   4   8   6    8.25    1.86
  -4  -8  -6    9.08    1.97
   4   8   7   41.00    3.36
  -4  -8  -7   37.52    3.33
   4   8   8    0.53    1.95
  -4  -8  -8    5.93    1.89
   4   8   9   18.90    2.74
  -4  -8  -9   18.67    2.52
   4   8  10   11.06    2.46
  -4  -8 -10    9.94    2.17
   4   8  11    2.94    2.15
  -4  -8 -11    4.89    1.98
   4   8  12   -0.36    1.74
  -4  -8 -12   -0.06    1.62
   4   8  13    3.92    2.02
  -4  -8 -13    4.89    2.02
  -3  -9  13    3.97    2.46
  -3  -9  13    5.59    2.40
  -3  -9  12    3.59    2.26
  -3  -9  12   -2.82    2.04
  -3  -9  11   -2.55    2.00
  -3  -9  11   -0.78    1.90
  -3  -9  10   19.24    2.60
  -3  -9  10   13.17    2.61
  -3  -9   9    0.53    1.83
  -3  -9   9   -0.41    1.77
  -3  -9   8    1.64    1.85
  -3  -9   8    2.87    1.85
  -3  -9   7   20.65    2.59
  -3  -9   6   16.05    2.63
  -3  -9   6   13.58    2.29
  -3  -9   5   18.10    2.37
  -3  -9   5   17.00    2.28
  -3  -9   4   66.05    3.77
  -3  -9   4   67.04    3.74
  -3  -9   3   17.41    1.93
  -3  -9   3   18.12    2.29
  -3  -9   2    9.71    2.00
  -3  -9   1   20.45    2.42
  -3  -9   1   19.72    1.83
  -3  -9   0   -0.52    1.47
  -3  -9   0    1.05    0.97
  -3  -9  -1   18.97    2.30
  -3  -9  -1   20.06    1.59
   3   9   2   10.20    1.88
  -3  -9  -2    9.60    1.15
  -3  -9  -2   11.44    2.08
   3   9   3   14.43    2.07
  -3  -9  -3   15.02    1.07
  -3  -9  -3    9.37    1.97
   3   9   4   65.97    3.64
  -3  -9  -4   58.15    3.63
   3   9   5   19.06    2.51
  -3  -9  -5   17.64    2.38
   3   9   6   15.09    2.20
  -3  -9  -6   10.91    2.14
   3   9   7   19.78    2.48
  -3  -9  -7   21.14    2.69
   3   9   8    2.87    1.84
  -3  -9  -8    5.28    1.91
   3   9   9   -0.14    2.02
  -3  -9  -9    2.15    1.96
   3   9  10   15.24    2.40
  -3  -9 -10   17.58    2.66
   3   9  11    2.83    1.92
  -3  -9 -11    1.67    1.75
   3   9  12    3.88    2.34
  -3  -9 -12    0.92    2.01
   3   9  13    6.15    2.20
  -3  -9 -13    5.41    2.07
  -2 -10  13    0.85    2.42
  -2 -10  13    3.17    2.28
  -2 -10  12   -2.96    2.21
  -2 -10  11   11.23    2.39
  -2 -10  10   10.32    2.56
  -2 -10   9    3.91    2.00
  -2 -10   8   -1.19    1.83
  -2 -10   7    1.85    2.26
  -2 -10   6    3.63    2.20
  -2 -10   5   15.04    2.32
  -2 -10   4   13.87    2.54
  -2 -10   3   37.24    3.14
  -2 -10   2    3.81    1.77
  -2 -10   2    5.99    1.47
  -2 -10   1   -0.57    1.58
  -2 -10   1    0.84    1.09
  -2 -10   0    1.26    1.07
  -2 -10   0   -0.88    1.55
   2  10   1    1.35    1.62
  -2 -10  -1    1.50    1.70
  -2 -10  -1    1.67    1.00
   2  10   2    5.93    1.85
  -2 -10  -2    4.99    0.97
  -2 -10  -2    4.53    1.77
   2  10   3   37.69    2.98
  -2 -10  -3   41.70    3.31
   2  10   4   12.86    2.18
  -2 -10  -4   14.66    2.25
   2  10   5   16.04    2.31
  -2 -10  -5   13.14    2.27
   2  10   6    0.15    1.69
  -2 -10  -6   -1.29    1.53
   2  10   7    2.85    1.87
  -2 -10  -7    1.61    1.71
   2  10   8    0.79    2.15
  -2 -10  -8    1.35    1.69
   2  10   9    0.51    1.79
  -2 -10  -9    3.36    1.77
   2  10  10   11.07    2.34
  -2 -10 -10    9.26    2.19
   2  10  11    7.50    2.20
  -2 -10 -11   11.71    2.31
   2  10  12    1.24    2.38
  -2 -10 -12   -0.02    1.64
   2  10  13    5.41    2.19
  -2 -10 -13    1.85    1.94
  -1 -11  13   -1.43    2.46
  -1 -11  12    5.14    2.65
  -1 -11  11    6.77    2.28
  -1 -11  10    0.94    1.85
  -1 -11   9    0.76    1.90
  -1 -11   8    3.59    2.39
  -1 -11   7    0.86    1.92
  -1 -11   6   -0.23    2.20
  -1 -11   5    4.67    1.98
  -1 -11   4    9.37    2.11
  -1 -11   3   38.98    3.23
  -1 -11   2    4.31    1.95
  -1 -11   1    7.51    2.01
  -1 -11   0   48.24    3.39
  -1 -11   0   45.29    2.43
   1  11   1    9.98    2.10
  -1 -11  -1    6.24    1.13
  -1 -11  -1    9.37    2.12
   1  11   2    3.31    1.81
  -1 -11  -2    1.84    1.70
  -1 -11  -2    2.91    0.90
   1  11   3   34.03    3.01
  -1 -11  -3   37.30    3.22
   1  11   4   10.00    2.09
  -1 -11  -4    6.05    1.95
   1  11   5    6.17    2.21
  -1 -11  -5    4.53    1.83
   1  11   6    1.89    1.80
  -1 -11  -6    0.35    1.69
   1  11   7    1.19    1.84
  -1 -11  -7    3.39    2.12
   1  11   8    3.78    1.93
  -1 -11  -8    6.29    1.97
   1  11   9    4.64    2.03
  -1 -11  -9    0.92    1.63
   1  11  10   -2.18    1.70
  -1 -11 -10    1.49    1.68
   1  11  11    1.60    1.97
  -1 -11 -11    7.67    2.44
   1  11  12    1.70    2.09
  -1 -11 -12    3.55    2.19
   1  11  13    3.91    2.27
  -1 -11 -13    1.78    1.69
   0 -12  13   -0.33    2.56
   0 -12  12    1.27    2.13
   0 -12  11    6.28    2.74
   0 -12  10   -0.32    1.89
   0 -12   9    1.37    1.87
   0 -12   8    4.53    2.39
   0 -12   7    8.51    2.57
   0 -12   6   28.40    3.09
   0 -12   5    0.17    1.89
   0 -12   4   -1.45    1.73
   0 -12   3    5.91    2.06
   0 -12   2    0.20    1.87
   0 -12   1    1.40    1.80
   0 -12   0   89.65    4.65
   0  12   1    3.01    1.42
   0 -12  -1    3.31    1.95
   0  12   2   -0.94    1.66
   0 -12  -2    0.43    0.82
   0 -12  -2   -0.30    1.75
   0  12   3    6.02    1.94
   0 -12  -3    1.57    1.85
   0  12   4    0.99    1.72
   0 -12  -4   -1.11    1.69
   0  12   5    2.47    1.87
   0 -12  -5    0.11    1.72
   0  12   6   32.37    3.15
   0 -12  -6   30.65    3.16
   0  12   7    3.86    1.96
   0 -12  -7    0.51    1.73
   0  12   8    0.12    1.86
   0 -12  -8    0.98    1.61
   0  12   9   -0.30    1.84
   0 -12  -9    1.93    1.70
   0  12  10   -0.43    1.86
   0 -12 -10    0.74    1.67
   0  12  11    6.88    2.28
   0 -12 -11    0.79    1.62
   0  12  12   -0.03    1.98
   0 -12 -12    3.67    2.18
   0  12  13   -0.08    2.06
   0 -12 -13   -1.78    1.53
   1 -13  12    3.64    2.73
   1 -13  11    1.16    2.11
   1 -13  10    2.37    2.46
   1 -13   9   -0.30    1.85
   1 -13   8    4.57    2.14
   1 -13   7   19.43    2.79
   1 -13   6   -0.16    1.89
   1 -13   5   14.63    2.89
   1 -13   4    5.67    2.24
   1 -13   3    2.00    1.93
   1 -13   2    2.79    2.02
   1 -13   1   29.55    3.07
  -1  13   0   47.37    3.52
   1 -13   0   42.99    3.57
  -1  13   1   30.53    3.02
   1 -13  -1   26.91    3.01
  -1  13   2    6.22    2.05
   1 -13  -2    7.01    2.18
  -1  13   3    5.25    2.03
   1 -13  -3    1.03    1.84
  -1  13   4    9.19    2.20
   1 -13  -4    8.79    2.27
  -1  13   5   12.49    2.40
   1 -13  -5    8.29    2.20
  -1  13   6    2.21    1.91
   1 -13  -6    1.82    1.91
  -1  13   7   14.12    2.48
   1 -13  -7   18.37    2.65
  -1  13   8    7.80    2.19
   1 -13  -8    4.64    1.93
  -1  13   9   -0.26    1.94
   1 -13  -9   -2.37    1.84
  -1  13  10    2.64    2.10
   1 -13 -10    0.92    1.68
  -1  13  11   -0.87    1.99
   1 -13 -11    2.64    1.82
  -1  13  12    0.14    2.08
   1 -13 -12    4.29    2.16
   2 -14  12   -4.30    2.05
   2 -14  11    1.13    2.25
   2 -14  10    0.00    2.02
   2 -14   9   -0.66    1.86
   2 -14   8    0.72    1.98
   2 -14   7   18.66    2.73
   2 -14   6    0.13    1.95
   2 -14   5    1.74    2.02
   2 -14   4    2.00    2.09
   2 -14   3    6.96    2.17
   2 -14   2   -2.27    1.86
   2 -14   1   21.13    2.86
  -2  14   0    4.46    2.07
   2 -14   0    3.45    2.05
  -2  14   1   17.40    2.67
   2 -14  -1   19.55    2.69
  -2  14   2   -0.53    1.82
   2 -14  -2   -0.58    1.97
  -2  14   3    2.44    1.99
   2 -14  -3    4.03    2.41
  -2  14   4    2.26    1.93
   2 -14  -4    4.03    2.45
  -2  14   5    2.44    2.01
   2 -14  -5    4.38    2.35
  -2  14   6    0.45    1.85
   2 -14  -6   -2.34    1.93
  -2  14   7   18.69    2.74
   2 -14  -7   24.60    3.16
  -2  14   8   -0.56    1.86
   2 -14  -8   -0.96    2.01
  -2  14   9    2.61    2.13
   2 -14  -9    0.24    1.63
  -2  14  10    4.08    2.25
   2 -14 -10    2.42    2.06
  -2  14  11    6.91    2.77
   2 -14 -11    3.12    1.80
  -2  14  12   -0.71    2.12
   2 -14 -12   -0.09    1.93
   3 -15  11   -3.28    2.05
   3 -15  10    0.01    2.53
   3 -15   9   -1.27    1.99
   3 -15   8    2.88    2.15
   3 -15   7    2.25    2.06
   3 -15   6    6.75    2.28
   3 -15   5    5.03    2.21
   3 -15   4   15.20    2.73
   3 -15   3    4.38    2.15
   3 -15   2    1.97    2.10
   3 -15   1    6.90    2.26
  -3  15   0    6.24    1.91
   3 -15   0    7.26    2.27
  -3  15   1    3.99    2.14
   3 -15  -1    1.77    2.13
  -3  15   2    2.27    2.06
   3 -15  -2   -0.79    1.97
  -3  15   3    4.83    2.10
   3 -15  -3    2.73    2.44
  -3  15   4   17.46    2.65
   3 -15  -4   17.10    2.68
  -3  15   5   10.02    2.33
   3 -15  -5    3.87    1.97
  -3  15   6    8.71    2.34
   3 -15  -6    9.57    2.22
  -3  15   7    1.66    1.95
   3 -15  -7   -0.11    1.74
  -3  15   8   -1.20    1.82
   3 -15  -8    3.29    1.86
  -3  15   9    0.61    2.11
   3 -15  -9    0.76    1.77
  -3  15  10    2.08    2.64
   3 -15 -10    2.64    1.85
  -3  15  11    0.02    2.12
   3 -15 -11    0.92    1.97
   4 -16  11    4.20    2.56
   4 -16  10   -0.47    2.64
   4 -16   9    4.31    2.39
   4 -16   8   -3.30    2.30
   4 -16   7    0.04    2.10
   4 -16   6   -0.58    1.97
   4 -16   5    6.71    2.32
   4 -16   4    2.29    2.11
   4 -16   3    9.23    2.46
   4 -16   2    6.66    2.35
   4 -16   1    0.46    2.03
  -4  16   0    0.70    2.05
   4 -16   0    6.02    2.66
  -4  16   1    2.92    2.15
   4 -16  -1    1.33    2.16
  -4  16   2    6.28    2.18
   4 -16  -2    9.98    2.44
  -4  16   3   15.17    2.57
   4 -16  -3   10.92    2.52
  -4  16   4    0.62    1.89
   4 -16  -4   -0.76    2.20
  -4  16   5    3.30    2.03
   4 -16  -5    6.23    2.18
  -4  16   6   -0.68    1.84
   4 -16  -6    0.03    2.09
  -4  16   7    3.91    2.10
   4 -16  -7    2.08    2.19
  -4  16   8   -2.23    1.88
   4 -16  -8   -0.56    2.03
  -4  16   9    3.93    2.30
   4 -16  -9    4.82    2.28
  -4  16  10   -0.44    2.09
   4 -16 -10    5.45    2.30
  -4  16  11    5.23    2.49
   4 -16 -11    4.54    2.22
   5 -17  10    1.53    2.42
   5 -17   9    4.89    2.44
   5 -17   8    1.66    2.65
   5 -17   7    0.77    2.22
   5 -17   6    0.72    2.13
   5 -17   5   -1.34    1.93
   5 -17   4    0.58    2.09
   5 -17   3   12.34    2.59
   5 -17   2    1.78    2.11
   5 -17   1    6.82    2.73
  -5  17   0    4.89    2.18
   5 -17   0    3.81    2.22
  -5  17   1    9.20    2.43
   5 -17  -1    6.16    2.32
  -5  17   2   -1.61    1.80
   5 -17  -2    1.58    2.07
  -5  17   3   13.49    2.50
   5 -17  -3   14.07    2.63
  -5  17   4   -1.90    1.82
   5 -17  -4   -3.07    1.73
  -5  17   5   -1.82    1.84
   5 -17  -5   -0.17    1.85
  -5  17   6    1.64    1.95
   5 -17  -6    1.47    1.87
  -5  17   7    1.92    2.07
   5 -17  -7    3.65    2.07
  -5  17   8    0.29    2.10
   5 -17  -8    4.13    2.01
  -5  17   9    1.86    2.32
   5 -17  -9    5.98    2.30
  -5  17  10   -0.31    2.17
   5 -17 -10    2.57    2.16
   6 -18   9   -0.19    2.13
   6 -18   8   -2.63    2.14
   6 -18   7    6.90    2.58
   6 -18   6    4.29    2.46
   6 -18   5    1.90    2.19
   6 -18   4    4.60    2.33
   6 -18   3    3.95    2.30
   6 -18   2   -0.85    2.03
   6 -18   1    9.92    2.49
  -6  18   0   -0.66    1.89
   6 -18   0   -1.31    1.98
  -6  18   1    5.12    2.14
   6 -18  -1    8.06    2.39
  -6  18   2    0.17    1.93
   6 -18  -2   -2.09    1.83
  -6  18   3    2.72    2.10
   6 -18  -3    2.16    2.04
  -6  18   4    6.24    2.24
   6 -18  -4    8.18    2.60
  -6  18   5    4.19    2.18
   6 -18  -5    6.39    2.20
  -6  18   6    1.31    2.09
   6 -18  -6    6.79    2.49
  -6  18   7    7.47    2.46
   6 -18  -7    3.88    2.02
  -6  18   8    2.70    2.27
   6 -18  -8    3.50    2.07
  -6  18   9    3.54    2.42
   6 -18  -9   -0.21    1.99
   7 -19   9    0.77    2.34
   7 -19   8    3.19    2.86
   7 -19   7   -3.10    2.50
   7 -19   6    1.45    2.34
   7 -19   5   -1.26    2.22
   7 -19   4    2.18    2.29
   7 -19   3    6.53    2.54
   7 -19   2    2.58    2.21
   7 -19   1    5.87    2.46
  -7  19   0    1.44    2.16
   7 -19   0   -0.82    2.09
  -7  19   1    6.18    2.36
   7 -19  -1    3.35    2.30
  -7  19   2    3.19    2.13
   7 -19  -2   -0.60    2.00
  -7  19   3    0.71    2.07
   7 -19  -3    0.16    2.06
  -7  19   4    1.68    2.06
   7 -19  -4    2.00    2.03
  -7  19   5    2.23    2.19
   7 -19  -5    3.04    2.41
  -7  19   6    3.02    2.31
   7 -19  -6    0.75    1.96
  -7  19   7    2.73    2.26
   7 -19  -7    1.65    1.98
  -7  19   8   -2.44    2.09
   7 -19  -8   -1.20    1.97
  -7  19   9    0.76    2.28
   8 -20   8    0.32    2.37
   8 -20   7    3.95    2.64
   8 -20   6   -1.17    2.32
   8 -20   5    1.69    2.45
   8 -20   4    1.41    2.35
   8 -20   3    4.15    2.47
   8 -20   2    2.19    2.24
   8 -20   1    2.42    2.36
  -8  20   0    5.40    2.32
   8 -20   0    1.52    2.34
  -8  20   1    2.16    2.16
   8 -20  -1    3.32    2.67
  -8  20   2    0.05    2.09
   8 -20  -2    6.65    2.72
  -8  20   3    3.05    2.25
   8 -20  -3   -0.30    1.98
  -8  20   4    3.28    2.21
   8 -20  -4   -2.46    1.82
  -8  20   5    3.41    2.38
   8 -20  -5    2.07    2.03
  -8  20   6   -0.09    2.18
   8 -20  -6    4.23    2.36
  -8  20   7    2.30    2.29
   8 -20  -7    9.77    2.63
   8 -20  -8    3.41    2.23
   9 -21   6    2.08    2.87
   9 -21   5    3.15    2.59
   9 -21   4   -0.10    2.32
   9 -21   3   -3.24    2.17
   9 -21   2   -0.56    2.25
   9 -21   1   -1.26    2.23
  -9  21   0    3.87    2.35
   9 -21   0    1.99    2.39
  -9  21   1    1.40    2.57
   9 -21  -1   -2.93    2.08
  -9  21   2    1.21    2.20
   9 -21  -2    1.13    2.21
  -9  21   3   -0.61    2.56
   9 -21  -3   -0.11    2.52
  -9  21   4    3.45    2.35
   9 -21  -4    4.01    2.24
  -9  21   5    0.32    2.26
   9 -21  -5    5.02    2.61
  -9  21   6    0.95    2.27
   9 -21  -6    2.37    2.01
  10 -22   4    0.25    2.39
  10 -22   3    0.41    2.92
  10 -22   2   -0.30    2.31
  10 -22   1   -3.16    2.16
 -10  22   0    0.00    2.50
  10 -22   0   -0.36    2.80
 -10  22   1    3.33    2.78
  10 -22  -1    0.68    2.76
 -10  22   2   -1.19    2.09
  10 -22  -2    1.33    2.27
 -10  22   3    4.58    2.48
  10 -22  -3    5.02    2.37
 -10  22   4    4.22    2.42
  10 -22  -4    4.06    2.56
  11 -23   1   -0.82    2.85
 -11  23   0    2.41    2.80
  11 -23   0   -0.44    2.37
 -11  23   1    5.95    2.56
  11 -23  -1   -2.27    2.22
 -23  10   1    4.16    2.48
 -23  10   0    3.05    2.47
 -23  10  -1    3.28    2.82
 -22   9   4    6.26    2.61
 -22   9   3    0.05    2.20
 -22   9   2    3.05    2.36
 -22   9   1    0.28    2.14
 -22   9   0    3.29    2.31
 -22   9  -1   -2.27    2.07
 -22   9  -2    0.77    2.17
 -22   9  -3   -2.10    2.06
 -22   9  -4    7.05    2.69
 -22   9  -4    5.15    2.21
 -21   8   6    3.24    2.86
 -21   8   5   -2.36    1.98
 -21   8   4    2.12    2.34
 -21   8   3    2.69    2.33
 -21   8   2    1.89    2.37
 -21   8   1   -1.87    2.02
 -21   8   0    2.88    2.40
 -21   8  -1    0.49    2.16
 -21   8  -2    1.84    2.57
 -21   8  -3    5.43    2.48
 -21   8  -3    3.65    1.87
 -21   8  -4   -1.21    2.08
 -21   8  -4    0.88    1.58
 -21   8  -5    4.71    2.88
 -21   8  -5    3.24    1.78
 -21   8  -6    0.20    2.59
 -21   8  -6    2.20    2.14
 -20   7   7   -1.59    2.08
 -20   7   6    2.47    2.45
 -20   7   5    2.81    2.74
 -20   7   4    8.73    2.92
 -20   7   3   -0.41    2.06
 -20   7   2    3.09    2.39
 -20   7   1   -1.35    2.00
 -20   7   0    3.06    2.36
 -20   7  -1   -1.30    2.06
 -20   7  -2    2.17    2.18
 -20   7  -2    1.53    1.75
 -20   7  -3    0.95    1.71
 -20   7  -3    1.59    2.20
 -20   7  -4    6.25    2.42
 -20   7  -4    4.38    2.02
 -20   7  -5   -2.22    2.24
 -20   7  -5    1.34    1.66
 -20   7  -6   -0.32    1.60
 -20   7  -6   -1.50    2.02
 -20   7  -7   -2.03    1.88
 -20   7  -7    0.27    2.39
 -19   6   8   -0.39    2.21
 -19   6   7    0.57    2.28
 -19   6   6    7.38    2.58
 -19   6   5    6.05    2.52
 -19   6   4   -0.50    2.09
 -19   6   3    8.11    2.61
 -19   6   2    3.27    2.32
 -19   6   1    2.13    2.19
 -19   6   0    4.30    2.29
 -19   6  -1   -0.44    1.37
 -19   6  -1    1.43    2.14
 -19   6  -2    6.47    2.51
 -19   6  -2    1.03    1.52
 -19   6  -3   12.20    2.20
 -19   6  -3   12.79    2.76
 -19   6  -4    2.41    1.61
 -19   6  -4    0.84    1.99
 -19   6  -5    1.93    2.08
 -19   6  -5    3.97    1.79
 -19   6  -6    4.95    2.20
 -19   6  -6    7.74    2.51
 -19   6  -7   -0.21    1.67
 -19   6  -7   -1.28    1.78
 -19   6  -8    2.69    2.49
 -19   6  -8   -0.88    1.65
 -18   5   9   -2.15    2.26
 -18   5   8    4.11    2.34
 -18   5   7    3.16    2.35
 -18   5   6    1.30    2.64
 -18   5   5   -0.56    2.07
 -18   5   4    8.54    2.57
 -18   5   3    3.28    2.31
 -18   5   2   10.79    2.61
 -18   5   1    0.66    2.00
 -18   5   0   11.24    2.63
 -18   5   0    9.28    1.78
 -18   5  -1   -1.49    1.91
 -18   5  -1   -0.20    1.35
 -18   5  -2    9.12    1.73
 -18   5  -2    5.06    2.69
 -18   5  -3    3.34    1.74
 -18   5  -3    5.12    2.55
 -18   5  -4    7.83    2.41
 -18   5  -4   12.58    2.09
 -18   5  -5   -1.11    1.67
 -18   5  -5    3.34    2.13
 -18   5  -6    2.15    1.93
 -18   5  -6    5.94    2.63
 -18   5  -7    3.75    1.89
 -18   5  -7    4.91    2.19
 -18   5  -8    4.79    2.45
 -18   5  -8    4.33    1.97
 -18   5  -9    2.77    2.11
 -18   5  -9    5.09    2.32
 -17   4  10   12.27    3.04
 -17   4   9    1.14    2.35
 -17   4   8    3.64    2.42
 -17   4   7    5.53    2.43
 -17   4   6    1.53    2.53
 -17   4   5   -1.69    2.01
 -17   4   4    3.15    2.24
 -17   4   3    6.53    2.37
 -17   4   2   16.13    2.87
 -17   4   1    7.94    2.47
 -17   4   1    8.20    1.60
 -17   4   0    2.01    2.09
 -17   4   0    1.67    1.39
 -17   4  -1    5.67    2.25
 -17   4  -1    8.80    1.77
 -17   4  -2   12.82    2.68
 -17   4  -2   18.09    2.20
 -17   4  -3    2.18    1.63
 -17   4  -3    4.60    2.18
 -17   4  -4    3.71    1.58
 -17   4  -4    1.04    2.23
 -17   4  -5   -0.39    2.07
 -17   4  -5    5.37    1.95
 -17   4  -6    0.64    2.14
 -17   4  -6    1.53    1.60
 -17   4  -7    3.72    2.09
 -17   4  -7    4.34    1.87
 -17   4  -8    3.71    1.90
 -17   4  -8    0.33    1.78
 -17   4  -9    0.54    1.79
 -17   4  -9    4.11    2.29
 -17   4 -10   10.50    2.67
 -17   4 -10    8.10    2.36
 -16   3  11   -1.26    2.33
 -16   3  10   -1.43    2.24
 -16   3   9    3.29    2.45
 -16   3   8    4.86    2.34
 -16   3   7   -0.03    2.10
 -16   3   6    0.70    2.12
 -16   3   5   -0.20    1.93
 -16   3   4    0.41    2.03
 -16   3   3    7.67    2.47
 -16   3   2    0.09    2.05
 -16   3   1   -0.02    2.00
 -16   3   1    3.45    1.26
 -16   3   0    6.21    1.53
 -16   3   0    1.32    2.09
 -16   3  -1    0.23    1.42
 -16   3  -1    2.91    2.09
 -16   3  -2    2.26    1.57
 -16   3  -2    1.67    2.01
 -16   3  -3    7.22    1.88
 -16   3  -3    7.90    2.29
 -16   3  -4   -1.39    2.04
 -16   3  -4    0.59    1.34
 -16   3  -5   -0.78    1.55
 -16   3  -5    0.45    1.37
 -16   3  -6    1.37    1.50
 -16   3  -6    1.10    1.76
 -16   3  -7    0.37    1.54
 -16   3  -7    0.48    1.97
 -16   3  -8    5.48    2.01
 -16   3  -8    5.06    2.28
 -16   3  -9    2.83    1.78
 -16   3  -9    2.29    1.73
 -16   3 -10   -0.58    1.81
 -16   3 -10    1.19    1.80
 -16   3 -11    3.64    2.07
 -15   2  11   -2.58    2.24
 -15   2  10    3.91    2.49
 -15   2   9   -0.91    2.13
 -15   2   8    0.99    2.17
 -15   2   7    5.76    2.36
 -15   2   6   17.18    2.82
 -15   2   5    1.69    2.12
 -15   2   4    5.81    2.63
 -15   2   3   -1.75    1.96
 -15   2   2    7.96    1.40
 -15   2   2   12.99    2.85
 -15   2   1   18.93    2.86
 -15   2   1   14.43    1.80
 -15   2   0   -1.16    1.24
 -15   2   0   -2.72    1.88
 -15   2  -1   12.25    2.84
 -15   2  -1   16.24    2.08
 -15   2  -2    9.77    1.97
 -15   2  -2    7.67    2.33
 -15   2  -3    1.21    1.91
 -15   2  -3    1.33    1.38
 -15   2  -4    9.39    1.84
 -15   2  -4    7.11    2.40
 -15   2  -5    2.94    1.77
 -15   2  -5    3.00    1.74
 -15   2  -6    8.97    2.46
 -15   2  -6    9.36    1.93
 -15   2  -7    8.68    2.21
 -15   2  -7   13.17    2.38
 -15   2  -8    3.59    1.78
 -15   2  -8    1.20    1.89
 -15   2  -9    2.89    1.82
 -15   2  -9    1.65    1.69
 -15   2 -10    5.89    2.36
 -15   2 -11    0.92    1.78
 -14   1  12    0.99    2.56
 -14   1  11    1.96    2.41
 -14   1  10    0.90    2.34
 -14   1   9   -0.71    2.55
 -14   1   8    0.87    2.16
 -14   1   7    2.17    2.09
 -14   1   6   33.70    3.57
 -14   1   5    0.17    2.03
 -14   1   4   -2.20    1.83
 -14   1   3   -0.08    1.09
 -14   1   3    1.99    2.05
 -14   1   2   22.96    2.05
 -14   1   2   24.16    3.05
 -14   1   1    3.31    2.07
 -14   1   1   -0.43    1.17
 -14   1   0   52.25    3.04
 -14   1   0   53.77    3.88
 -14   1  -1   -2.29    1.72
 -14   1  -1   -0.13    1.39
 -14   1  -2   22.16    2.86
 -14   1  -2   27.13    2.39
 -14   1  -3    1.09    1.81
 -14   1  -3   -0.31    1.30
 -14   1  -4    1.23    2.01
 -14   1  -4    0.39    1.37
 -14   1  -5    2.43    1.58
 -14   1  -5    1.14    1.61
 -14   1  -6   37.51    3.55
 -14   1  -6   29.14    2.87
 -14   1  -7    0.94    1.49
 -14   1  -7    1.99    1.00
 -14   1  -8    7.00    1.96
 -14   1  -9    1.21    1.78
 -14   1  -9    0.19    1.56
 -14   1 -10    3.36    1.98
 -14   1 -10    8.22    2.19
 -14   1 -11    1.76    1.87
 -14   1 -12    3.64    2.29
 -13   0  12   -1.46    2.32
 -13   0  11    1.92    2.35
 -13   0  10    6.37    2.62
 -13   0   9    2.60    2.25
 -13   0   8    0.13    2.05
 -13   0   7   20.29    3.02
 -13   0   6   34.42    3.50
 -13   0   5   18.41    2.88
 -13   0   4   15.08    1.63
 -13   0   4   11.70    2.50
 -13   0   3    0.77    1.94
 -13   0   3    1.28    1.20
 -13   0   2   31.04    3.27
 -13   0   2   35.92    2.42
 -13   0   1   41.92    2.56
 -13   0   1   38.08    3.44
 -13   0   0    1.58    1.89
 -13   0   0    2.11    1.34
 -13   0  -1   45.49    3.80
 -13   0  -1   43.22    2.89
 -13   0  -2   35.28    2.85
 -13   0  -2   36.63    3.45
 -13   0  -3   -3.05    1.77
 -13   0  -3    0.77    1.37
 -13   0  -4   17.11    2.64
 -13   0  -4   14.08    2.08
 -13   0  -5    7.02    1.55
 -13   0  -5   16.69    2.40
 -13   0  -6   19.23    2.30
 -13   0  -6   28.49    2.76
 -13   0  -7   20.85    2.68
 -13   0  -7   21.47    2.60
 -13   0  -8    0.74    1.58
 -13   0  -8    1.76    1.57
 -13   0  -9    1.90    1.68
 -13   0  -9   -1.41    1.46
 -13   0 -10    5.43    1.97
 -13   0 -11    4.12    1.95
 -13   0 -12    1.29    1.83
 -12  -1  12    2.36    2.64
 -12  -1  11    1.69    2.37
 -12  -1  10    4.19    2.42
 -12  -1   9   -0.46    2.06
 -12  -1   8    2.55    2.28
 -12  -1   7   13.90    2.72
 -12  -1   6    0.60    1.99
 -12  -1   5   11.68    1.56
 -12  -1   5   10.43    2.48
 -12  -1   4   11.66    1.59
 -12  -1   4    7.62    2.23
 -12  -1   3    4.20    1.34
 -12  -1   3    0.63    1.86
 -12  -1   2    5.49    1.36
 -12  -1   2    7.46    2.07
 -12  -1   1   34.98    2.45
 -12  -1   1   33.97    3.37
 -12  -1   0   41.19    2.75
 -12  -1   0   45.85    3.30
 -12  -1  -1   36.01    3.11
 -12  -1  -1   28.11    2.39
 -12  -1  -2    8.20    2.21
 -12  -1  -2    7.16    1.55
 -12  -1  -3    3.47    1.68
 -12  -1  -3   -0.21    1.74
 -12  -1  -4   10.27    1.84
 -12  -1  -4    3.03    1.09
 -12  -1  -5    7.93    1.98
 -12  -1  -5    7.25    1.82
 -12  -1  -6    1.56    1.52
 -12  -1  -6    2.51    1.70
 -12  -1  -7   17.18    2.37
 -12  -1  -7   16.81    2.31
 -12  -1  -8    5.87    1.85
 -12  -1  -8    5.12    1.81
 -12  -1  -9    1.95    1.60
 -12  -1 -10    2.63    1.80
 -12  -1 -11    1.53    1.78
 -12  -1 -12    4.38    2.28
 -11  -2  13    0.35    2.47
 -11  -2  12    4.55    2.66
 -11  -2  11   -2.74    2.06
 -11  -2  10   17.88    3.16
 -11  -2   9    1.40    2.14
 -11  -2   8   13.98    2.76
 -11  -2   7    3.50    2.18
 -11  -2   6   -0.80    1.28
 -11  -2   6   -0.09    1.96
 -11  -2   5    3.04    1.41
 -11  -2   5   -0.03    1.96
 -11  -2   4    1.23    1.91
 -11  -2   4    3.55    1.36
 -11  -2   3    0.74    1.36
 -11  -2   3    2.63    1.84
 -11  -2   2   43.27    2.64
 -11  -2   2   40.09    3.14
 -11  -2   1    4.97    2.15
 -11  -2   1    3.76    1.45
 -11  -2   0   67.40    3.92
 -11  -2   0   80.71    3.71
 -11  -2  -1    3.43    1.38
 -11  -2  -1    2.97    1.92
 -11  -2  -2   26.55    2.47
 -11  -2  -2   40.61    2.83
 -11  -2  -3    4.31    1.72
 -11  -2  -3    2.45    1.43
 -11  -2  -4    0.29    1.37
 -11  -2  -4    2.59    1.68
 -11  -2  -5    0.12    1.43
 -11  -2  -5   -2.26    1.31
 -11  -2  -6   -0.18    1.57
 -11  -2  -6   -0.53    1.48
 -11  -2  -7    2.76    1.63
 -11  -2  -7    1.21    1.37
 -11  -2  -8   11.61    2.18
 -11  -2  -8   13.83    1.93
 -11  -2  -9    1.94    1.67
 -11  -2 -10   15.23    2.50
 -11  -2 -11    1.89    1.74
 -11  -2 -12    0.91    1.72
 -11  -2 -13    1.39    1.90
 -10  -3  13   -1.25    2.38
 -10  -3  12    6.58    2.68
 -10  -3  11    3.01    2.43
 -10  -3  10   10.52    2.75
 -10  -3   9    1.39    2.12
 -10  -3   8    7.00    2.37
 -10  -3   7   12.68    1.84
 -10  -3   7   12.73    2.67
 -10  -3   6   10.32    2.47
 -10  -3   6    9.39    1.86
 -10  -3   5    1.71    1.45
 -10  -3   5    0.72    1.83
 -10  -3   4   16.29    2.49
 -10  -3   4   12.98    1.80
 -10  -3   3   10.63    2.14
 -10  -3   3   12.45    1.78
 -10  -3   2   71.27    3.53
 -10  -3   2   72.42    3.92
 -10  -3   1    2.49    1.23
 -10  -3   1    0.19    1.47
 -10  -3   0    0.50    1.47
 -10  -3   0    3.10    1.48
 -10  -3  -1    2.87    1.31
 -10  -3  -1   -0.25    0.98
 -10  -3  -2   66.82    3.65
 -10  -3  -2   60.37    3.38
 -10  -3  -3   12.64    1.96
 -10  -3  -3   11.49    1.91
 -10  -3  -4   17.53    2.15
 -10  -3  -4   12.29    2.00
 -10  -3  -5    4.28    1.44
 -10  -3  -5    0.82    1.43
 -10  -3  -6    9.47    2.21
 -10  -3  -6    9.66    1.80
  10   3   7   18.57    2.02
 -10  -3  -7   14.90    1.94
 -10  -3  -7   12.35    2.21
 -10  -3  -8    2.77    1.87
 -10  -3  -9    2.95    1.71
 -10  -3 -10   19.12    2.71
 -10  -3 -11    6.90    2.07
 -10  -3 -12    3.87    1.93
 -10  -3 -13    1.24    1.83
  -9  -4  13   -2.77    2.23
  -9  -4  12    1.47    2.34
  -9  -4  11    8.97    2.74
  -9  -4  10   -0.35    2.07
  -9  -4   9   23.50    3.21
  -9  -4   8    0.01    2.04
  -9  -4   8    0.37    1.69
  -9  -4   7    1.93    2.03
  -9  -4   7    0.67    1.55
  -9  -4   6   53.68    3.24
  -9  -4   6   54.23    3.90
  -9  -4   5   30.83    2.57
  -9  -4   5   30.23    3.30
  -9  -4   4   10.99    1.89
  -9  -4   4   11.35    2.20
  -9  -4   3   85.57    3.99
  -9  -4   3   78.24    4.20
  -9  -4   2   38.80    2.58
  -9  -4   2   41.35    3.20
  -9  -4   1   18.44    2.19
  -9  -4   1   19.72    2.15
  -9  -4   0    2.81    1.55
  -9  -4   0    1.34    1.39
  -9  -4  -1   17.75    2.18
  -9  -4  -1   17.74    2.23
  -9  -4  -2   41.09    2.80
  -9  -4  -2   38.79    2.70
  -9  -4  -3   79.70    4.06
  -9  -4  -3   88.87    3.97
  -9  -4  -4    4.60    1.61
  -9  -4  -4   11.78    1.77
  -9  -4  -5   26.36    2.23
  -9  -4  -5   24.24    2.54
   9   4   6   46.48    2.94
  -9  -4  -6   50.05    3.34
  -9  -4  -6   48.72    2.78
   9   4   7   -0.47    1.39
  -9  -4  -7   -1.06    1.51
   9   4   8    0.69    1.42
  -9  -4  -8    1.00    1.59
  -9  -4  -9   17.06    2.49
  -9  -4 -10    0.29    1.58
  -9  -4 -11   11.00    2.30
  -9  -4 -12    0.79    2.08
  -9  -4 -13    1.12    1.79
  -8  -5  13    4.03    2.62
  -8  -5  12   -0.69    2.09
  -8  -5  11    5.20    2.39
  -8  -5  10   13.39    2.84
  -8  -5   9    4.27    2.01
  -8  -5   9    0.92    2.07
  -8  -5   8    4.47    1.78
  -8  -5   8    0.96    2.01
  -8  -5   7   24.26    3.01
  -8  -5   7   15.35    2.27
  -8  -5   6    4.31    1.81
  -8  -5   6    7.06    2.21
  -8  -5   5   22.61    2.75
  -8  -5   5   24.01    2.51
  -8  -5   4   47.32    3.61
  -8  -5   4   49.01    3.21
  -8  -5   3   22.83    2.52
  -8  -5   3   27.27    2.40
  -8  -5   2   25.45    2.62
  -8  -5   2   19.63    2.33
  -8  -5   1   25.45    2.36
  -8  -5   1   31.79    2.67
  -8  -5   0    8.65    1.54
  -8  -5   0    9.84    1.76
  -8  -5  -1   29.13    2.65
  -8  -5  -1   24.72    2.29
  -8  -5  -2   19.19    2.14
  -8  -5  -2   19.16    2.02
  -8  -5  -3   24.40    2.48
  -8  -5  -3   29.87    2.28
  -8  -5  -4   45.69    2.63
  -8  -5  -4   47.43    3.17
   8   5   5   20.20    2.22
  -8  -5  -5   19.17    2.37
  -8  -5  -5   24.32    1.98
   8   5   6    1.27    1.54
  -8  -5  -6    4.59    1.72
  -8  -5  -6    4.92    1.21
   8   5   7   20.88    2.34
  -8  -5  -7   16.49    2.35
   8   5   8   -1.03    1.68
  -8  -5  -8    0.42    1.57
   8   5   9    3.55    1.67
  -8  -5  -9    1.20    1.58
  -8  -5 -10   13.37    2.37
  -8  -5 -11    5.84    1.98
  -8  -5 -12    3.86    2.33
  -8  -5 -13    2.92    2.16
  -7  -6  13    5.18    2.60
  -7  -6  12    2.58    2.46
  -7  -6  11    2.58    2.29
  -7  -6  10    5.28    2.33
  -7  -6  10    0.82    1.98
  -7  -6   9    1.70    2.05
  -7  -6   9    4.78    1.90
  -7  -6   8    8.95    2.36
  -7  -6   8    8.38    2.05
  -7  -6   7    3.51    2.14
  -7  -6   7   10.34    2.14
  -7  -6   6   -2.91    1.71
  -7  -6   6    2.17    1.92
  -7  -6   5    1.76    1.83
  -7  -6   5   -0.25    1.67
  -7  -6   4   53.76    3.41
  -7  -6   4   46.99    3.29
  -7  -6   3   29.07    2.61
  -7  -6   3   26.16    2.58
  -7  -6   2    3.29    1.76
  -7  -6   2    0.07    1.34
  -7  -6   1    6.70    1.68
  -7  -6   0    7.71    1.60
  -7  -6   0    5.15    1.58
  -7  -6  -1    7.68    1.72
  -7  -6  -1    8.40    1.57
  -7  -6  -2    1.17    1.42
  -7  -6  -2    1.46    1.29
  -7  -6  -3   23.81    2.48
  -7  -6  -3   28.45    2.06
   7   6   4   52.80    3.04
  -7  -6  -4   46.67    3.19
  -7  -6  -4   50.96    2.57
   7   6   5    4.56    1.75
  -7  -6  -5   -0.40    1.52
  -7  -6  -5    3.64    1.04
   7   6   6   -1.23    1.53
  -7  -6  -6   -0.19    1.51
   7   6   7   10.02    1.83
  -7  -6  -7    7.58    1.97
   7   6   8    8.12    1.95
  -7  -6  -8    6.37    1.95
   7   6   9    1.46    1.72
  -7  -6  -9    5.33    1.88
   7   6  10    0.83    1.78
  -7  -6 -10    2.09    1.68
  -7  -6 -11    0.88    1.71
  -7  -6 -12    0.67    1.73
  -7  -6 -13    3.51    2.01
  -6  -7  13    4.83    2.58
  -6  -7  12    2.88    2.33
  -6  -7  11    0.84    2.02
  -6  -7  11   -2.98    2.38
  -6  -7  10    3.18    2.23
  -6  -7  10    4.30    2.08
  -6  -7   9    3.96    1.94
  -6  -7   9    4.36    2.17
  -6  -7   8    6.66    2.14
  -6  -7   8    6.60    2.26
  -6  -7   7    8.88    2.21
  -6  -7   7    6.71    2.20
  -6  -7   6    0.14    1.61
  -6  -7   6   -0.27    2.09
  -6  -7   5    3.11    1.72
  -6  -7   5    4.25    2.11
  -6  -7   4   51.95    3.32
  -6  -7   4   49.90    3.49
  -6  -7   3   30.17    2.77
  -6  -7   3   26.86    2.74
  -6  -7   2    0.91    1.58
  -6  -7   2   -0.63    1.23
  -6  -7   1    8.88    1.84
  -6  -7   1    5.61    1.63
  -6  -7   0    3.38    1.70
  -6  -7   0    4.35    1.46
  -6  -7  -1    8.82    1.87
  -6  -7  -1    9.25    1.58
  -6  -7  -2    2.96    1.54
  -6  -7  -2    0.15    1.22
  -6  -7  -3   27.18    2.61
  -6  -7  -3   26.23    1.89
   6   7   4   50.00    3.15
  -6  -7  -4   51.09    3.37
  -6  -7  -4   53.59    2.43
   6   7   5    0.46    1.42
  -6  -7  -5   -1.05    1.43
   6   7   6    0.93    1.51
  -6  -7  -6   -1.05    1.51
   6   7   7    8.51    2.09
  -6  -7  -7    9.11    2.06
   6   7   8    5.83    2.03
  -6  -7  -8    7.47    2.03
   6   7   9    4.69    1.77
  -6  -7  -9    3.12    1.79
   6   7  10    0.15    1.83
  -6  -7 -10    3.37    1.80
   6   7  11    2.60    2.06
  -6  -7 -11   -0.45    1.60
   6   7  12   -2.39    2.07
  -6  -7 -12    5.90    2.35
  -6  -7 -13    1.73    1.87
  -5  -8  13    0.82    2.41
  -5  -8  12    3.75    2.40
  -5  -8  11    8.95    2.43
  -5  -8  11    2.75    2.34
  -5  -8  10   15.13    2.88
  -5  -8  10   16.97    2.47
  -5  -8   9    1.33    2.05
  -5  -8   9    1.40    2.01
  -5  -8   8   -2.15    1.72
  -5  -8   8    3.05    1.74
  -5  -8   7   15.11    2.58
  -5  -8   7   15.51    2.34
  -5  -8   6    4.35    1.99
  -5  -8   6    2.01    1.79
  -5  -8   5   25.02    2.90
  -5  -8   5   24.57    2.69
  -5  -8   4   50.63    3.32
  -5  -8   4   43.94    3.09
  -5  -8   3   27.66    2.47
  -5  -8   3   25.71    2.80
  -5  -8   2   19.62    2.39
  -5  -8   1   25.29    2.27
  -5  -8   1   25.41    2.64
  -5  -8   0   13.90    2.14
  -5  -8   0   14.25    1.71
  -5  -8  -1   24.13    1.95
  -5  -8  -1   23.37    2.52
  -5  -8  -2   18.80    1.70
  -5  -8  -2   11.99    2.11
   5   8   3   28.83    2.60
  -5  -8  -3   24.67    1.74
  -5  -8  -3   24.32    2.60
   5   8   4   55.79    3.52
  -5  -8  -4   42.53    3.22
   5   8   5   22.76    2.47
  -5  -8  -5   21.81    2.61
   5   8   6    7.60    2.21
  -5  -8  -6    3.70    1.76
   5   8   7   18.97    2.56
  -5  -8  -7   15.80    2.46
   5   8   8    1.85    1.92
  -5  -8  -8    2.90    1.67
   5   8   9    2.60    2.03
  -5  -8  -9    2.21    1.71
   5   8  10   13.60    2.55
  -5  -8 -10   14.25    2.44
   5   8  11    2.17    1.89
  -5  -8 -11    6.43    2.05
   5   8  12    1.28    2.18
  -5  -8 -12    1.81    1.85
  -5  -8 -13    1.18    2.19
  -4  -9  13   -2.22    2.09
  -4  -9  12    1.26    2.10
  -4  -9  12    1.14    2.34
  -4  -9  11   14.31    2.76
  -4  -9  11   10.90    2.70
  -4  -9  10    1.96    2.10
  -4  -9  10    1.89    1.90
  -4  -9   9   23.43    3.29
  -4  -9   9   19.84    2.87
  -4  -9   8    2.39    2.10
  -4  -9   8    0.62    1.86
  -4  -9   7   -2.51    1.72
  -4  -9   7   -2.20    1.62
  -4  -9   6   53.32    3.61
  -4  -9   6   51.62    3.88
  -4  -9   5   23.57    2.65
  -4  -9   5   28.05    2.77
  -4  -9   4    7.43    1.80
  -4  -9   4    7.56    2.00
  -4  -9   3   84.24    4.51
  -4  -9   3   75.15    3.81
  -4  -9   2   38.40    3.16
  -4  -9   1   17.52    2.36
  -4  -9   1   18.73    2.01
  -4  -9   0    0.11    1.63
  -4  -9   0    3.04    1.34
  -4  -9  -1   19.59    2.46
  -4  -9  -1   18.98    1.72
  -4  -9  -2   35.56    2.07
  -4  -9  -2   41.44    3.40
   4   9   3   79.95    4.22
  -4  -9  -3   84.69    3.10
  -4  -9  -3   82.38    4.33
   4   9   4   11.58    2.01
  -4  -9  -4    6.35    1.91
   4   9   5   26.59    2.71
  -4  -9  -5   24.86    2.75
   4   9   6   45.10    3.31
  -4  -9  -6   52.10    3.81
   4   9   7    0.65    1.68
  -4  -9  -7    1.87    1.79
   4   9   8    0.37    1.65
  -4  -9  -8   -0.06    1.60
   4   9   9   20.38    2.60
  -4  -9  -9   21.97    2.82
   4   9  10   -0.10    1.75
  -4  -9 -10    0.00    1.64
   4   9  11   12.66    2.42
  -4  -9 -11    9.57    2.34
   4   9  12    2.44    2.31
  -4  -9 -12    1.16    1.85
   4   9  13   -2.36    2.24
  -4  -9 -13   -1.84    1.60
  -3 -10  13    0.39    2.43
  -3 -10  13   -0.86    2.15
  -3 -10  12    3.61    2.37
  -3 -10  12    1.65    2.46
  -3 -10  11    3.42    2.22
  -3 -10  11    3.68    2.40
  -3 -10  10   14.89    2.84
  -3 -10  10   11.73    2.70
  -3 -10   9   -0.58    2.22
  -3 -10   9    1.56    1.89
  -3 -10   8    5.08    2.09
  -3 -10   8    3.72    2.30
  -3 -10   7   17.04    2.53
  -3 -10   7   15.16    2.49
  -3 -10   6   10.08    2.48
  -3 -10   6   10.14    2.27
  -3 -10   5    1.11    1.64
  -3 -10   5    3.09    1.91
  -3 -10   4   15.33    2.43
  -3 -10   4   11.43    2.00
  -3 -10   3   10.28    2.21
  -3 -10   3   10.51    1.95
  -3 -10   2   73.71    3.65
  -3 -10   2   70.77    4.10
  -3 -10   1    1.02    1.24
  -3 -10   1   -0.22    1.99
  -3 -10   0    2.76    1.27
  -3 -10   0   -0.69    1.63
  -3 -10  -1   -0.57    1.67
  -3 -10  -1    1.34    1.07
   3  10   2   72.54    4.02
  -3 -10  -2   72.40    4.13
  -3 -10  -2   69.49    2.93
   3  10   3   13.69    2.25
  -3 -10  -3   12.33    2.23
   3  10   4   17.20    2.43
  -3 -10  -4   11.30    2.24
   3  10   5   -0.01    1.71
  -3 -10  -5    1.98    1.81
   3  10   6   11.06    2.19
  -3 -10  -6    9.11    2.15
   3  10   7   13.72    2.31
  -3 -10  -7   13.32    2.31
   3  10   8    0.12    2.03
  -3 -10  -8    5.43    1.96
   3  10   9    0.36    1.75
  -3 -10  -9    2.01    1.77
   3  10  10   12.81    2.52
  -3 -10 -10   13.89    2.47
   3  10  11    3.28    2.07
  -3 -10 -11    2.87    1.87
   3  10  12    6.64    2.26
  -3 -10 -12    3.57    2.25
   3  10  13   -1.18    1.93
  -3 -10 -13    4.02    2.08
  -2 -11  13    2.15    2.27
  -2 -11  13    0.30    2.17
  -2 -11  12    0.40    2.09
  -2 -11  12    3.44    2.26
  -2 -11  11   -0.52    2.02
  -2 -11  10   13.06    2.63
  -2 -11   9    2.51    1.95
  -2 -11   8   13.82    2.82
  -2 -11   7    2.59    1.98
  -2 -11   6    0.45    1.92
  -2 -11   5   -0.36    1.79
  -2 -11   4    3.02    1.92
  -2 -11   3    3.64    1.99
  -2 -11   2   39.97    2.74
  -2 -11   2   45.36    3.44
  -2 -11   1    2.35    1.92
  -2 -11   1    3.01    1.34
  -2 -11   0   77.76    4.28
  -2 -11   0   72.47    3.32
  -2 -11  -1    3.47    1.14
  -2 -11  -1    0.85    1.81
   2  11   2   45.50    3.33
  -2 -11  -2   42.85    3.49
  -2 -11  -2   38.41    2.09
   2  11   3    5.88    1.96
  -2 -11  -3    4.13    1.90
   2  11   4    4.14    1.87
  -2 -11  -4    2.23    1.84
   2  11   5    0.91    1.75
  -2 -11  -5    2.01    1.77
   2  11   6    1.03    1.88
  -2 -11  -6    0.06    2.02
   2  11   7    5.11    2.00
  -2 -11  -7    3.50    2.18
   2  11   8   11.07    2.34
  -2 -11  -8   11.12    2.36
   2  11   9    2.31    2.26
  -2 -11  -9   -1.20    1.54
   2  11  10   15.92    2.65
  -2 -11 -10   16.96    2.71
   2  11  11    0.68    1.97
  -2 -11 -11    1.12    2.15
   2  11  12    6.08    2.29
  -2 -11 -12    4.54    2.31
   2  11  13   -0.72    2.38
  -2 -11 -13    1.12    1.88
  -1 -12  12    1.28    2.59
  -1 -12  11   -2.08    1.95
  -1 -12  10   -0.07    2.00
  -1 -12   9   -0.81    1.94
  -1 -12   8    6.52    2.23
  -1 -12   7   14.21    2.61
  -1 -12   6    2.77    2.08
  -1 -12   5    9.04    2.36
  -1 -12   4    3.37    2.09
  -1 -12   3    2.17    1.99
  -1 -12   2    6.74    2.10
  -1 -12   1   29.38    3.02
  -1 -12   0   55.91    2.70
  -1 -12   0   36.01    3.36
   1  12   1   24.94    2.65
  -1 -12  -1   32.32    3.10
  -1 -12  -1   28.26    1.90
   1  12   2    4.04    1.92
  -1 -12  -2    5.31    2.08
   1  12   3    0.78    1.80
  -1 -12  -3    0.44    1.88
   1  12   4    6.55    2.14
  -1 -12  -4    6.22    2.16
   1  12   5   10.72    2.28
  -1 -12  -5    8.74    2.21
   1  12   6    2.40    1.92
  -1 -12  -6   -2.53    1.70
   1  12   7   15.14    2.50
  -1 -12  -7    9.63    2.28
   1  12   8    7.46    2.14
  -1 -12  -8    2.83    1.80
   1  12   9    1.52    2.35
  -1 -12  -9    0.62    1.74
   1  12  10    1.58    2.01
  -1 -12 -10    1.13    2.08
   1  12  11   -0.40    2.37
  -1 -12 -11    2.81    1.86
   1  12  12    3.75    2.60
  -1 -12 -12    1.42    1.86
   0 -13  12    0.93    2.18
   0 -13  11    5.63    2.82
   0 -13  10    7.42    2.72
   0 -13   9   -0.13    1.97
   0 -13   8    0.19    1.96
   0 -13   7   17.21    2.80
   0 -13   6   32.36    3.29
   0 -13   5   17.72    2.73
   0 -13   4   12.03    2.74
   0 -13   3    1.76    2.01
   0 -13   2   29.42    3.13
   0 -13   1   37.22    3.39
   0 -13   0    0.70    1.93
   0  13   1   36.30    3.28
   0 -13  -1   45.30    3.81
   0 -13  -1   39.23    2.22
   0  13   2   36.80    3.37
   0 -13  -2   41.86    3.77
   0  13   3    0.94    1.89
   0 -13  -3    1.57    1.87
   0  13   4   15.36    2.56
   0 -13  -4   12.28    2.41
   0  13   5   14.28    2.47
   0 -13  -5   18.29    2.97
   0  13   6   33.80    3.47
   0 -13  -6   30.75    3.21
   0  13   7   20.29    2.77
   0 -13  -7   19.32    2.73
   0  13   8   -1.33    1.72
   0 -13  -8    0.03    1.92
   0  13   9    1.03    2.02
   0 -13  -9    1.67    2.06
   0  13  10    7.28    2.36
   0 -13 -10    7.77    2.17
   0  13  11    3.21    2.28
   0 -13 -11    1.93    1.86
   0  13  12    0.56    2.15
   0 -13 -12    1.82    2.10
   1 -14  12    0.51    2.23
   1 -14  11   -2.59    2.49
   1 -14  10    3.59    2.69
   1 -14   9   -0.08    2.09
   1 -14   8    5.80    2.38
   1 -14   7    0.12    2.36
   1 -14   6   31.71    3.35
   1 -14   5    1.75    2.08
   1 -14   4   -0.93    1.86
   1 -14   3   -2.08    2.35
   1 -14   2   21.31    2.95
   1 -14   1   -0.68    1.95
   1 -14   0   49.24    3.80
  -1  14   1   -0.74    1.79
   1 -14  -1    2.08    2.15
  -1  14   2   20.44    2.83
   1 -14  -2   20.68    2.86
  -1  14   3   -0.20    1.86
   1 -14  -3    0.41    1.99
  -1  14   4    0.02    1.82
   1 -14  -4    0.55    1.94
  -1  14   5    0.08    1.84
   1 -14  -5    0.61    1.77
  -1  14   6   29.67    3.19
   1 -14  -6   35.72    3.46
  -1  14   7   -0.67    1.81
   1 -14  -7    4.33    2.25
  -1  14   8    6.07    2.52
   1 -14  -8    3.39    2.01
  -1  14   9   -4.25    1.79
   1 -14  -9    0.32    1.75
  -1  14  10    4.71    2.27
   1 -14 -10    6.17    2.14
  -1  14  11    3.76    2.30
   1 -14 -11   -1.87    1.51
  -1  14  12    1.84    2.24
   1 -14 -12    5.30    2.39
   2 -15  11    0.49    2.20
   2 -15  10    3.87    2.48
   2 -15   9    3.42    2.35
   2 -15   8    2.05    2.24
   2 -15   7    8.81    2.77
   2 -15   6    9.99    2.77
   2 -15   5    0.67    1.99
   2 -15   4    3.70    2.15
   2 -15   3    1.91    2.14
   2 -15   2    9.52    2.46
   2 -15   1   13.84    2.67
  -2  15   0   -2.41    1.94
   2 -15   0    1.10    2.12
  -2  15   1   14.88    2.72
   2 -15  -1   17.38    2.86
  -2  15   2   12.73    2.54
   2 -15  -2   10.49    2.52
  -2  15   3   -0.18    1.88
   2 -15  -3    0.83    2.01
  -2  15   4    9.23    2.24
   2 -15  -4    8.00    2.34
  -2  15   5    4.15    2.04
   2 -15  -5    0.88    1.89
  -2  15   6   14.38    2.60
   2 -15  -6   14.46    2.55
  -2  15   7    9.97    2.46
   2 -15  -7   14.51    2.60
  -2  15   8   -1.92    1.93
   2 -15  -8    1.71    1.87
  -2  15   9   -3.41    1.90
   2 -15  -9    3.17    1.98
  -2  15  10    3.66    2.35
   2 -15 -10    2.86    2.18
  -2  15  11   -1.06    2.50
   2 -15 -11    0.40    2.06
   3 -16  11   -2.36    2.59
   3 -16  10   -1.51    2.17
   3 -16   9    4.44    2.68
   3 -16   8    5.07    2.41
   3 -16   7    1.39    2.17
   3 -16   6   -2.06    2.03
   3 -16   5   -4.32    1.82
   3 -16   4   -0.86    1.91
   3 -16   3    8.96    2.44
   3 -16   2    1.15    2.07
   3 -16   1    1.47    2.17
  -3  16   0    5.68    2.26
   3 -16   0    4.71    2.25
  -3  16   1    0.60    1.94
   3 -16  -1    0.35    2.07
  -3  16   2    2.67    1.99
   3 -16  -2    1.65    2.15
  -3  16   3    7.85    2.25
   3 -16  -3    7.50    2.32
  -3  16   4    0.48    1.78
   3 -16  -4   -0.54    1.83
  -3  16   5   -1.59    1.32
   3 -16  -5    1.20    2.21
  -3  16   6    0.02    1.89
   3 -16  -6    2.09    1.90
  -3  16   7    0.44    2.04
   3 -16  -7    3.02    2.25
  -3  16   8    1.83    2.20
   3 -16  -8    5.34    2.12
  -3  16   9    4.36    2.34
   3 -16  -9    1.62    2.20
  -3  16  10    3.88    2.30
   3 -16 -10    1.09    2.25
  -3  16  11   -0.26    2.17
   3 -16 -11    3.93    2.08
   4 -17  10    5.68    2.68
   4 -17   9    1.40    2.73
   4 -17   8   -0.38    2.19
   4 -17   7    4.64    2.45
   4 -17   6    0.87    2.21
   4 -17   5   -1.00    2.48
   4 -17   4    1.96    2.10
   4 -17   3    3.31    2.20
   4 -17   2    9.59    2.46
   4 -17   1    5.79    2.43
  -4  17   0    1.64    2.04
   4 -17   0    2.18    2.19
  -4  17   1    6.97    2.35
   4 -17  -1   11.66    2.55
  -4  17   2   18.88    2.78
   4 -17  -2   14.72    2.75
  -4  17   3    2.07    1.52
   4 -17  -3    5.21    2.22
  -4  17   4   -1.54    1.78
   4 -17  -4    2.65    2.06
  -4  17   5    2.08    2.07
   4 -17  -5    1.80    2.03
  -4  17   6   -0.35    1.90
   4 -17  -6    0.03    2.11
  -4  17   7    6.18    2.40
   4 -17  -7    4.55    2.17
  -4  17   8    1.70    2.22
   4 -17  -8    2.94    2.39
  -4  17   9   -0.95    2.11
   4 -17  -9    2.88    1.95
  -4  17  10    8.16    2.76
   4 -17 -10   16.19    2.99
   5 -18   9   -1.56    2.65
   5 -18   8    6.93    2.62
   5 -18   7    4.32    2.46
   5 -18   6    2.57    2.30
   5 -18   5    1.27    2.26
   5 -18   4   11.56    2.71
   5 -18   3    2.97    2.16
   5 -18   2    6.88    2.46
   5 -18   1    0.90    2.16
  -5  18   0   11.14    2.51
   5 -18   0    9.97    2.49
  -5  18   1    2.57    2.07
   5 -18  -1   -1.37    2.01
  -5  18   2    5.97    2.30
   5 -18  -2    6.51    2.69
  -5  18   3    2.71    2.12
   5 -18  -3    5.20    2.30
  -5  18   4    8.80    2.36
   5 -18  -4   10.01    2.43
  -5  18   5   -1.98    1.98
   5 -18  -5    0.01    1.94
  -5  18   6    0.56    2.11
   5 -18  -6    3.86    2.09
  -5  18   7    3.87    2.27
   5 -18  -7    7.04    2.64
  -5  18   8    2.73    2.34
   5 -18  -8    6.86    2.54
  -5  18   9   -2.07    2.09
   5 -18  -9    3.05    2.08
   6 -19   8    4.10    2.89
   6 -19   7    0.32    2.54
   6 -19   6    5.71    2.56
   6 -19   5    4.87    2.42
   6 -19   4   -1.78    2.12
   6 -19   3   11.45    2.74
   6 -19   2    2.64    2.25
   6 -19   1    0.08    2.16
  -6  19   0    6.24    2.28
   6 -19   0    1.12    2.15
  -6  19   1    1.00    2.00
   6 -19  -1    3.55    2.29
  -6  19   2    4.04    2.21
   6 -19  -2    2.66    2.24
  -6  19   3   14.47    2.74
   6 -19  -3   14.32    3.07
  -6  19   4   -1.66    1.88
   6 -19  -4   -0.85    1.91
  -6  19   5    6.21    2.39
   6 -19  -5    1.28    2.10
  -6  19   6    3.41    2.24
   6 -19  -6    7.23    2.58
  -6  19   7    2.65    2.29
   6 -19  -7    1.79    1.95
  -6  19   8    0.72    2.12
   6 -19  -8    2.82    2.39
   7 -20   7   -0.71    2.32
   7 -20   6    1.68    2.53
   7 -20   5    2.50    2.47
   7 -20   4    3.19    2.49
   7 -20   3    1.92    2.26
   7 -20   2    0.72    2.61
   7 -20   1   -3.68    2.45
  -7  20   0    5.62    2.33
   7 -20   0    6.25    2.53
  -7  20   1   -0.30    2.07
   7 -20  -1   -4.53    2.44
  -7  20   2    2.25    2.19
   7 -20  -2   -0.80    2.10
  -7  20   3    4.16    2.32
   7 -20  -3    1.26    2.46
  -7  20   4    3.83    2.34
   7 -20  -4    5.09    2.36
  -7  20   5   -0.71    2.04
   7 -20  -5    1.63    2.10
  -7  20   6    1.57    2.33
   7 -20  -6    1.10    1.98
  -7  20   7    0.79    2.21
   7 -20  -7   -2.71    2.15
   8 -21   6    0.29    2.46
   8 -21   5    1.75    2.54
   8 -21   4   -2.50    2.22
   8 -21   3    3.42    2.46
   8 -21   2   -1.81    2.70
   8 -21   1   -0.22    2.74
  -8  21   0    2.10    2.25
   8 -21   0    2.59    2.42
  -8  21   1    1.61    2.21
   8 -21  -1    1.06    2.33
  -8  21   2   -1.34    2.11
   8 -21  -2   -0.65    2.61
  -8  21   3    2.64    2.25
   8 -21  -3    6.29    2.81
  -8  21   4    3.75    2.41
   8 -21  -4    1.65    2.20
  -8  21   5    3.51    2.35
   8 -21  -5    0.80    2.11
  -8  21   6    2.87    2.40
   8 -21  -6    0.45    1.91
   9 -22   4    6.46    2.78
   9 -22   3    2.28    2.52
   9 -22   2    3.51    2.61
   9 -22   1   -1.05    2.25
  -9  22   0   -1.39    2.60
   9 -22   0    3.04    2.43
  -9  22   1    2.81    2.71
   9 -22  -1    1.60    2.43
  -9  22   2    0.82    2.24
   9 -22  -2    1.19    2.81
  -9  22   3    1.56    2.34
   9 -22  -3    0.14    2.16
  -9  22   4    4.75    2.46
   9 -22  -4    8.20    2.90
  10 -23   1    0.08    2.52
 -10  23   0   -2.65    2.13
  10 -23   0   -1.55    2.81
  10 -23  -1    0.72    2.40
 -22   8   4    5.28    2.49
 -22   8   3    0.32    2.15
 -22   8   2    1.64    2.75
 -22   8   1    2.17    2.78
 -22   8   0    2.25    2.31
 -22   8  -1    5.62    2.56
 -22   8  -2    3.05    2.32
 -22   8  -3   -1.00    2.61
 -22   8  -4    7.03    2.32
 -22   8  -4    4.58    2.45
 -21   7   6    3.42    2.47
 -21   7   5    3.96    2.43
 -21   7   4    2.64    2.41
 -21   7   3    6.30    2.61
 -21   7   2   -1.62    2.07
 -21   7   1   -0.69    2.08
 -21   7   0    1.91    2.27
 -21   7  -1    2.34    2.36
 -21   7  -2   -0.60    2.23
 -21   7  -3    5.59    1.94
 -21   7  -3    2.93    2.35
 -21   7  -4   -1.45    2.32
 -21   7  -4    0.76    1.60
 -21   7  -5    1.30    2.65
 -21   7  -5   -0.10    1.91
 -21   7  -6    1.26    2.27
 -21   7  -6   -1.43    1.90
 -20   6   7   -0.11    2.21
 -20   6   6    2.47    2.36
 -20   6   5    1.64    2.36
 -20   6   4    8.45    2.67
 -20   6   3    5.80    2.50
 -20   6   2    3.44    2.34
 -20   6   1   -0.85    2.16
 -20   6   0    0.20    2.14
 -20   6  -1   -1.45    2.02
 -20   6  -2    4.41    1.77
 -20   6  -2    3.65    2.38
 -20   6  -3    6.69    2.53
 -20   6  -3    1.12    1.50
 -20   6  -4    6.18    2.35
 -20   6  -4    6.32    2.11
 -20   6  -5    3.01    1.98
 -20   6  -5    1.32    2.44
 -20   6  -6    2.59    2.23
 -20   6  -6   -0.35    1.63
 -20   6  -7    1.41    2.02
 -20   6  -7   -0.10    2.05
 -19   5   8    3.83    2.49
 -19   5   7    2.90    2.42
 -19   5   6   -1.73    2.13
 -19   5   5    4.70    2.46
 -19   5   4   12.11    3.21
 -19   5   3    3.57    2.35
 -19   5   2    0.38    2.51
 -19   5   1    6.24    2.53
 -19   5   0    0.93    2.48
 -19   5  -1    8.10    1.83
 -19   5  -1    8.09    2.57
 -19   5  -2    1.10    1.57
 -19   5  -2    0.68    2.47
 -19   5  -3    5.97    2.39
 -19   5  -3    2.23    1.84
 -19   5  -4   10.69    2.29
 -19   5  -4   14.57    2.87
 -19   5  -5    6.44    2.41
 -19   5  -5    7.78    2.23
 -19   5  -6    1.56    1.73
 -19   5  -6    0.90    1.95
 -19   5  -7    4.24    1.98
 -19   5  -7    2.60    2.16
 -19   5  -8    4.97    2.33
 -19   5  -8    2.49    2.49
 -18   4   9    2.85    2.60
 -18   4   8    0.55    2.29
 -18   4   7    4.04    2.39
 -18   4   6    6.22    2.45
 -18   4   5    4.82    2.46
 -18   4   4   -1.54    1.95
 -18   4   3   19.73    3.16
 -18   4   2   -1.71    2.06
 -18   4   1    1.34    2.45
 -18   4   0   11.68    1.84
 -18   4   0   13.60    2.74
 -18   4  -1    3.35    1.55
 -18   4  -1    2.20    2.48
 -18   4  -2    2.35    2.14
 -18   4  -2    2.20    1.51
 -18   4  -3   20.44    2.50
 -18   4  -3   16.56    2.90
 -18   4  -4   -1.49    2.28
 -18   4  -4    1.09    1.44
 -18   4  -5    3.62    1.75
 -18   4  -5    8.17    2.37
 -18   4  -6    8.98    2.33
 -18   4  -6    6.30    2.39
 -18   4  -7    1.84    1.77
 -18   4  -7    3.02    2.39
 -18   4  -8    0.05    1.98
 -18   4  -8    2.58    2.39
 -18   4  -9    5.78    2.15
 -18   4  -9    7.75    2.64
 -17   3  10    5.43    2.70
 -17   3   9    3.57    2.55
 -17   3   8    4.17    2.40
 -17   3   7    6.99    2.63
 -17   3   6    4.67    2.37
 -17   3   5    4.17    2.31
 -17   3   4    0.91    2.12
 -17   3   3    3.51    2.19
 -17   3   2   11.65    2.66
 -17   3   1    3.05    1.37
 -17   3   1    5.64    2.20
 -17   3   0   -0.53    1.29
 -17   3   0   -1.57    1.86
 -17   3  -1    2.99    1.50
 -17   3  -1    3.34    2.39
 -17   3  -2   12.85    2.09
 -17   3  -2   11.00    2.53
 -17   3  -3    6.59    1.65
 -17   3  -3    4.47    2.17
 -17   3  -4    0.94    1.38
 -17   3  -4    1.12    2.25
 -17   3  -5    1.88    2.17
 -17   3  -5    3.61    1.67
 -17   3  -6    3.60    2.04
 -17   3  -6    2.67    1.93
 -17   3  -7   14.07    2.89
 -17   3  -7   10.62    2.47
 -17   3  -8    0.09    2.00
 -17   3  -8    3.27    2.23
 -17   3  -9    1.86    1.79
 -17   3  -9    0.09    1.73
 -17   3 -10    2.08    2.14
 -17   3 -10    5.86    2.20
 -16   2  10   -0.43    2.37
 -16   2   9   -2.54    2.12
 -16   2   8    8.25    2.71
 -16   2   7    0.56    2.18
 -16   2   6    4.80    2.36
 -16   2   5    2.34    2.18
 -16   2   4    1.07    2.07
 -16   2   3    0.25    2.00
 -16   2   2    0.79    1.12
 -16   2   2    0.10    1.98
 -16   2   1    0.54    1.24
 -16   2   1    2.52    2.54
 -16   2   0   14.68    1.95
 -16   2   0   16.50    2.73
 -16   2  -1    2.44    1.55
 -16   2  -1    1.80    2.04
 -16   2  -2    1.22    1.58
 -16   2  -2    1.46    1.97
 -16   2  -3   -0.41    2.14
 -16   2  -3    1.74    1.63
 -16   2  -4    3.11    1.91
 -16   2  -4    0.43    1.63
 -16   2  -5   -3.00    1.53
 -16   2  -5    2.08    2.03
 -16   2  -6    5.34    1.82
 -16   2  -6    4.12    2.25
 -16   2  -7    4.16    2.23
 -16   2  -7    3.85    1.81
 -16   2  -8    5.58    2.27
 -16   2  -8    9.07    2.33
 -16   2  -9    2.57    1.85
 -16   2  -9    2.33    1.67
 -16   2 -10   -0.93    1.65
 -15   1  11    0.92    2.49
 -15   1  10    4.37    2.56
 -15   1   9    7.63    2.68
 -15   1   8    6.42    2.48
 -15   1   7   10.94    2.75
 -15   1   6   -0.40    2.00
 -15   1   5    3.78    2.48
 -15   1   4    5.47    2.26
 -15   1   3   -0.04    1.96
 -15   1   2    0.26    1.22
 -15   1   2    1.61    2.11
 -15   1   1   36.19    3.68
 -15   1   1   38.36    2.74
 -15   1   0   32.89    3.42
 -15   1   0   33.37    2.68
 -15   1  -1   31.13    2.69
 -15   1  -1   29.61    3.30
 -15   1  -2   -1.21    2.13
 -15   1  -2    0.74    1.28
 -15   1  -3    3.69    1.50
 -15   1  -3    3.79    2.27
 -15   1  -4    6.23    1.91
 -15   1  -4    3.28    1.82
 -15   1  -5    3.34    1.63
 -15   1  -5    0.90    1.64
 -15   1  -6    3.21    1.68
 -15   1  -6    1.42    1.69
 -15   1  -7    7.88    2.03
 -15   1  -7    9.43    1.83
 -15   1  -8    6.38    1.92
 -15   1  -8    1.64    1.19
 -15   1  -9    4.96    2.02
 -15   1  -9    3.76    2.13
 -15   1 -10    0.49    1.99
 -15   1 -11   -1.14    2.04
 -14   0  11   -1.55    2.28
 -14   0  10    3.88    2.59
 -14   0   9    7.80    2.65
 -14   0   8    2.97    2.29
 -14   0   7   14.49    2.72
 -14   0   6    6.03    2.34
 -14   0   5   11.69    2.58
 -14   0   4    0.04    1.94
 -14   0   3   -0.84    1.05
 -14   0   3    0.60    2.00
 -14   0   2    6.31    1.50
 -14   0   2    9.61    2.43
 -14   0   1   50.64    2.97
 -14   0   1   52.73    4.29
 -14   0   0   20.76    2.20
 -14   0   0   18.42    2.81
 -14   0  -1   56.03    4.18
 -14   0  -1   49.45    3.21
 -14   0  -2    8.01    2.21
 -14   0  -2    7.94    1.74
 -14   0  -3    3.63    2.12
 -14   0  -3    0.99    1.36
 -14   0  -4    0.68    1.93
 -14   0  -4   -0.36    1.60
 -14   0  -5   11.42    2.03
 -14   0  -5    9.72    2.07
 -14   0  -6    2.86    1.66
 -14   0  -6    1.08    1.21
 -14   0  -7   11.12    2.26
 -14   0  -7   12.89    2.47
 -14   0  -8    3.22    1.79
 -14   0  -8    3.10    1.75
 -14   0  -9    7.08    2.06
 -14   0 -10    3.56    1.81
 -14   0 -11   -1.02    1.61
 -13  -1  12   -2.12    2.37
 -13  -1  11    0.45    2.31
 -13  -1  10    3.23    2.46
 -13  -1   9    1.86    2.28
 -13  -1   8    7.07    2.53
 -13  -1   7    1.82    2.13
 -13  -1   6   28.38    3.33
 -13  -1   5    0.46    1.94
 -13  -1   4    2.43    2.08
 -13  -1   4    0.35    1.18
 -13  -1   3    0.52    1.94
 -13  -1   3    3.03    1.30
 -13  -1   2   21.93    3.14
 -13  -1   2   24.10    2.16
 -13  -1   1    1.97    2.30
 -13  -1   1    1.29    1.36
 -13  -1   0   51.66    4.04
 -13  -1   0   52.79    3.15
 -13  -1  -1   -0.69    1.43
 -13  -1  -1    1.34    2.05
 -13  -1  -2   23.04    2.48
 -13  -1  -2   21.10    2.72
 -13  -1  -3    2.01    1.44
 -13  -1  -3    1.04    1.64
 -13  -1  -4    3.83    1.62
 -13  -1  -4    1.33    0.49
 -13  -1  -5    0.68    1.73
 -13  -1  -5    1.52    1.68
 -13  -1  -6   34.52    3.09
 -13  -1  -6   34.18    3.20
 -13  -1  -7    0.97    1.55
 -13  -1  -7    0.81    1.56
 -13  -1  -8    4.53    1.85
 -13  -1  -8    7.04    1.88
 -13  -1  -9    0.74    1.66
 -13  -1 -10    2.34    1.77
 -13  -1 -11    0.95    1.71
 -13  -1 -12    3.16    2.21
 -12  -2  12    3.04    2.65
 -12  -2  11    0.80    2.39
 -12  -2  10    0.19    2.27
 -12  -2   9    0.45    2.23
 -12  -2   8   -0.20    2.04
 -12  -2   7   25.27    3.48
 -12  -2   6    0.07    2.00
 -12  -2   5    4.51    1.46
 -12  -2   5    0.86    2.04
 -12  -2   4    1.42    1.99
 -12  -2   4    3.71    1.50
 -12  -2   3    4.48    2.10
 -12  -2   3    1.48    1.32
 -12  -2   2   -0.19    1.27
 -12  -2   2    0.24    1.79
 -12  -2   1   19.39    2.12
 -12  -2   1   18.13    2.59
 -12  -2   0    0.56    1.24
 -12  -2   0    2.32    2.12
 -12  -2  -1   19.28    2.15
 -12  -2  -1   19.50    2.74
 -12  -2  -2    0.63    1.52
 -12  -2  -2   -1.84    1.73
 -12  -2  -3    1.87    1.45
 -12  -2  -3    2.15    1.27
 -12  -2  -4    4.56    1.66
 -12  -2  -4    4.72    1.88
 -12  -2  -5    3.03    1.70
 -12  -2  -5    1.59    1.59
 -12  -2  -6    1.43    1.57
 -12  -2  -6   -0.08    1.64
 -12  -2  -7   24.82    2.51
 -12  -2  -7   17.57    2.50
 -12  -2  -8    0.79    1.56
 -12  -2  -9   -0.22    1.52
 -12  -2 -10   -1.38    1.54
 -12  -2 -11    1.99    1.74
 -12  -2 -12    0.32    1.68
 -11  -3  12   -3.04    2.24
 -11  -3  11    4.96    2.59
 -11  -3  10   -2.38    2.11
 -11  -3   9   10.63    2.75
 -11  -3   8   10.41    2.54
 -11  -3   7    2.33    2.51
 -11  -3   6    5.48    2.20
 -11  -3   6    7.39    1.67
 -11  -3   5   12.41    1.89
 -11  -3   5   10.28    2.48
 -11  -3   4   -0.91    2.29
 -11  -3   4    1.79    1.60
 -11  -3   3   17.58    2.04
 -11  -3   3   13.84    2.39
 -11  -3   2    0.41    2.05
 -11  -3   2    2.69    1.29
 -11  -3   1    2.83    1.76
 -11  -3   1    1.78    1.33
 -11  -3   0   48.38    3.58
 -11  -3   0   48.33    3.10
 -11  -3  -1    0.75    1.34
 -11  -3  -1    3.06    1.62
 -11  -3  -2    0.09    1.33
 -11  -3  -2   -1.52    1.57
 -11  -3  -3   16.68    2.37
 -11  -3  -3   16.17    2.17
 -11  -3  -4    5.14    1.74
 -11  -3  -4    1.19    1.60
 -11  -3  -5   12.40    2.07
 -11  -3  -5    7.25    1.87
 -11  -3  -6    7.72    1.85
 -11  -3  -6    6.26    1.77
 -11  -3  -7    2.88    1.68
 -11  -3  -8   11.88    2.23
 -11  -3  -9    8.24    2.02
 -11  -3 -10    3.18    1.86
 -11  -3 -11    5.88    2.39
 -11  -3 -12    2.62    1.81
 -10  -4  12   -2.20    2.23
 -10  -4  11    1.64    2.40
 -10  -4  10    8.22    2.96
 -10  -4   9   13.79    2.84
 -10  -4   8    1.30    2.08
 -10  -4   7   14.94    2.74
 -10  -4   7   14.13    2.15
 -10  -4   6    0.20    1.49
 -10  -4   6   -2.17    1.86
 -10  -4   5   26.25    2.55
 -10  -4   5   23.57    2.97
 -10  -4   4   40.68    3.48
 -10  -4   4   40.41    3.04
 -10  -4   3   27.21    2.48
 -10  -4   3   26.99    2.86
 -10  -4   2   10.94    2.13
 -10  -4   2   13.31    1.88
 -10  -4   1   47.22    3.11
 -10  -4   1   42.32    3.08
 -10  -4   0   -1.40    1.20
 -10  -4   0   -1.26    1.68
 -10  -4  -1   45.91    2.89
 -10  -4  -1   39.07    2.97
 -10  -4  -2   15.59    2.18
 -10  -4  -2    9.75    1.81
 -10  -4  -3   28.68    2.71
 -10  -4  -3   35.76    2.88
 -10  -4  -4   34.77    3.00
 -10  -4  -4   43.91    2.85
 -10  -4  -5   23.04    2.30
 -10  -4  -5   23.89    2.73
 -10  -4  -6    3.43    1.43
 -10  -4  -6   -1.66    1.38
 -10  -4  -7    9.13    2.04
 -10  -4  -8   -0.01    1.48
 -10  -4  -9   12.95    2.31
 -10  -4 -10   10.01    2.23
 -10  -4 -11    2.08    1.86
 -10  -4 -12    4.91    2.34
  -9  -5  12    3.70    2.97
  -9  -5  11    2.79    2.44
  -9  -5  10   17.45    3.10
  -9  -5   9    5.93    2.39
  -9  -5   8   10.60    2.03
  -9  -5   8    5.96    2.33
  -9  -5   7   13.18    2.60
  -9  -5   7   10.03    2.05
  -9  -5   6   19.14    2.41
  -9  -5   6   21.77    3.14
  -9  -5   5    2.45    1.79
  -9  -5   5    3.86    2.05
  -9  -5   4   48.40    3.09
  -9  -5   4   49.99    3.55
  -9  -5   3   34.43    2.89
  -9  -5   3   30.27    3.14
  -9  -5   2   57.38    3.45
  -9  -5   2   53.65    3.18
  -9  -5   1   13.10    1.94
  -9  -5   1   13.51    2.04
  -9  -5   0   14.90    2.00
  -9  -5  -1    8.74    1.99
  -9  -5  -1   11.75    2.03
  -9  -5  -2   58.38    3.47
  -9  -5  -2   64.63    3.45
  -9  -5  -3   32.76    2.56
  -9  -5  -3   24.73    2.54
  -9  -5  -4   53.61    3.67
  -9  -5  -4   50.17    2.97
  -9  -5  -5    4.78    1.44
  -9  -5  -5    3.57    1.74
   9   5   6   21.05    2.31
  -9  -5  -6   24.12    2.68
   9   5   7   10.30    1.94
  -9  -5  -7   10.89    2.19
   9   5   8   11.54    1.93
  -9  -5  -8    8.52    2.04
  -9  -5  -9    1.16    1.68
  -9  -5 -10   24.71    3.17
  -9  -5 -11    0.56    2.12
  -9  -5 -12    9.12    2.35
  -8  -6  13   -1.70    2.30
  -8  -6  12    4.20    2.51
  -8  -6  11   10.35    2.73
  -8  -6  10   -1.38    2.08
  -8  -6   9   12.97    2.72
  -8  -6   9    7.94    2.24
  -8  -6   8    8.34    2.24
  -8  -6   8    5.01    2.20
  -8  -6   7    3.93    2.10
  -8  -6   7    5.19    2.00
  -8  -6   6    3.30    2.01
  -8  -6   6    4.38    2.10
  -8  -6   5   30.62    2.92
  -8  -6   5   27.87    3.03
  -8  -6   4    1.64    1.88
  -8  -6   4    1.98    1.75
  -8  -6   3   79.29    4.29
  -8  -6   3   93.34    4.48
  -8  -6   2    0.47    1.80
  -8  -6   2    1.66    1.58
  -8  -6   1   18.71    2.22
  -8  -6   0   63.48    3.55
  -8  -6   0   62.72    3.49
  -8  -6  -1   19.21    2.32
  -8  -6  -1   21.18    2.22
  -8  -6  -2    2.57    1.54
  -8  -6  -2    0.92    1.50
  -8  -6  -3   87.22    4.44
  -8  -6  -3   96.56    4.07
  -8  -6  -4    1.75    1.88
  -8  -6  -4    3.58    1.31
  -8  -6  -5   26.70    2.78
   8   6   6    4.66    1.60
  -8  -6  -6    6.04    1.88
   8   6   7    6.25    1.90
  -8  -6  -7    4.12    1.81
   8   6   8    5.98    1.93
  -8  -6  -8    5.10    1.81
   8   6   9    7.63    1.99
  -8  -6  -9    7.98    2.03
  -8  -6 -10    0.35    1.66
  -8  -6 -11    7.71    2.19
  -8  -6 -12    5.13    2.11
  -8  -6 -13   -0.04    2.16
  -7  -7  13    6.28    2.70
  -7  -7  12   -2.64    2.04
  -7  -7  11    3.72    2.39
  -7  -7  10    3.99    2.10
  -7  -7  10    0.75    2.25
  -7  -7   9   -0.66    1.94
  -7  -7   9    0.02    1.86
  -7  -7   8    1.69    1.97
  -7  -7   8   -0.02    1.95
  -7  -7   7    7.56    1.95
  -7  -7   7    6.46    2.18
  -7  -7   6   -0.64    1.59
  -7  -7   6   -0.74    2.18
  -7  -7   5    4.30    2.09
  -7  -7   5    3.76    1.94
  -7  -7   4   53.95    3.77
  -7  -7   4   49.78    3.63
  -7  -7   3   20.39    2.60
  -7  -7   3   16.45    2.27
  -7  -7   2   10.10    2.07
  -7  -7   2    3.91    1.74
  -7  -7   1   26.20    2.64
  -7  -7   1   24.36    2.48
  -7  -7   0   29.15    2.47
  -7  -7   0   28.92    2.64
  -7  -7  -1   25.74    2.81
  -7  -7  -1   21.66    2.14
  -7  -7  -2    8.05    1.59
  -7  -7  -2    6.37    1.84
  -7  -7  -3   16.36    2.26
  -7  -7  -3   25.24    2.04
  -7  -7  -4   47.21    2.48
  -7  -7  -4   43.00    3.24
   7   7   5    4.50    1.95
  -7  -7  -5    3.75    1.73
   7   7   6    0.80    1.73
  -7  -7  -6    0.30    1.58
   7   7   7    6.23    2.03
  -7  -7  -7   10.97    2.13
   7   7   8    1.31    1.79
  -7  -7  -8    0.58    1.58
   7   7   9    0.13    1.80
  -7  -7  -9    1.94    1.94
   7   7  10    6.15    1.89
  -7  -7 -10    4.78    2.04
  -7  -7 -11    4.55    1.99
  -7  -7 -12   -2.29    1.84
  -7  -7 -13    3.52    2.01
  -6  -8  13   -0.30    2.30
  -6  -8  12    2.25    2.43
  -6  -8  11    9.03    2.70
  -6  -8  11    4.43    2.33
  -6  -8  10   -0.50    2.08
  -6  -8  10   -0.14    2.00
  -6  -8   9    6.49    2.24
  -6  -8   9    4.87    2.26
  -6  -8   8    4.86    2.18
  -6  -8   8    8.09    2.69
  -6  -8   7    4.57    2.10
  -6  -8   7    4.89    2.24
  -6  -8   6    5.35    2.23
  -6  -8   6    5.23    2.10
  -6  -8   5   26.11    2.81
  -6  -8   5   26.71    2.99
  -6  -8   4    1.18    2.04
  -6  -8   4    0.74    1.61
  -6  -8   3   88.10    4.44
  -6  -8   3   87.09    4.46
  -6  -8   2    0.38    1.67
  -6  -8   2    2.30    0.98
  -6  -8   1   22.22    2.35
  -6  -8   1   22.77    2.61
  -6  -8   0   64.24    3.83
  -6  -8   0   65.04    3.34
  -6  -8  -1   19.15    2.62
  -6  -8  -1   18.98    1.99
  -6  -8  -2    0.58    1.29
  -6  -8  -2    3.64    1.73
  -6  -8  -3   93.89    3.73
  -6  -8  -3   87.86    4.59
   6   8   4    0.94    1.53
  -6  -8  -4    0.29    1.58
   6   8   5   26.70    2.66
  -6  -8  -5   29.99    3.09
   6   8   6    6.28    2.15
  -6  -8  -6    3.31    1.89
   6   8   7    7.75    2.17
  -6  -8  -7    1.11    1.66
   6   8   8    7.16    2.12
  -6  -8  -8    5.19    1.87
   6   8   9    4.63    2.11
  -6  -8  -9   11.74    2.39
   6   8  10    1.37    2.04
  -6  -8 -10   -1.33    1.55
   6   8  11    9.07    2.46
  -6  -8 -11    9.41    2.33
  -6  -8 -12    4.98    2.10
  -6  -8 -13   -0.06    1.75
  -5  -9  12    1.84    2.38
  -5  -9  11    2.63    2.37
  -5  -9  11    0.52    2.23
  -5  -9  10   16.31    2.97
  -5  -9  10   16.20    2.55
  -5  -9   9    0.17    2.06
  -5  -9   9    4.15    2.23
  -5  -9   8    7.78    2.34
  -5  -9   8    4.89    2.19
  -5  -9   7   12.60    2.31
  -5  -9   7    6.13    2.21
  -5  -9   6   22.16    3.02
  -5  -9   6   20.98    2.95
  -5  -9   5    3.02    2.22
  -5  -9   5    2.80    1.78
  -5  -9   4   46.60    3.51
  -5  -9   4   53.24    3.63
  -5  -9   3   26.36    2.67
  -5  -9   3   29.39    3.15
  -5  -9   2   56.72    3.69
  -5  -9   1   14.74    1.97
  -5  -9   1   11.22    2.22
  -5  -9   0   12.72    1.87
  -5  -9   0   12.13    2.42
  -5  -9  -1   10.61    2.18
  -5  -9  -1   11.31    1.63
  -5  -9  -2   53.99    3.85
  -5  -9  -2   57.02    2.77
   5   9   3   29.10    3.01
  -5  -9  -3   27.45    2.87
   5   9   4   51.73    3.45
  -5  -9  -4   53.50    3.90
   5   9   5    2.60    1.79
  -5  -9  -5    3.36    1.80
   5   9   6   22.02    2.64
  -5  -9  -6   24.41    2.88
   5   9   7   11.45    2.16
  -5  -9  -7   15.91    2.44
   5   9   8    8.56    2.06
  -5  -9  -8    5.48    1.93
   5   9   9    1.15    2.06
  -5  -9  -9   -0.37    1.64
   5   9  10   18.75    2.93
  -5  -9 -10   14.32    2.59
   5   9  11    2.21    1.91
  -5  -9 -11    3.60    1.98
   5   9  12    4.64    2.41
  -5  -9 -12    6.17    2.21
  -4 -10  12    1.09    2.38
  -4 -10  12    3.49    2.43
  -4 -10  11    2.64    2.34
  -4 -10  11    4.72    2.54
  -4 -10  10   11.47    2.71
  -4 -10  10   12.45    2.75
  -4 -10   9   11.34    2.68
  -4 -10   9   11.08    2.54
  -4 -10   8    3.51    2.03
  -4 -10   8    0.90    1.76
  -4 -10   7    8.71    2.26
  -4 -10   7   11.79    2.60
  -4 -10   6    4.21    2.01
  -4 -10   6    3.48    1.89
  -4 -10   5   28.70    3.27
  -4 -10   5   23.84    2.76
  -4 -10   4   40.09    3.08
  -4 -10   4   46.03    3.47
  -4 -10   3   32.38    2.87
  -4 -10   3   30.48    3.03
  -4 -10   2   11.64    1.93
  -4 -10   2   15.01    2.73
  -4 -10   1   52.82    3.65
  -4 -10   1   48.33    3.02
  -4 -10   0   -1.91    1.60
  -4 -10   0   -0.99    1.29
  -4 -10  -1   45.53    2.63
  -4 -10  -1   47.27    3.53
  -4 -10  -2   11.94    2.24
  -4 -10  -2   10.43    1.41
   4  10   3   33.09    3.04
  -4 -10  -3   30.42    3.05
   4  10   4   44.32    3.29
  -4 -10  -4   37.97    3.32
   4  10   5   24.45    2.90
  -4 -10  -5   20.15    2.62
   4  10   6    0.39    1.80
  -4 -10  -6    1.34    1.72
   4  10   7   15.49    2.39
  -4 -10  -7    9.15    2.21
   4  10   8   -0.56    2.01
  -4 -10  -8    0.04    1.65
   4  10   9   11.79    2.34
  -4 -10  -9   14.24    2.46
   4  10  10    7.53    2.26
  -4 -10 -10   11.87    2.43
   4  10  11    6.88    2.30
  -4 -10 -11    5.26    2.18
   4  10  12    4.36    2.56
  -4 -10 -12    1.46    2.19
  -3 -11  12    2.32    2.31
  -3 -11  12   -2.37    1.92
  -3 -11  11    5.26    2.40
  -3 -11  11    4.53    2.58
  -3 -11  10    2.89    2.14
  -3 -11  10    0.36    2.05
  -3 -11   9    6.42    2.29
  -3 -11   9   11.01    2.48
  -3 -11   8    8.47    2.53
  -3 -11   8    9.69    2.64
  -3 -11   7    1.99    1.92
  -3 -11   7    3.30    1.98
  -3 -11   6    2.86    1.97
  -3 -11   6    4.71    1.90
  -3 -11   5   10.59    2.40
  -3 -11   5   10.08    2.14
  -3 -11   4    4.00    1.71
  -3 -11   4    1.43    2.28
  -3 -11   3   13.25    1.97
  -3 -11   3   19.55    2.71
  -3 -11   2    0.70    1.85
  -3 -11   2    1.47    1.49
  -3 -11   1    5.33    1.47
  -3 -11   1    2.79    1.99
  -3 -11   0   42.23    3.56
  -3 -11   0   47.04    2.67
  -3 -11  -1    1.05    1.90
  -3 -11  -1    2.04    1.15
   3  11   2   -1.63    1.69
  -3 -11  -2    1.72    1.90
   3  11   3   19.63    2.58
  -3 -11  -3   16.80    2.55
   3  11   4    1.81    1.83
  -3 -11  -4    4.16    1.96
   3  11   5    8.48    2.22
  -3 -11  -5    7.75    2.48
   3  11   6    6.37    2.04
  -3 -11  -6    5.13    1.93
   3  11   7    0.74    1.81
  -3 -11  -7   -0.43    1.95
   3  11   8    6.56    2.13
  -3 -11  -8    7.56    2.14
   3  11   9    8.72    2.26
  -3 -11  -9    6.45    2.15
   3  11  10    0.67    1.91
  -3 -11 -10    0.02    1.70
   3  11  11   11.20    2.85
  -3 -11 -11    6.51    2.46
   3  11  12    1.04    2.12
  -3 -11 -12    0.63    1.87
  -2 -12  12   -2.51    1.91
  -2 -12  12   -1.31    2.53
  -2 -12  11   -0.84    2.37
  -2 -12  11    1.79    2.13
  -2 -12  10   -0.72    2.43
  -2 -12   9    2.18    2.46
  -2 -12   8    1.15    1.99
  -2 -12   7   25.98    3.05
  -2 -12   6    2.16    2.31
  -2 -12   5    3.64    2.15
  -2 -12   4    6.62    2.28
  -2 -12   3    1.50    0.47
  -2 -12   3    3.45    2.09
  -2 -12   2    1.46    1.48
  -2 -12   2   -2.01    1.89
  -2 -12   1   20.69    2.08
  -2 -12   1   17.19    2.70
  -2 -12   0    3.08    1.32
  -2 -12   0   -1.05    1.93
  -2 -12  -1   23.70    2.85
  -2 -12  -1   19.00    1.79
   2  12   2   -0.18    1.79
  -2 -12  -2    2.41    1.91
   2  12   3    2.48    2.00
  -2 -12  -3    2.33    1.99
   2  12   4    4.60    2.05
  -2 -12  -4    3.96    2.04
   2  12   5    2.83    1.98
  -2 -12  -5    5.66    2.05
   2  12   6   -1.30    1.71
  -2 -12  -6    0.03    1.73
   2  12   7   21.09    2.76
  -2 -12  -7   18.20    2.70
   2  12   8    2.15    2.22
  -2 -12  -8   -1.00    1.56
   2  12   9   -1.44    2.14
  -2 -12  -9   -2.37    1.57
   2  12  10    0.39    1.99
  -2 -12 -10   -1.92    1.60
   2  12  11    2.13    2.13
  -2 -12 -11    2.86    1.92
   2  12  12   -1.52    2.06
  -2 -12 -12   -0.13    1.81
  -1 -13  12   -2.06    2.10
  -1 -13  11    2.62    2.63
  -1 -13  10    1.85    2.57
  -1 -13   9    3.02    2.25
  -1 -13   8    3.33    2.52
  -1 -13   7   -2.98    2.23
  -1 -13   6   27.63    3.18
  -1 -13   5   -0.07    1.90
  -1 -13   4    0.94    2.00
  -1 -13   3    0.35    2.00
  -1 -13   2   19.75    2.84
  -1 -13   1   -1.04    1.88
  -1 -13   1    0.05    1.21
  -1 -13   0   52.85    3.88
  -1 -13   0   46.99    2.72
  -1 -13  -1   -2.35    1.86
   1  13   2   22.72    2.87
  -1 -13  -2   22.63    2.95
   1  13   3   -1.57    1.74
  -1 -13  -3    0.37    2.01
   1  13   4    1.65    1.88
  -1 -13  -4    0.92    1.86
   1  13   5    1.63    1.95
  -1 -13  -5    2.99    1.86
   1  13   6   32.55    3.23
  -1 -13  -6   33.62    3.56
   1  13   7    0.48    1.85
  -1 -13  -7   -2.31    1.59
   1  13   8    5.82    2.16
  -1 -13  -8    8.27    2.22
   1  13   9   -1.91    2.23
  -1 -13  -9    2.39    2.26
   1  13  10    2.41    2.13
  -1 -13 -10    1.99    1.92
   1  13  11   -2.63    2.35
  -1 -13 -11    3.75    2.07
   1  13  12    3.06    2.78
  -1 -13 -12   -0.27    1.79
   0 -14  11    0.35    2.25
   0 -14  10    0.99    2.25
   0 -14   9    7.51    2.74
   0 -14   8    4.33    2.36
   0 -14   7   12.35    2.84
   0 -14   6    3.47    2.13
   0 -14   5   18.16    3.01
   0 -14   4    0.99    2.06
   0 -14   3    2.59    2.17
   0 -14   2    5.71    2.30
   0 -14   1   56.79    4.11
   0 -14   0   19.39    2.89
   0  14   1   54.09    3.93
   0 -14  -1   47.96    3.99
   0  14   2   10.09    2.47
   0 -14  -2    6.06    2.24
   0  14   3   -1.43    1.78
   0 -14  -3    1.35    1.94
   0  14   4    1.30    1.91
   0 -14  -4    4.24    2.05
   0  14   5    8.73    2.33
   0 -14  -5   14.59    2.57
   0  14   6    2.91    1.99
   0 -14  -6    3.23    1.93
   0  14   7   12.51    2.55
   0 -14  -7    7.76    2.24
   0  14   8    4.18    2.22
   0 -14  -8    1.73    2.18
   0  14   9    4.30    2.29
   0 -14  -9    7.62    2.31
   0  14  10    0.47    2.11
   0 -14 -10    2.88    1.87
   0  14  11   -0.41    2.22
   0 -14 -11   -0.05    2.13
   1 -15  11    1.74    2.41
   1 -15  10    2.51    2.42
   1 -15   9    5.91    2.81
   1 -15   8    3.77    2.35
   1 -15   7    9.18    2.55
   1 -15   6    1.41    2.16
   1 -15   5    1.93    2.09
   1 -15   4    2.06    2.06
   1 -15   3    1.16    2.05
   1 -15   2    1.64    2.16
   1 -15   1   24.29    3.12
   1 -15   0   30.90    3.62
  -1  15   1   24.14    3.04
   1 -15  -1   30.12    3.33
  -1  15   2   -1.49    1.90
   1 -15  -2   -0.14    2.39
  -1  15   3    0.10    1.85
   1 -15  -3    2.32    1.99
  -1  15   4    3.28    1.59
   1 -15  -4    4.15    2.13
  -1  15   5    5.62    2.16
   1 -15  -5    1.76    2.24
  -1  15   6    4.95    2.14
   1 -15  -6    6.67    2.42
  -1  15   7   10.44    2.47
   1 -15  -7    9.85    2.66
  -1  15   8    9.61    2.49
   1 -15  -8    8.21    2.62
  -1  15   9    3.61    2.28
   1 -15  -9    5.31    2.10
  -1  15  10    2.42    2.28
   1 -15 -10   -0.30    1.82
  -1  15  11    0.13    2.25
   1 -15 -11    0.71    2.15
   2 -16  10   -2.06    2.12
   2 -16   9    1.07    2.61
   2 -16   8    7.58    2.88
   2 -16   7    5.78    2.46
   2 -16   6    1.26    2.20
   2 -16   5   -3.49    1.84
   2 -16   4    1.89    2.09
   2 -16   3    3.02    2.10
   2 -16   2   -1.19    2.12
   2 -16   1    2.35    2.17
   2 -16   0   13.85    2.69
  -2  16   1    3.03    2.12
   2 -16  -1    3.59    2.13
  -2  16   2   -0.86    1.81
   2 -16  -2    0.20    1.96
  -2  16   3   -0.24    1.80
   2 -16  -3    0.40    1.95
  -2  16   4    1.17    1.93
   2 -16  -4   -0.15    1.93
  -2  16   5    0.22    1.93
   2 -16  -5    0.52    2.15
  -2  16   6    1.85    2.05
   2 -16  -6    6.09    2.46
  -2  16   7    1.03    2.07
   2 -16  -7    1.72    2.31
  -2  16   8    3.93    2.27
   2 -16  -8    8.45    2.68
  -2  16   9    0.35    2.11
   2 -16  -9    3.99    2.29
  -2  16  10   -4.23    1.90
   2 -16 -10    1.46    2.35
   3 -17  10    6.61    2.71
   3 -17   9    0.23    2.27
   3 -17   8    0.42    2.26
   3 -17   7    6.17    2.59
   3 -17   6   -0.12    2.23
   3 -17   5   -0.02    2.11
   3 -17   4    1.49    2.09
   3 -17   3    5.24    2.25
   3 -17   2   10.72    2.65
   3 -17   1    4.43    2.28
   3 -17   0   -2.27    1.93
  -3  17   1    1.50    1.99
   3 -17  -1    1.97    2.13
  -3  17   2   12.02    2.49
   3 -17  -2   17.44    3.23
  -3  17   3    2.08    2.06
   3 -17  -3    3.87    2.14
  -3  17   4    2.07    2.03
   3 -17  -4    0.84    2.01
  -3  17   5    2.17    2.08
   3 -17  -5    4.03    2.16
  -3  17   6    1.04    2.07
   3 -17  -6    2.43    2.05
  -3  17   7    9.78    2.57
   3 -17  -7   13.43    2.67
  -3  17   8    2.34    2.19
   3 -17  -8    3.05    1.93
  -3  17   9   -1.00    2.24
   3 -17  -9    1.17    1.90
  -3  17  10    4.13    2.50
   3 -17 -10    6.76    2.33
   4 -18   9    4.78    2.69
   4 -18   8   -2.69    2.51
   4 -18   7    3.52    2.43
   4 -18   6    3.49    2.37
   4 -18   5    6.30    2.78
   4 -18   4    2.35    2.21
   4 -18   3   16.54    2.93
   4 -18   2    2.40    2.24
   4 -18   1    4.47    2.36
   4 -18   0   13.79    2.79
  -4  18   1    0.37    2.00
   4 -18  -1    1.20    2.11
  -4  18   2   -0.30    1.91
   4 -18  -2   -1.88    2.34
  -4  18   3   16.64    2.83
   4 -18  -3   17.82    2.89
  -4  18   4    0.24    1.99
   4 -18  -4   -0.50    1.97
  -4  18   5    5.04    2.24
   4 -18  -5    5.85    2.25
  -4  18   6    1.92    2.16
   4 -18  -6    5.58    2.54
  -4  18   7   -0.90    1.97
   4 -18  -7    5.09    2.52
  -4  18   8   -2.83    1.93
   4 -18  -8    1.65    1.95
  -4  18   9    8.62    2.68
   4 -18  -9    9.02    2.39
   5 -19   8    3.44    2.92
   5 -19   7    4.90    2.53
   5 -19   6    2.83    2.39
   5 -19   5    4.84    2.47
   5 -19   4   14.93    2.90
   5 -19   3    4.17    2.40
   5 -19   2    0.65    2.62
   5 -19   1    4.60    2.36
  -5  19   0    0.72    2.03
   5 -19   0    2.31    2.31
  -5  19   1    7.60    2.39
   5 -19  -1   10.12    2.98
  -5  19   2    0.33    2.02
   5 -19  -2    4.86    2.34
  -5  19   3    6.11    2.31
   5 -19  -3    4.23    2.22
  -5  19   4    9.35    2.55
   5 -19  -4   13.39    3.05
  -5  19   5    4.91    2.31
   5 -19  -5    7.19    2.41
  -5  19   6    0.31    2.05
   5 -19  -6    0.94    1.97
  -5  19   7    1.84    2.25
   5 -19  -7    5.04    2.16
  -5  19   8    0.82    2.60
   5 -19  -8    1.24    2.04
   6 -20   7   -4.21    2.16
   6 -20   6   -0.38    2.32
   6 -20   5    0.34    2.39
   6 -20   4    8.38    2.69
   6 -20   3    7.13    2.66
   6 -20   2    2.54    2.42
   6 -20   1    4.28    2.52
  -6  20   0    1.65    2.18
   6 -20   0   -0.87    2.56
  -6  20   1   -0.98    2.05
   6 -20  -1   -0.59    2.50
  -6  20   2    7.04    2.41
   6 -20  -2    2.58    2.26
  -6  20   3    2.99    2.35
   6 -20  -3    2.44    2.25
  -6  20   4    7.46    2.52
   6 -20  -4    5.15    2.34
  -6  20   5   -1.64    2.00
   6 -20  -5    0.05    2.44
  -6  20   6    2.48    2.25
   6 -20  -6   -0.13    2.19
  -6  20   7    1.19    2.27
   6 -20  -7    2.44    2.36
   7 -21   6   -2.17    2.67
   7 -21   5    1.07    2.41
   7 -21   4   -1.47    2.31
   7 -21   3    4.35    2.93
   7 -21   2   -0.15    2.29
   7 -21   1    0.21    2.36
  -7  21   0   -0.79    2.05
   7 -21   0    1.67    2.35
  -7  21   1   -1.02    2.18
   7 -21  -1   -1.52    2.16
  -7  21   2    0.34    2.10
   7 -21  -2    3.94    2.43
  -7  21   3    7.34    2.58
   7 -21  -3    6.72    2.43
  -7  21   4    1.13    2.19
   7 -21  -4    0.35    2.09
  -7  21   5   -0.71    2.16
   7 -21  -5   -0.18    2.46
  -7  21   6    0.01    2.19
   7 -21  -6   -1.16    1.90
   8 -22   4    3.91    2.71
   8 -22   3   -0.55    2.39
   8 -22   2    1.28    2.50
   8 -22   1    2.92    2.57
   8 -22   0   -0.65    2.30
  -8  22   1    1.85    2.30
   8 -22  -1    4.30    2.87
  -8  22   2    1.47    2.77
   8 -22  -2   -0.55    2.35
  -8  22   3    3.91    2.44
   8 -22  -3   -1.56    2.52
  -8  22   4    7.12    2.63
   8 -22  -4    0.83    2.58
 -22   7   3    5.79    2.61
 -22   7   2    5.81    2.55
 -22   7   1    7.77    2.66
 -22   7   0    3.41    2.46
 -22   7  -1   -0.53    2.14
 -22   7  -2    1.96    2.34
 -22   7  -3    2.72    2.86
 -21   6   5    0.01    2.25
 -21   6   4    5.09    2.94
 -21   6   3    4.55    2.45
 -21   6   2    2.03    2.25
 -21   6   1   -1.10    2.06
 -21   6   0    1.93    2.31
 -21   6  -1    1.80    2.60
 -21   6  -2    1.09    2.28
 -21   6  -3    1.67    2.58
 -21   6  -3   -1.56    1.63
 -21   6  -4    1.19    1.96
 -21   6  -4    1.02    2.57
 -21   6  -5    4.91    2.38
 -21   6  -5    0.71    1.93
 -20   5   7   -0.47    2.35
 -20   5   6   -0.01    2.20
 -20   5   5    0.14    2.69
 -20   5   4   -0.46    2.22
 -20   5   3    7.19    2.53
 -20   5   2    1.48    2.39
 -20   5   1   -0.60    2.08
 -20   5   0    4.04    2.30
 -20   5  -1    3.28    2.31
 -20   5  -2   -0.34    1.59
 -20   5  -2    2.34    2.64
 -20   5  -3    9.80    2.18
 -20   5  -3   10.48    2.72
 -20   5  -4    3.95    1.96
 -20   5  -4   -0.83    1.89
 -20   5  -5    0.61    1.59
 -20   5  -5    4.31    2.33
 -20   5  -6    1.07    1.75
 -20   5  -6    3.06    2.25
 -20   5  -7    2.86    1.91
 -20   5  -7    0.15    2.42
 -19   4   8    1.38    2.41
 -19   4   7   -0.11    2.75
 -19   4   6   -2.51    2.45
 -19   4   5   -1.57    2.10
 -19   4   4   12.63    2.96
 -19   4   3    3.69    2.46
 -19   4   2    1.13    2.21
 -19   4   1    4.29    2.37
 -19   4   0   -0.92    2.02
 -19   4  -1    1.23    2.17
 -19   4  -1    4.91    1.70
 -19   4  -2   -0.07    2.08
 -19   4  -2    3.48    1.75
 -19   4  -3    5.17    1.90
 -19   4  -3    2.84    2.28
 -19   4  -4   12.76    2.21
 -19   4  -4   13.57    2.81
 -19   4  -5   -1.19    1.45
 -19   4  -5    0.04    1.82
 -19   4  -6   -0.56    1.67
 -19   4  -6    0.68    2.40
 -19   4  -7    4.47    2.22
 -19   4  -7    2.25    2.08
 -19   4  -8    6.81    2.66
 -19   4  -8    1.88    1.88
 -18   3   9    5.06    3.06
 -18   3   8    0.07    2.28
 -18   3   7    1.61    2.33
 -18   3   6    0.94    2.34
 -18   3   5   -0.44    2.61
 -18   3   4    6.14    2.47
 -18   3   3   -1.81    2.04
 -18   3   2    1.90    2.24
 -18   3   1    2.92    2.29
 -18   3   0    5.68    2.39
 -18   3   0    0.00    1.38
 -18   3  -1    3.40    1.60
 -18   3  -1    3.00    2.21
 -18   3  -2    4.11    2.17
 -18   3  -2    6.60    1.82
 -18   3  -3    2.44    2.14
 -18   3  -3    0.07    1.64
 -18   3  -4    8.10    2.13
 -18   3  -4   11.62    2.89
 -18   3  -5    3.82    1.77
 -18   3  -5    1.94    2.35
 -18   3  -6    3.68    2.44
 -18   3  -6    2.59    2.03
 -18   3  -7    3.01    1.86
 -18   3  -7    0.93    2.25
 -18   3  -8   -0.72    2.02
 -18   3  -8    1.82    1.76
 -18   3  -9    1.01    2.21
 -18   3  -9    5.05    2.13
 -17   2   9    1.68    2.40
 -17   2   8   -0.95    2.66
 -17   2   7    3.02    2.41
 -17   2   6    8.82    2.68
 -17   2   5    2.13    2.17
 -17   2   4    5.26    2.41
 -17   2   3    5.08    2.33
 -17   2   2    4.75    2.28
 -17   2   1    2.10    2.10
 -17   2   1    0.62    1.35
 -17   2   0   -2.21    2.17
 -17   2   0   -0.86    1.23
 -17   2  -1    1.43    1.30
 -17   2  -1   -0.40    1.88
 -17   2  -2    3.99    2.45
 -17   2  -2    3.45    1.66
 -17   2  -3    5.32    2.18
 -17   2  -3    5.08    1.68
 -17   2  -4    5.83    2.38
 -17   2  -4    1.86    1.56
 -17   2  -5    1.53    1.83
 -17   2  -5    1.49    1.61
 -17   2  -6    8.16    2.58
 -17   2  -6    8.70    2.05
 -17   2  -7    1.77    1.73
 -17   2  -7    5.98    2.41
 -17   2  -8   -0.17    1.97
 -17   2  -8    0.33    1.71
 -17   2  -9    3.18    1.59
 -17   2  -9    0.43    1.70
 -16   1  10    1.48    2.45
 -16   1   9   -1.01    2.30
 -16   1   8    9.22    3.23
 -16   1   7    9.57    2.71
 -16   1   6   -1.15    2.05
 -16   1   5   -2.89    1.98
 -16   1   4    0.69    2.00
 -16   1   3    0.73    2.00
 -16   1   2    1.79    1.36
 -16   1   2    2.74    2.43
 -16   1   1    8.79    2.53
 -16   1   1   11.64    1.82
 -16   1   0    0.43    1.94
 -16   1   0    6.10    1.61
 -16   1  -1   11.95    1.99
 -16   1  -1   11.94    2.57
 -16   1  -2    1.54    1.58
 -16   1  -2    1.29    1.87
 -16   1  -3    0.93    1.63
 -16   1  -3   -1.24    1.99
 -16   1  -4   -0.13    2.02
 -16   1  -4    0.26    1.43
 -16   1  -5    0.24    2.01
 -16   1  -5    0.98    1.80
 -16   1  -6   -1.33    1.44
 -16   1  -6   -1.95    1.57
 -16   1  -7    6.63    1.91
 -16   1  -7    6.82    2.01
 -16   1  -8    0.86    1.93
 -16   1  -8    1.55    1.40
 -16   1  -9    1.70    1.75
 -16   1 -10    2.03    1.87
 -15   0  10   -1.33    2.27
 -15   0   9   -0.27    2.31
 -15   0   8   20.08    3.26
 -15   0   7    0.76    2.28
 -15   0   6    2.60    2.22
 -15   0   5   -0.61    1.98
 -15   0   4    4.68    2.23
 -15   0   3    1.37    2.41
 -15   0   3    3.23    1.37
 -15   0   2   -0.21    2.00
 -15   0   2    2.90    1.33
 -15   0   1    0.28    1.99
 -15   0   1   -0.82    1.34
 -15   0   0   93.40    4.33
 -15   0   0   87.17    5.00
 -15   0  -1   -0.68    1.78
 -15   0  -1    2.37    1.53
 -15   0  -2    2.96    1.70
 -15   0  -2    2.41    2.26
 -15   0  -3    3.38    2.14
 -15   0  -3    2.93    1.73
 -15   0  -4    6.52    1.96
 -15   0  -4    5.54    2.17
 -15   0  -5   -1.12    1.40
 -15   0  -5    1.67    1.81
 -15   0  -6    0.79    1.78
 -15   0  -6    2.29    0.95
 -15   0  -7   -1.53    1.74
 -15   0  -7   -1.67    1.78
 -15   0  -8   18.58    2.74
 -15   0  -8   20.96    2.87
 -15   0  -9    1.32    1.69
 -15   0 -10   -0.65    1.66
 -14  -1  11    1.54    2.52
 -14  -1  10    0.25    2.38
 -14  -1   9    3.42    2.89
 -14  -1   8    8.63    2.71
 -14  -1   7   11.07    2.68
 -14  -1   6    2.47    2.15
 -14  -1   5    0.57    2.14
 -14  -1   4    1.44    2.07
 -14  -1   3    2.52    2.10
 -14  -1   3    4.64    1.42
 -14  -1   2    2.46    1.35
 -14  -1   2    2.30    2.03
 -14  -1   1   29.07    2.51
 -14  -1   1   33.98    3.45
 -14  -1   0   38.16    2.83
 -14  -1   0   28.75    3.30
 -14  -1  -1   31.60    3.21
 -14  -1  -1   30.61    2.64
 -14  -1  -2    2.39    2.13
 -14  -1  -2    0.60    1.55
 -14  -1  -3    0.43    1.96
 -14  -1  -3    3.72    1.53
 -14  -1  -4    4.18    1.65
 -14  -1  -4    1.75    0.78
 -14  -1  -5    0.56    1.73
 -14  -1  -5    2.12    1.61
 -14  -1  -6    2.53    1.66
 -14  -1  -6    1.53    1.73
 -14  -1  -7   12.16    2.20
 -14  -1  -7   10.91    2.28
 -14  -1  -8    6.27    2.03
 -14  -1  -9    5.74    2.01
 -14  -1 -10   -1.36    1.63
 -14  -1 -11    1.29    1.84
 -13  -2  11   -1.44    2.28
 -13  -2  10    2.45    2.47
 -13  -2   9    2.14    2.42
 -13  -2   8   -2.87    2.04
 -13  -2   7   14.44    2.85
 -13  -2   6    8.50    2.47
 -13  -2   5    3.44    2.16
 -13  -2   4    8.89    2.43
 -13  -2   4    6.86    1.67
 -13  -2   3    2.02    1.49
 -13  -2   3    4.74    2.16
 -13  -2   2   10.60    1.81
 -13  -2   2   11.28    2.75
 -13  -2   1   15.27    2.07
 -13  -2   1   18.67    2.69
 -13  -2   0    3.12    1.60
 -13  -2   0   -1.11    2.10
 -13  -2  -1   15.44    2.77
 -13  -2  -1   18.19    2.29
 -13  -2  -2   13.69    2.62
 -13  -2  -2   10.73    1.92
 -13  -2  -3    0.99    0.77
 -13  -2  -3    0.40    1.42
 -13  -2  -4   11.72    2.29
 -13  -2  -4    9.49    1.93
 -13  -2  -5    2.37    1.66
 -13  -2  -5    1.08    1.54
 -13  -2  -6   14.08    2.26
 -13  -2  -6   15.91    2.40
 -13  -2  -7   10.72    2.13
 -13  -2  -8    0.46    1.58
 -13  -2  -9    0.68    1.73
 -13  -2 -10    3.55    1.89
 -13  -2 -11   -1.69    1.58
 -12  -3  11   -0.95    2.32
 -12  -3  10    1.54    2.37
 -12  -3   9   -1.08    2.19
 -12  -3   8   -0.94    2.13
 -12  -3   7    1.45    2.13
 -12  -3   6    7.95    2.43
 -12  -3   5    8.70    2.36
 -12  -3   5    5.95    1.58
 -12  -3   4   17.99    2.72
 -12  -3   4   16.62    2.06
 -12  -3   3    5.99    2.20
 -12  -3   3    4.86    1.63
 -12  -3   2    2.94    2.01
 -12  -3   2    4.77    1.71
 -12  -3   1    4.25    1.96
 -12  -3   1    4.46    1.71
 -12  -3   0    4.30    2.23
 -12  -3   0    2.71    1.66
 -12  -3  -1    3.63    2.14
 -12  -3  -1    4.82    1.85
 -12  -3  -2    1.05    1.32
 -12  -3  -2    3.40    1.52
 -12  -3  -3    4.79    1.64
 -12  -3  -3    6.65    1.97
 -12  -3  -4   16.77    2.27
 -12  -3  -4   22.18    2.58
 -12  -3  -5    5.69    1.82
 -12  -3  -5   11.03    1.97
 -12  -3  -6    5.42    1.82
 -12  -3  -6   10.77    1.92
 -12  -3  -7    0.26    1.50
 -12  -3  -8   -0.12    1.50
 -12  -3  -9    1.29    1.62
 -12  -3 -10    4.44    1.94
 -12  -3 -11    1.20    1.72
 -11  -4  12    5.22    2.68
 -11  -4  11    0.36    2.42
 -11  -4  10    4.57    2.50
 -11  -4   9   -1.67    2.14
 -11  -4   8    7.17    2.49
 -11  -4   7    3.91    2.25
 -11  -4   6    0.37    1.96
 -11  -4   6    1.13    1.49
 -11  -4   5    0.27    1.46
 -11  -4   5    1.42    2.02
 -11  -4   4   42.67    3.71
 -11  -4   4   47.65    3.14
 -11  -4   3    9.58    1.98
 -11  -4   3   10.09    2.27
 -11  -4   2   -1.54    1.22
 -11  -4   2    1.67    1.87
 -11  -4   1    7.49    2.33
 -11  -4   1    5.62    1.80
 -11  -4   0   32.24    3.13
 -11  -4   0   28.94    2.63
 -11  -4  -1    3.24    1.24
 -11  -4  -1    2.13    1.69
 -11  -4  -2    1.41    1.48
 -11  -4  -2   -2.06    1.64
 -11  -4  -3   14.35    2.32
 -11  -4  -3   11.43    2.05
 -11  -4  -4   47.75    3.33
 -11  -4  -4   49.19    3.58
 -11  -4  -5   -0.24    1.39
 -11  -4  -5    1.23    1.79
 -11  -4  -6   -2.02    1.29
 -11  -4  -7    5.88    1.87
 -11  -4  -8    7.13    1.97
 -11  -4  -9    2.81    2.10
 -11  -4 -10    5.56    2.00
 -11  -4 -11    0.07    1.73
 -11  -4 -12    5.19    2.16
 -10  -5  12    5.52    2.71
 -10  -5  11    7.92    2.78
 -10  -5  10    1.06    2.39
 -10  -5   9   14.39    2.94
 -10  -5   8    4.63    2.39
 -10  -5   7    0.18    1.80
 -10  -5   7    1.55    2.05
 -10  -5   6    5.78    1.87
 -10  -5   6    5.73    2.33
 -10  -5   5   16.49    2.93
 -10  -5   5   14.51    2.22
 -10  -5   4    0.98    1.99
 -10  -5   4    0.44    1.78
 -10  -5   3   45.01    3.27
 -10  -5   3   45.52    3.82
 -10  -5   2    0.45    1.68
 -10  -5   2    0.76    2.00
 -10  -5   1    9.14    2.20
 -10  -5   1    5.39    1.88
 -10  -5  -1    9.29    2.09
 -10  -5  -1   10.25    1.97
 -10  -5  -2    2.59    1.68
 -10  -5  -2    2.62    1.56
 -10  -5  -3   40.70    3.19
 -10  -5  -3   50.26    3.26
 -10  -5  -4    2.20    1.67
 -10  -5  -4    0.81    1.52
 -10  -5  -5   16.55    2.37
 -10  -5  -6    4.77    1.78
 -10  -5  -7   -0.36    1.45
 -10  -5  -8    1.07    1.91
 -10  -5  -9    8.22    2.10
 -10  -5 -10   -0.09    1.67
 -10  -5 -11    3.37    1.95
 -10  -5 -12    4.16    2.19
  -9  -6  12   -0.05    2.41
  -9  -6  11    0.31    2.77
  -9  -6  10    4.17    2.51
  -9  -6   9    3.28    2.38
  -9  -6   8   -1.48    1.98
  -9  -6   8    0.08    1.71
  -9  -6   7    5.95    2.04
  -9  -6   7    9.71    2.42
  -9  -6   6   -0.28    1.94
  -9  -6   6   -0.92    1.75
  -9  -6   5    9.88    2.38
  -9  -6   5   11.60    2.30
  -9  -6   4   19.58    2.93
  -9  -6   4   16.80    2.50
  -9  -6   3   11.78    2.31
  -9  -6   3   14.07    2.32
  -9  -6   2   31.21    2.92
  -9  -6   2   26.34    2.75
  -9  -6   1   15.39    2.12
  -9  -6   1   13.64    2.36
  -9  -6   0   31.05    2.79
  -9  -6   0   27.49    2.77
  -9  -6  -1   20.23    2.37
  -9  -6  -1   16.10    2.24
  -9  -6  -2   29.31    3.00
  -9  -6  -2   27.35    2.55
  -9  -6  -3   12.57    1.93
  -9  -6  -3    8.75    2.03
  -9  -6  -4   14.36    2.27
  -9  -6  -4   12.41    1.78
  -9  -6  -5    8.96    2.25
  -9  -6  -6    1.52    1.59
   9   6   7    8.26    1.92
  -9  -6  -7    8.28    2.01
   9   6   8    0.10    1.58
  -9  -6  -8    1.49    1.70
  -9  -6  -9    6.33    2.22
  -9  -6 -10    5.31    1.96
  -9  -6 -11    1.49    1.90
  -9  -6 -12   -1.93    1.64
  -8  -7  12   -1.71    2.26
  -8  -7  11   -1.54    2.14
  -8  -7  10    1.85    2.39
  -8  -7   9   -0.63    1.86
  -8  -7   9    0.25    2.13
  -8  -7   8    1.06    1.93
  -8  -7   8    2.99    2.21
  -8  -7   7    2.42    2.04
  -8  -7   7    2.88    2.00
  -8  -7   6    3.30    2.00
  -8  -7   6    3.37    2.08
  -8  -7   5    2.02    1.99
  -8  -7   5    2.97    1.94
  -8  -7   4   15.44    2.33
  -8  -7   4   19.66    2.84
  -8  -7   3   16.18    2.42
  -8  -7   3   15.83    2.28
  -8  -7   2    0.85    1.91
  -8  -7   2    1.72    1.72
  -8  -7   1   20.01    2.43
  -8  -7   1   12.86    2.07
  -8  -7   0    2.65    1.69
  -8  -7   0    2.44    1.64
  -8  -7  -1   21.38    2.34
  -8  -7  -1   14.66    2.25
  -8  -7  -2   -0.40    1.47
  -8  -7  -2    2.14    1.67
  -8  -7  -3   18.07    2.45
  -8  -7  -3   19.00    1.98
  -8  -7  -4   15.34    2.34
  -8  -7  -5   -0.39    1.62
   8   7   6    2.93    1.60
  -8  -7  -6    0.31    1.57
   8   7   7    1.90    1.75
  -8  -7  -7    1.01    1.61
   8   7   8   -0.14    1.44
  -8  -7  -8    1.57    1.64
   8   7   9   -0.17    1.82
  -8  -7  -9    0.44    1.67
  -8  -7 -10    5.20    2.12
  -8  -7 -11   -0.81    1.92
  -8  -7 -12    1.97    1.95
  -7  -8  12   -0.17    2.78
  -7  -8  11   -3.00    2.08
  -7  -8  10    1.34    2.17
  -7  -8  10    4.50    2.38
  -7  -8   9    0.62    2.08
  -7  -8   9   -0.83    1.99
  -7  -8   8    1.94    2.02
  -7  -8   8    1.42    2.06
  -7  -8   7   -2.71    2.20
  -7  -8   7    1.10    1.70
  -7  -8   6    2.12    1.95
  -7  -8   6    1.42    2.05
  -7  -8   5    0.69    1.84
  -7  -8   5    1.28    2.14
  -7  -8   4   12.69    2.30
  -7  -8   4   13.36    2.34
  -7  -8   3   19.73    2.61
  -7  -8   3   18.33    2.50
  -7  -8   2    1.31    1.76
  -7  -8   2    0.22    1.25
  -7  -8   1   18.05    2.33
  -7  -8   1   20.86    2.86
  -7  -8   0   -0.71    1.61
  -7  -8   0    0.45    1.48
  -7  -8  -1   22.63    2.63
  -7  -8  -1   21.23    2.26
  -7  -8  -2    2.80    1.42
  -7  -8  -2    3.89    1.85
  -7  -8  -3   16.44    2.43
  -7  -8  -4   16.63    2.45
   7   8   5   -1.05    1.83
  -7  -8  -5    2.96    1.82
   7   8   6    5.28    2.04
  -7  -8  -6    1.90    1.75
   7   8   7    1.90    1.86
  -7  -8  -7    0.70    1.56
   7   8   8    3.01    1.70
  -7  -8  -8    3.24    1.82
   7   8   9    0.82    1.94
  -7  -8  -9    2.67    1.81
   7   8  10    4.63    2.17
  -7  -8 -10    6.30    2.16
  -7  -8 -11   -2.77    1.60
  -7  -8 -12    1.48    1.82
  -6  -9  12    3.12    2.49
  -6  -9  11    8.79    2.73
  -6  -9  11    1.58    2.33
  -6  -9  10    9.96    3.03
  -6  -9  10   12.00    2.66
  -6  -9   9    4.97    2.33
  -6  -9   9    3.24    2.30
  -6  -9   8   -0.52    1.86
  -6  -9   8    1.26    2.20
  -6  -9   7    9.62    2.40
  -6  -9   7    9.63    2.17
  -6  -9   6   -2.19    1.70
  -6  -9   6    1.68    2.19
  -6  -9   5    7.05    2.13
  -6  -9   5    9.37    2.15
  -6  -9   4   10.54    2.59
  -6  -9   4    9.72    2.13
  -6  -9   3    9.93    2.22
  -6  -9   3    8.49    2.23
  -6  -9   2   27.08    3.10
  -6  -9   2   11.46    1.79
  -6  -9   1   16.89    2.26
  -6  -9   1   17.75    2.55
  -6  -9   0   31.61    3.08
  -6  -9   0   34.01    2.71
  -6  -9  -1   14.87    1.91
  -6  -9  -1   15.96    2.66
  -6  -9  -2   27.36    2.22
  -6  -9  -2   30.27    3.05
  -6  -9  -3    7.27    2.05
   6   9   4   11.05    2.20
  -6  -9  -4   14.86    2.35
   6   9   5   11.66    2.42
  -6  -9  -5    7.57    2.09
   6   9   6    2.90    2.02
  -6  -9  -6    0.55    1.86
   6   9   7    8.82    2.34
  -6  -9  -7    8.67    2.15
   6   9   8    2.64    1.77
  -6  -9  -8    0.54    1.68
   6   9   9    1.08    1.74
  -6  -9  -9    1.20    2.08
   6   9  10    8.26    2.36
  -6  -9 -10    6.54    2.14
   6   9  11    1.77    2.20
  -6  -9 -11    6.32    2.51
  -6  -9 -12    1.70    1.95
  -5 -10  12   -1.21    2.29
  -5 -10  11   12.83    2.81
  -5 -10  11    4.46    2.55
  -5 -10  10    3.90    2.30
  -5 -10  10    1.83    2.34
  -5 -10   9   14.08    2.83
  -5 -10   9   12.90    2.45
  -5 -10   8    4.52    2.23
  -5 -10   8    1.78    2.25
  -5 -10   7    0.15    1.84
  -5 -10   7    0.29    1.83
  -5 -10   6    7.64    2.14
  -5 -10   6    4.87    2.10
  -5 -10   5   16.43    2.45
  -5 -10   5   11.38    2.38
  -5 -10   4    1.53    1.98
  -5 -10   4   -1.39    1.55
  -5 -10   3   44.17    3.86
  -5 -10   3   44.59    3.25
  -5 -10   2    0.77    1.63
  -5 -10   2   -2.57    1.81
  -5 -10   1   11.08    1.89
  -5 -10   1    8.49    2.23
  -5 -10   0   42.00    2.72
  -5 -10   0   42.23    3.53
  -5 -10  -1    7.93    2.20
  -5 -10  -1   10.47    1.67
  -5 -10  -2   -1.77    1.68
  -5 -10  -3   41.23    3.49
   5  10   4    0.49    1.75
  -5 -10  -4   -0.30    1.69
   5  10   5   12.67    2.34
  -5 -10  -5   12.06    2.31
   5  10   6    6.89    2.26
  -5 -10  -6    7.82    2.32
   5  10   7    2.47    1.85
  -5 -10  -7    0.37    1.67
   5  10   8    3.07    2.16
  -5 -10  -8    4.38    1.95
   5  10   9   13.45    2.43
  -5 -10  -9   15.58    2.59
   5  10  10   -0.83    1.76
  -5 -10 -10   -0.16    2.10
   5  10  11    7.69    2.55
  -5 -10 -11    8.02    2.32
   5  10  12    3.32    2.11
  -5 -10 -12    1.10    1.92
  -4 -11  12    4.39    2.62
  -4 -11  12    1.17    2.56
  -4 -11  11    0.93    2.48
  -4 -11  11    1.78    2.32
  -4 -11  10    5.44    2.78
  -4 -11  10    6.34    2.35
  -4 -11   9    2.08    2.01
  -4 -11   9    3.40    2.24
  -4 -11   8    3.56    2.08
  -4 -11   8    7.53    2.33
  -4 -11   7    5.26    2.07
  -4 -11   7    4.10    2.05
  -4 -11   6    1.11    1.94
  -4 -11   6    0.72    1.80
  -4 -11   5    1.39    1.94
  -4 -11   5   -0.29    1.66
  -4 -11   4   40.02    3.54
  -4 -11   4   43.61    3.15
  -4 -11   3   15.28    2.83
  -4 -11   2    2.64    2.30
  -4 -11   2    0.63    1.56
  -4 -11   1    1.80    1.47
  -4 -11   1    1.38    1.98
  -4 -11   0   31.04    2.48
  -4 -11   0   28.85    3.08
  -4 -11  -1    7.61    1.55
  -4 -11  -1    8.31    2.23
  -4 -11  -2    2.89    1.95
   4  11   3    7.67    2.20
  -4 -11  -3   10.57    2.29
   4  11   4   51.31    3.96
  -4 -11  -4   43.05    3.70
   4  11   5   -0.42    1.72
  -4 -11  -5   -0.46    1.65
   4  11   6   -1.64    1.96
  -4 -11  -6   -0.92    1.65
   4  11   7    3.92    1.96
  -4 -11  -7    3.20    1.81
   4  11   8    7.92    2.17
  -4 -11  -8    6.89    2.46
   4  11   9    5.70    2.48
  -4 -11  -9    1.40    1.77
   4  11  10    2.78    2.45
  -4 -11 -10    8.69    2.37
   4  11  11    3.48    2.53
  -4 -11 -11    3.63    2.14
   4  11  12    1.73    2.10
  -4 -11 -12    4.22    2.51
  -3 -12  11    3.57    2.28
  -3 -12  11    3.20    2.31
  -3 -12  10    1.15    2.16
  -3 -12  10    4.35    2.30
  -3 -12   9    2.88    2.15
  -3 -12   9    2.13    2.13
  -3 -12   8    1.30    2.27
  -3 -12   8   -2.35    2.22
  -3 -12   7   -2.44    2.24
  -3 -12   7    0.77    2.14
  -3 -12   6    8.33    2.30
  -3 -12   6   13.39    2.60
  -3 -12   5    9.86    2.42
  -3 -12   5    6.01    1.93
  -3 -12   4   21.56    2.66
  -3 -12   4   19.74    2.85
  -3 -12   3    2.85    2.19
  -3 -12   3    0.54    0.60
  -3 -12   2    7.25    2.33
  -3 -12   2    4.62    1.72
  -3 -12   1    3.44    2.13
  -3 -12   1    2.75    1.49
  -3 -12   0    1.76    2.07
  -3 -12   0   -0.25    1.40
  -3 -12  -1    1.15    1.96
  -3 -12  -2    3.78    2.14
   3  12   3    2.43    2.00
  -3 -12  -3    2.53    1.96
   3  12   4   17.18    2.58
  -3 -12  -4   16.15    2.62
   3  12   5    5.24    2.10
  -3 -12  -5   10.99    2.35
   3  12   6    5.84    2.10
  -3 -12  -6    7.61    2.17
   3  12   7    3.03    1.94
  -3 -12  -7    1.58    2.09
   3  12   8   -1.16    1.78
  -3 -12  -8   -4.07    1.88
   3  12   9    5.58    2.44
  -3 -12  -9    1.88    2.09
   3  12  10    0.91    2.05
  -3 -12 -10    0.24    1.84
   3  12  11   -1.66    2.01
  -3 -12 -11    1.79    1.91
  -2 -13  11    1.63    2.14
  -2 -13  11   -4.01    2.46
  -2 -13  10    2.41    2.53
  -2 -13  10    2.93    2.22
  -2 -13   9    3.52    2.64
  -2 -13   8    0.59    2.08
  -2 -13   7   10.71    2.77
  -2 -13   6    9.82    2.47
  -2 -13   5    2.34    1.65
  -2 -13   5    0.87    2.09
  -2 -13   4    7.54    1.83
  -2 -13   4    8.99    2.71
  -2 -13   3    1.25    2.02
  -2 -13   3    2.41    1.32
  -2 -13   2   10.80    1.92
  -2 -13   2   11.55    2.49
  -2 -13   1   14.74    2.07
  -2 -13   1   14.80    2.75
  -2 -13   0    0.89    1.32
  -2 -13   0    1.67    2.13
  -2 -13  -1   13.92    2.63
   2  13   2   11.12    2.47
  -2 -13  -2   16.41    2.71
   2  13   3    0.89    1.91
  -2 -13  -3    1.52    1.97
   2  13   4   11.56    2.40
  -2 -13  -4    7.65    2.27
   2  13   5   -1.40    2.14
  -2 -13  -5    1.97    1.92
   2  13   6   14.12    2.51
  -2 -13  -6   15.15    2.60
   2  13   7   14.28    2.83
  -2 -13  -7    9.03    2.33
   2  13   8   -2.39    1.78
  -2 -13  -8    0.39    1.73
   2  13   9    2.34    2.12
  -2 -13  -9    0.09    1.83
   2  13  10    1.38    2.13
  -2 -13 -10    1.75    1.91
   2  13  11    0.52    2.14
  -2 -13 -11    0.53    1.85
  -1 -14  11   -0.14    2.32
  -1 -14  10   -4.19    1.98
  -1 -14   9    6.11    2.82
  -1 -14   8    5.90    2.76
  -1 -14   7    7.87    2.43
  -1 -14   6   -2.01    2.27
  -1 -14   5   -1.73    1.90
  -1 -14   4    2.18    2.18
  -1 -14   3    0.72    2.42
  -1 -14   2    1.21    1.58
  -1 -14   2    1.58    2.11
  -1 -14   1   25.98    3.20
  -1 -14   1   31.31    2.37
  -1 -14   0   27.89    3.27
  -1 -14  -1   30.11    3.34
   1  14   2    0.74    1.83
  -1 -14  -2    2.62    2.36
   1  14   3    3.62    2.08
  -1 -14  -3    1.20    1.97
   1  14   4    3.47    2.04
  -1 -14  -4    2.03    1.95
   1  14   5    0.37    1.91
  -1 -14  -5    0.07    1.72
   1  14   6   -0.10    1.88
  -1 -14  -6    1.97    1.89
   1  14   7   10.87    2.49
  -1 -14  -7    9.92    2.37
   1  14   8    7.84    2.41
  -1 -14  -8    5.37    2.08
   1  14   9    4.70    2.32
  -1 -14  -9    5.08    2.44
   1  14  10    0.95    2.19
  -1 -14 -10    0.96    1.77
   1  14  11   -2.04    2.03
  -1 -14 -11    1.66    1.96
   0 -15  10    2.39    2.80
   0 -15   9    1.82    2.32
   0 -15   8   20.56    3.14
   0 -15   7   -0.09    2.42
   0 -15   6    0.00    2.39
   0 -15   5    0.02    2.00
   0 -15   4    7.03    2.40
   0 -15   3   -1.11    1.94
   0 -15   2    1.34    2.12
   0 -15   1   -3.11    1.88
   0 -15   0   92.29    5.16
   0 -15  -1   -1.45    2.02
   0  15   2    1.68    1.86
   0 -15  -2   -0.52    1.93
   0  15   3   -1.80    1.73
   0 -15  -3    0.37    2.04
   0  15   4    6.52    2.22
   0 -15  -4    5.67    2.47
   0  15   5    1.50    1.92
   0 -15  -5   -3.53    1.58
   0  15   6    1.44    1.95
   0 -15  -6   -0.60    1.76
   0  15   7    0.49    1.98
   0 -15  -7    0.93    1.87
   0  15   8   21.53    3.06
   0 -15  -8   15.84    2.79
   0  15   9   -3.37    2.42
   0 -15  -9    0.47    2.14
   0  15  10    4.32    2.40
   0 -15 -10    0.67    1.88
   1 -16  10    3.07    2.53
   1 -16   9    0.47    2.33
   1 -16   8    3.54    2.79
   1 -16   7   10.50    2.70
   1 -16   6   -0.94    2.06
   1 -16   5   -1.90    1.95
   1 -16   4   -2.31    1.98
   1 -16   3    1.81    2.14
   1 -16   2    2.65    2.18
   1 -16   1   10.86    2.63
   1 -16   0    3.92    2.21
  -1  16   1    8.76    2.36
   1 -16  -1   11.98    2.65
  -1  16   2    1.21    1.94
   1 -16  -2   -1.38    1.94
  -1  16   3    1.62    1.90
   1 -16  -3    2.36    2.05
  -1  16   4   -0.32    1.91
   1 -16  -4    0.34    2.35
  -1  16   5    1.50    2.02
   1 -16  -5   -0.56    1.84
  -1  16   6   -0.91    1.92
   1 -16  -6    2.47    2.03
  -1  16   7    7.44    2.41
   1 -16  -7   11.34    2.61
  -1  16   8    4.70    2.42
   1 -16  -8    6.83    2.69
  -1  16   9   -1.07    2.14
   1 -16  -9    2.65    1.97
  -1  16  10   -0.89    2.19
   1 -16 -10    1.01    2.28
   2 -17   9    1.29    2.47
   2 -17   8   -0.13    2.23
   2 -17   7    3.44    2.40
   2 -17   6    4.43    2.40
   2 -17   5    2.84    2.24
   2 -17   4    1.30    2.14
   2 -17   3    3.83    2.38
   2 -17   2    1.55    2.10
   2 -17   1   -1.91    1.99
   2 -17   0   -2.03    1.97
  -2  17   1    3.15    2.05
   2 -17  -1   -1.70    1.98
  -2  17   2   -0.62    1.87
   2 -17  -2    0.08    1.96
  -2  17   3    3.39    2.15
   2 -17  -3    3.98    2.14
  -2  17   4    2.84    2.09
   2 -17  -4    2.48    2.10
  -2  17   5    0.74    2.02
   2 -17  -5    3.86    2.11
  -2  17   6    7.47    2.38
   2 -17  -6   12.13    2.87
  -2  17   7    2.05    2.16
   2 -17  -7    7.48    2.30
  -2  17   8    2.89    2.70
   2 -17  -8    1.62    1.90
  -2  17   9    1.05    2.34
   2 -17  -9    3.21    2.33
   3 -18   9    0.48    2.45
   3 -18   8    0.75    2.35
   3 -18   7    0.06    2.27
   3 -18   6    0.46    2.21
   3 -18   5    3.26    2.37
   3 -18   4    2.48    2.25
   3 -18   3    0.06    2.18
   3 -18   2    0.56    2.50
   3 -18   1    1.59    2.18
   3 -18   0   -1.07    2.04
  -3  18   1    3.78    2.16
   3 -18  -1    1.60    2.24
  -3  18   2    3.12    2.14
   3 -18  -2    0.93    2.15
  -3  18   3    4.47    2.25
   3 -18  -3    1.68    2.47
  -3  18   4   10.22    2.55
   3 -18  -4    9.27    2.87
  -3  18   5    4.57    2.28
   3 -18  -5    4.58    2.17
  -3  18   6    2.08    2.13
   3 -18  -6    3.55    2.20
  -3  18   7    1.69    2.20
   3 -18  -7    1.06    1.93
  -3  18   8    2.03    2.26
   3 -18  -8    3.70    2.43
   3 -18  -9    3.82    2.13
   4 -19   8    2.98    2.47
   4 -19   7    1.05    2.31
   4 -19   6    2.01    2.31
   4 -19   5    0.69    2.24
   4 -19   4   11.45    2.77
   4 -19   3    4.62    2.48
   4 -19   2    2.93    2.86
   4 -19   1    2.23    2.71
   4 -19   0    0.51    2.22
  -4  19   1    5.40    2.35
   4 -19  -1    4.63    2.47
  -4  19   2    3.12    2.21
   4 -19  -2    7.59    2.56
  -4  19   3    4.77    2.36
   4 -19  -3    3.98    2.30
  -4  19   4   10.31    2.68
   4 -19  -4   12.97    2.74
  -4  19   5   -0.14    2.03
   4 -19  -5    2.88    2.17
  -4  19   6    5.94    2.41
   4 -19  -6   -1.05    2.25
  -4  19   7   -2.80    2.03
   4 -19  -7    4.07    2.20
  -4  19   8    2.51    2.37
   4 -19  -8    3.29    2.52
   5 -20   7   -4.64    2.22
   5 -20   6    1.56    2.48
   5 -20   5    3.93    2.48
   5 -20   4   -2.50    2.59
   5 -20   3    8.39    2.78
   5 -20   2    2.16    2.42
   5 -20   1    2.97    2.44
   5 -20   0    5.53    2.58
  -5  20   1   -0.57    2.04
   5 -20  -1    3.00    2.36
  -5  20   2   -0.38    2.11
   5 -20  -2   -0.97    2.08
  -5  20   3    7.50    2.51
   5 -20  -3    5.28    2.46
  -5  20   4   -1.94    2.08
   5 -20  -4   -0.74    2.04
  -5  20   5    1.99    2.17
   5 -20  -5    4.78    2.63
  -5  20   6    3.58    2.39
   5 -20  -6    4.40    2.66
  -5  20   7    0.73    2.27
   5 -20  -7    4.07    2.55
   6 -21   5    0.70    2.31
   6 -21   4    3.88    2.54
   6 -21   3    2.58    2.47
   6 -21   2   -2.74    2.24
   6 -21   1    4.90    2.64
   6 -21   0    0.61    2.31
  -6  21   1   -0.11    2.09
   6 -21  -1    2.06    2.42
  -6  21   2   -0.33    2.14
   6 -21  -2   -2.54    2.09
  -6  21   3    0.82    2.18
   6 -21  -3   -0.34    2.22
  -6  21   4    2.85    2.32
   6 -21  -4    5.58    2.52
  -6  21   5   -1.21    2.17
   6 -21  -5    2.12    2.34
   7 -22   3   -1.54    2.42
   7 -22   2   -1.95    2.32
   7 -22   1   -1.22    2.29
   7 -22   0   -1.86    2.31
  -7  22   1   -1.24    2.14
   7 -22  -1    0.72    2.38
  -7  22   2   -1.18    2.12
   7 -22  -2    0.03    2.32
  -7  22   3   -1.16    2.16
   7 -22  -3    1.02    2.73
 -22   6   2    0.93    2.27
 -22   6   1    4.26    2.55
 -22   6   0    1.10    2.33
 -22   6  -1    1.39    2.36
 -22   6  -2    1.80    2.35
 -21   5   5    0.26    2.41
 -21   5   4    3.87    2.45
 -21   5   3    3.40    2.52
 -21   5   2    1.05    2.27
 -21   5   1    1.46    2.33
 -21   5   0    3.37    2.45
 -21   5  -1    0.33    2.66
 -21   5  -2    2.14    2.37
 -21   5  -3    3.06    2.33
 -21   5  -3    1.23    1.84
 -21   5  -4    0.74    2.10
 -21   5  -4    1.83    1.68
 -21   5  -5    0.41    2.13
 -21   5  -5    1.94    2.17
 -20   4   6   -2.84    2.20
 -20   4   5    1.63    2.39
 -20   4   4    1.12    2.31
 -20   4   3    1.84    2.37
 -20   4   2    1.17    2.23
 -20   4   1   -0.37    2.20
 -20   4   0    5.35    2.45
 -20   4  -1    1.89    2.28
 -20   4  -2    2.71    2.71
 -20   4  -2    3.51    1.61
 -20   4  -3    1.10    1.54
 -20   4  -3    3.12    2.26
 -20   4  -4   -0.46    1.74
 -20   4  -4    2.66    2.58
 -20   4  -5    0.02    2.34
 -20   4  -5    1.25    2.00
 -20   4  -6    2.57    2.64
 -20   4  -6   -0.06    1.95
 -19   3   7   -1.25    2.30
 -19   3   6   -0.81    2.16
 -19   3   5    2.25    2.38
 -19   3   4   -0.19    2.20
 -19   3   3    7.55    2.67
 -19   3   2   -0.08    2.16
 -19   3   1    0.52    2.14
 -19   3   0    2.05    2.29
 -19   3  -1    1.08    1.45
 -19   3  -1    2.23    2.20
 -19   3  -2    2.59    2.53
 -19   3  -2    0.59    1.63
 -19   3  -3    6.14    1.82
 -19   3  -3   10.62    2.68
 -19   3  -4    0.41    1.52
 -19   3  -4   -0.28    1.97
 -19   3  -5   -0.85    1.48
 -19   3  -5    2.93    2.46
 -19   3  -6   -1.03    1.82
 -19   3  -6    0.49    2.37
 -19   3  -7   -0.42    1.92
 -19   3  -7    1.54    2.01
 -18   2   8    1.14    2.43
 -18   2   7    1.03    2.39
 -18   2   6    3.24    2.47
 -18   2   5   -2.59    2.59
 -18   2   4    5.40    2.55
 -18   2   3   10.28    3.08
 -18   2   2   -0.29    2.17
 -18   2   1    1.33    2.12
 -18   2   0   -2.82    1.88
 -18   2   0   -1.78    1.37
 -18   2  -1    1.31    2.11
 -18   2  -1    0.23    1.52
 -18   2  -2    0.12    1.94
 -18   2  -2    1.58    1.65
 -18   2  -3    7.65    1.90
 -18   2  -3    7.00    2.62
 -18   2  -4    6.30    2.24
 -18   2  -4    2.64    1.92
 -18   2  -5    0.99    1.57
 -18   2  -5   -0.04    1.79
 -18   2  -6    1.80    1.72
 -18   2  -6    4.59    2.42
 -18   2  -7    2.03    2.22
 -18   2  -7   -0.66    1.57
 -18   2  -8   -0.75    1.95
 -18   2  -8    1.17    1.82
 -17   1   9   -0.12    2.46
 -17   1   8    0.78    2.27
 -17   1   7   -1.78    2.13
 -17   1   6    2.93    2.41
 -17   1   5   -1.31    2.07
 -17   1   4    6.69    2.47
 -17   1   3    1.13    2.19
 -17   1   2    0.92    2.12
 -17   1   1    2.61    2.12
 -17   1   1   -0.54    1.49
 -17   1   0   -0.68    2.29
 -17   1   0    1.43    1.42
 -17   1  -1   -0.02    1.95
 -17   1  -1    0.37    1.32
 -17   1  -2    1.32    2.32
 -17   1  -2   -2.43    1.42
 -17   1  -3    6.53    2.52
 -17   1  -3    0.18    1.67
 -17   1  -4    5.68    1.86
 -17   1  -4    9.90    2.40
 -17   1  -5    2.05    2.11
 -17   1  -5    0.81    1.58
 -17   1  -6   12.53    2.70
 -17   1  -6    5.41    2.28
 -17   1  -7    2.89    1.81
 -17   1  -7    1.95    1.70
 -17   1  -8   -0.96    1.95
 -17   1  -9   -1.77    1.61
 -16   0   9    0.88    2.39
 -16   0   8    0.32    2.37
 -16   0   7    7.95    2.68
 -16   0   6    1.05    2.27
 -16   0   5   -2.18    1.98
 -16   0   4    1.83    2.17
 -16   0   3    0.30    2.38
 -16   0   2    0.75    2.35
 -16   0   2    0.40    1.39
 -16   0   1    2.20    2.13
 -16   0   1    6.87    1.68
 -16   0   0    3.12    1.55
 -16   0   0    2.70    2.07
 -16   0  -1    2.71    2.01
 -16   0  -1    6.13    1.82
 -16   0  -2    1.31    1.39
 -16   0  -2   -0.71    1.73
 -16   0  -3    1.60    1.69
 -16   0  -3    3.00    2.17
 -16   0  -4    4.15    1.93
 -16   0  -4    4.72    1.97
 -16   0  -5    0.25    1.92
 -16   0  -5   -0.73    1.43
 -16   0  -6    0.80    0.65
 -16   0  -6    2.23    1.68
 -16   0  -7   11.57    2.31
 -16   0  -7   11.05    2.48
 -16   0  -8   -0.13    1.61
 -16   0  -9    1.83    1.73
 -15  -1  10   -2.11    2.36
 -15  -1   9    0.39    2.30
 -15  -1   8    2.88    2.49
 -15  -1   7    7.74    2.69
 -15  -1   6    2.39    2.24
 -15  -1   5   -2.60    1.95
 -15  -1   4    3.07    2.53
 -15  -1   3   -0.43    1.95
 -15  -1   3    3.50    1.35
 -15  -1   2    1.51    2.02
 -15  -1   2   -0.71    1.26
 -15  -1   1   13.66    2.56
 -15  -1   1    8.80    1.80
 -15  -1   0    5.30    2.13
 -15  -1   0    6.22    1.71
 -15  -1  -1   11.83    2.09
 -15  -1  -1    8.81    2.28
 -15  -1  -2   -0.92    1.55
 -15  -1  -2    4.83    2.30
 -15  -1  -3    1.67    1.68
 -15  -1  -3    0.45    1.64
 -15  -1  -4   -0.11    0.97
 -15  -1  -4    2.30    1.57
 -15  -1  -5   -1.93    1.35
 -15  -1  -5   -0.05    1.71
 -15  -1  -6    1.63    1.88
 -15  -1  -6   -0.58    1.87
 -15  -1  -7    6.62    2.02
 -15  -1  -8    5.03    1.95
 -15  -1  -9   -0.76    1.71
 -15  -1 -10   -1.43    1.89
 -14  -2  10    0.15    2.40
 -14  -2   9   -0.30    2.38
 -14  -2   8    3.79    2.57
 -14  -2   7   -0.28    2.19
 -14  -2   6    1.74    2.21
 -14  -2   5    0.10    2.04
 -14  -2   4    3.57    2.13
 -14  -2   3    2.49    2.01
 -14  -2   3   -0.87    1.21
 -14  -2   2    1.43    1.38
 -14  -2   2    1.92    1.96
 -14  -2   1    0.38    1.43
 -14  -2   1    5.97    2.46
 -14  -2   0   16.73    2.23
 -14  -2   0   13.69    2.58
 -14  -2  -1    3.83    2.22
 -14  -2  -1    1.51    1.62
 -14  -2  -2   -2.71    1.84
 -14  -2  -2   -0.99    1.22
 -14  -2  -3    1.13    0.39
 -14  -2  -3    2.33    1.54
 -14  -2  -4    1.75    1.82
 -14  -2  -4   -0.20    1.69
 -14  -2  -5    0.61    1.58
 -14  -2  -5   -0.18    1.65
 -14  -2  -6    4.08    1.82
 -14  -2  -6    2.14    1.74
 -14  -2  -7    1.82    1.72
 -14  -2  -8    3.94    1.87
 -14  -2  -9    1.91    1.89
 -14  -2 -10    0.10    1.73
 -13  -3  11    1.99    2.56
 -13  -3  10    2.45    2.49
 -13  -3   9   -1.09    2.25
 -13  -3   8    3.56    2.50
 -13  -3   7    0.22    2.14
 -13  -3   6    4.95    2.31
 -13  -3   5    1.47    2.01
 -13  -3   4   -0.59    1.93
 -13  -3   4    0.52    1.42
 -13  -3   3   10.12    2.64
 -13  -3   3    7.94    1.78
 -13  -3   2    2.86    1.57
 -13  -3   2    6.68    2.22
 -13  -3   1    3.77    1.65
 -13  -3   1    1.22    2.25
 -13  -3   0    3.28    1.56
 -13  -3   0    6.34    2.34
 -13  -3  -1    2.71    1.72
 -13  -3  -1    4.70    2.19
 -13  -3  -2    0.56    0.55
 -13  -3  -2    3.91    1.57
 -13  -3  -3    7.38    1.85
 -13  -3  -3    8.38    2.13
 -13  -3  -4    0.83    1.70
 -13  -3  -4    1.09    1.52
 -13  -3  -5   -0.33    1.48
 -13  -3  -5   -1.25    1.66
 -13  -3  -6    2.79    1.71
 -13  -3  -7    1.32    1.61
 -13  -3  -8    3.35    1.88
 -13  -3  -9   -1.46    1.55
 -13  -3 -10    2.37    1.89
 -13  -3 -11    1.19    1.94
 -12  -4  11    4.15    3.23
 -12  -4  10   -1.55    2.27
 -12  -4   9    3.99    2.59
 -12  -4   8    0.29    2.21
 -12  -4   7    4.09    2.32
 -12  -4   6   -1.86    1.95
 -12  -4   5    4.63    1.64
 -12  -4   5    3.28    2.09
 -12  -4   4   -1.27    1.83
 -12  -4   4    2.70    1.53
 -12  -4   3   14.66    2.56
 -12  -4   3   11.41    2.03
 -12  -4   2    7.18    2.44
 -12  -4   2    6.31    1.79
 -12  -4   1    2.84    1.76
 -12  -4   1    2.39    2.29
 -12  -4   0    1.05    1.80
 -12  -4   0    2.19    1.48
 -12  -4  -1   -0.39    0.53
 -12  -4  -1    2.46    1.53
 -12  -4  -2    4.40    1.97
 -12  -4  -2    5.95    1.74
 -12  -4  -3   16.23    2.33
 -12  -4  -3   13.39    2.18
 -12  -4  -4   -0.87    1.39
 -12  -4  -4    1.41    1.73
 -12  -4  -5    2.94    1.64
 -12  -4  -5    6.24    1.67
 -12  -4  -6    0.96    1.53
 -12  -4  -7    0.52    1.64
 -12  -4  -8    2.16    1.77
 -12  -4  -9    2.66    1.86
 -12  -4 -10    1.17    1.78
 -12  -4 -11    6.71    2.21
 -11  -5  11    0.70    2.48
 -11  -5  10    6.20    2.68
 -11  -5   9    4.98    2.52
 -11  -5   8    0.41    2.24
 -11  -5   7    1.55    2.16
 -11  -5   6    2.00    1.69
 -11  -5   6   -0.12    1.98
 -11  -5   5    4.79    1.80
 -11  -5   5    1.13    2.08
 -11  -5   4   11.30    2.75
 -11  -5   4   14.83    2.28
 -11  -5   3    5.47    2.11
 -11  -5   3    5.60    1.89
 -11  -5   2   11.32    2.28
 -11  -5   2    8.94    1.87
 -11  -5   1   -1.47    1.68
 -11  -5   1    4.15    1.86
 -11  -5   0   -0.75    1.73
 -11  -5   0    0.36    0.93
 -11  -5  -1   -0.11    1.49
 -11  -5  -1    0.70    1.87
 -11  -5  -2    5.91    1.77
 -11  -5  -2    7.70    2.01
 -11  -5  -3    9.17    1.98
 -11  -5  -3    8.85    2.00
 -11  -5  -4   11.69    2.40
 -11  -5  -4   15.11    2.15
 -11  -5  -5    4.51    2.01
 -11  -5  -6    2.59    1.65
 -11  -5  -7   -0.84    1.50
 -11  -5  -8    1.28    1.72
 -11  -5  -9    3.06    1.89
 -11  -5 -10    7.45    2.19
 -11  -5 -11    1.96    1.88
 -10  -6  11    2.90    2.54
 -10  -6  10    6.73    2.68
 -10  -6   9    4.20    2.47
 -10  -6   8   -1.77    2.04
 -10  -6   7    9.12    2.56
 -10  -6   7    7.52    2.10
 -10  -6   6    3.91    2.19
 -10  -6   6    3.72    1.93
 -10  -6   5    6.62    2.22
 -10  -6   5    6.03    2.04
 -10  -6   4    4.22    2.37
 -10  -6   4    7.74    2.15
 -10  -6   3   13.59    2.43
 -10  -6   3   18.30    2.50
 -10  -6   2   18.71    2.40
 -10  -6   2   19.49    2.84
 -10  -6   1   13.47    2.34
 -10  -6   1   10.45    2.05
 -10  -6   0    0.22    1.88
 -10  -6   0    0.61    1.92
 -10  -6  -1   10.37    2.01
 -10  -6  -1   13.50    2.26
 -10  -6  -2   23.52    2.61
 -10  -6  -2   17.36    2.41
 -10  -6  -3   13.88    2.27
 -10  -6  -3   20.79    2.33
 -10  -6  -4    4.22    1.75
 -10  -6  -5    3.14    1.75
 -10  -6  -6    4.20    2.00
 -10  -6  -7    8.09    2.09
 -10  -6  -8    0.11    1.61
 -10  -6  -9    2.47    1.97
 -10  -6 -10    5.77    2.14
 -10  -6 -11   -0.06    1.78
  -9  -7  11    1.32    2.38
  -9  -7  10    1.04    2.39
  -9  -7   9    0.15    2.30
  -9  -7   8    0.38    1.94
  -9  -7   8   -0.83    2.03
  -9  -7   7    3.40    1.95
  -9  -7   7    2.39    2.18
  -9  -7   6    9.00    2.43
  -9  -7   6   13.21    2.40
  -9  -7   5    7.78    2.23
  -9  -7   5    6.61    1.92
  -9  -7   4    1.16    1.72
  -9  -7   4    3.30    1.99
  -9  -7   3   13.79    2.55
  -9  -7   3   13.54    2.65
  -9  -7   2    3.70    2.11
  -9  -7   2    5.87    1.92
  -9  -7   1    1.05    1.27
  -9  -7   1    6.48    1.93
  -9  -7   0    6.79    1.99
  -9  -7   0    8.48    2.09
  -9  -7  -1   13.72    2.10
  -9  -7  -1    8.54    2.10
  -9  -7  -2    3.66    1.75
  -9  -7  -2    2.72    1.74
  -9  -7  -3   14.68    1.95
  -9  -7  -3    8.64    2.09
  -9  -7  -4    1.56    1.92
  -9  -7  -5    4.10    1.78
  -9  -7  -6    7.73    2.03
   9   7   7    4.97    1.89
  -9  -7  -7    2.27    1.74
   9   7   8    0.40    1.84
  -9  -7  -8    1.65    1.70
  -9  -7  -9    0.83    1.75
  -9  -7 -10    1.57    1.86
  -9  -7 -11   -1.36    1.74
  -8  -8  11    0.60    2.39
  -8  -8  10   -1.25    2.53
  -8  -8   9   -0.35    2.11
  -8  -8   9    2.83    2.37
  -8  -8   8    0.94    2.09
  -8  -8   8   -0.79    2.00
  -8  -8   7    4.25    1.82
  -8  -8   7    2.75    2.09
  -8  -8   6   11.88    2.81
  -8  -8   6   10.35    2.15
  -8  -8   5    9.73    2.37
  -8  -8   5    9.46    2.33
  -8  -8   4    5.29    1.98
  -8  -8   4    9.16    2.23
  -8  -8   3    8.81    2.09
  -8  -8   3    7.07    2.07
  -8  -8   2    6.47    2.08
  -8  -8   2    7.10    1.86
  -8  -8   1    6.03    1.98
  -8  -8   1    4.13    1.87
  -8  -8   0   19.68    2.60
  -8  -8   0   17.08    2.44
  -8  -8  -1    4.53    1.92
  -8  -8  -1    4.58    1.86
  -8  -8  -2    3.76    1.96
  -8  -8  -2    3.80    1.64
  -8  -8  -3    8.13    2.03
  -8  -8  -4   10.10    2.41
  -8  -8  -5    9.00    2.31
   8   8   6   10.35    1.98
  -8  -8  -6   10.37    2.27
   8   8   7    3.16    1.93
  -8  -8  -7    2.23    1.73
   8   8   8    1.77    1.60
  -8  -8  -8    1.15    1.76
   8   8   9    3.15    1.81
  -8  -8  -9    4.55    2.04
  -8  -8 -10   -0.43    1.78
  -8  -8 -11    1.92    1.89
  -7  -9  11    4.05    2.46
  -7  -9  10    1.06    2.27
  -7  -9  10    0.09    2.19
  -7  -9   9    3.66    2.33
  -7  -9   9    4.38    2.68
  -7  -9   8    0.96    2.43
  -7  -9   8    0.40    2.06
  -7  -9   7    2.22    2.00
  -7  -9   7    4.60    1.96
  -7  -9   6    9.99    2.65
  -7  -9   6    5.65    2.02
  -7  -9   5    3.49    2.24
  -7  -9   5    3.59    1.95
  -7  -9   4    1.22    1.85
  -7  -9   4   -1.12    1.98
  -7  -9   3   14.47    2.77
  -7  -9   3   11.78    2.17
  -7  -9   2    5.65    2.10
  -7  -9   2    0.84    1.28
  -7  -9   1    9.67    2.22
  -7  -9   1    9.31    2.25
  -7  -9   0   10.77    2.12
  -7  -9   0   11.37    2.55
  -7  -9  -1    9.48    2.14
  -7  -9  -1    7.74    1.66
  -7  -9  -2    4.45    1.97
  -7  -9  -3    9.76    2.24
  -7  -9  -4    0.33    1.69
   7   9   5    5.20    2.09
  -7  -9  -5    1.46    1.70
   7   9   6    6.95    1.93
  -7  -9  -6    8.98    2.18
   7   9   7    2.37    1.71
  -7  -9  -7    3.89    1.86
   7   9   8    3.66    2.12
  -7  -9  -8    2.40    1.81
   7   9   9    3.24    2.19
  -7  -9  -9    0.23    1.65
   7   9  10    3.72    2.30
  -7  -9 -10    5.71    2.09
  -7  -9 -11    0.00    1.82
  -6 -10  11   -0.47    2.32
  -6 -10  11   -0.90    2.17
  -6 -10  10   10.43    2.70
  -6 -10  10    6.28    2.85
  -6 -10   9    4.44    2.49
  -6 -10   9    3.59    2.27
  -6 -10   8   -1.16    2.13
  -6 -10   8    1.09    2.45
  -6 -10   7    9.25    2.41
  -6 -10   7    1.20    2.27
  -6 -10   6    2.11    1.89
  -6 -10   6    5.34    2.39
  -6 -10   5    3.80    1.86
  -6 -10   5    2.64    1.93
  -6 -10   4    2.40    1.75
  -6 -10   4    6.33    2.48
  -6 -10   3   15.43    2.58
  -6 -10   3   16.90    2.48
  -6 -10   2   16.75    2.96
  -6 -10   2   21.69    2.53
  -6 -10   1   11.84    2.09
  -6 -10   1   10.19    2.33
  -6 -10   0   -1.86    1.36
  -6 -10   0   -2.08    1.78
  -6 -10  -1    8.43    1.72
  -6 -10  -1    8.66    2.25
  -6 -10  -2   19.82    2.74
  -6 -10  -3   15.15    2.51
  -6 -10  -4    3.10    1.83
   6  10   5    3.60    1.90
  -6 -10  -5    1.77    1.78
   6  10   6    0.68    2.08
  -6 -10  -6    2.24    1.82
   6  10   7    7.66    2.31
  -6 -10  -7    4.24    2.25
   6  10   8    1.50    2.19
  -6 -10  -8   -0.02    1.73
   6  10   9    1.71    1.91
  -6 -10  -9    4.04    2.08
   6  10  10    8.17    2.26
  -6 -10 -10    6.82    2.30
   6  10  11    4.74    2.45
  -6 -10 -11    0.32    2.18
  -5 -11  11    1.50    2.45
  -5 -11  11    2.52    2.59
  -5 -11  10    8.03    2.60
  -5 -11  10    6.68    2.70
  -5 -11   9    6.21    2.55
  -5 -11   9   -1.02    2.03
  -5 -11   8    1.45    2.40
  -5 -11   8    0.32    1.98
  -5 -11   7   -1.07    1.90
  -5 -11   7   -2.03    2.08
  -5 -11   6    2.38    1.89
  -5 -11   6    0.24    2.26
  -5 -11   5    1.48    2.02
  -5 -11   5    4.53    1.90
  -5 -11   4   17.99    2.91
  -5 -11   4   10.13    2.34
  -5 -11   3    1.58    1.03
  -5 -11   3    7.69    2.26
  -5 -11   2    8.56    2.03
  -5 -11   2    5.09    2.16
  -5 -11   1    0.23    1.50
  -5 -11   1    3.45    2.09
  -5 -11   0    1.39    1.57
  -5 -11   0   -0.15    1.91
  -5 -11  -1    1.24    2.03
  -5 -11  -2    8.22    2.19
  -5 -11  -3    7.61    2.21
   5  11   4   13.80    2.45
  -5 -11  -4   12.40    2.38
   5  11   5    4.47    1.95
  -5 -11  -5    3.66    1.89
   5  11   6    0.13    1.73
  -5 -11  -6    1.42    1.68
   5  11   7   -3.91    1.59
  -5 -11  -7    0.59    1.73
   5  11   8    3.47    2.33
  -5 -11  -8   -1.29    1.98
   5  11   9    2.06    1.97
  -5 -11  -9    4.49    2.08
   5  11  10   10.66    2.48
  -5 -11 -10    7.93    2.33
   5  11  11   -0.48    1.89
  -5 -11 -11    1.18    1.91
  -4 -12  11    1.74    2.60
  -4 -12  11    6.59    2.68
  -4 -12  10    1.25    2.15
  -4 -12  10   -1.35    2.13
  -4 -12   9    4.44    2.64
  -4 -12   9    3.55    2.34
  -4 -12   8    1.78    2.10
  -4 -12   8    1.40    2.11
  -4 -12   7    3.45    2.35
  -4 -12   7    1.37    2.10
  -4 -12   6    1.85    2.39
  -4 -12   6    1.49    1.82
  -4 -12   5    5.48    2.17
  -4 -12   5    1.40    1.69
  -4 -12   4   -1.28    1.94
  -4 -12   4    1.27    1.54
  -4 -12   3    3.32    1.34
  -4 -12   3    8.84    2.39
  -4 -12   2    8.05    1.90
  -4 -12   2    9.40    2.43
  -4 -12   1    3.67    2.14
  -4 -12   1    3.92    1.61
  -4 -12   0    1.21    2.32
  -4 -12   0    2.10    1.50
  -4 -12  -1    4.16    2.16
  -4 -12  -2    4.30    2.10
  -4 -12  -3   12.32    2.46
   4  12   4    1.82    1.87
  -4 -12  -4    0.34    1.77
   4  12   5   10.26    2.26
  -4 -12  -5    3.47    2.24
   4  12   6    3.45    1.93
  -4 -12  -6    1.01    1.80
   4  12   7    8.44    2.54
  -4 -12  -7    1.24    1.76
   4  12   8    0.86    1.97
  -4 -12  -8    1.57    2.23
   4  12   9    0.20    2.30
  -4 -12  -9    3.48    2.05
   4  12  10    2.03    2.11
  -4 -12 -10    3.18    2.40
   4  12  11    3.49    2.23
  -4 -12 -11    4.83    2.26
  -3 -13  11    3.53    2.46
  -3 -13  11    4.71    2.51
  -3 -13  10    2.43    2.21
  -3 -13  10    0.50    2.19
  -3 -13   9   -1.94    1.91
  -3 -13   9    0.13    2.06
  -3 -13   8    3.22    2.23
  -3 -13   8    4.51    2.55
  -3 -13   7    3.59    2.03
  -3 -13   7   -0.02    2.02
  -3 -13   6    2.31    1.76
  -3 -13   6    0.79    2.08
  -3 -13   5    1.62    1.92
  -3 -13   5   -2.43    1.82
  -3 -13   4    0.61    1.46
  -3 -13   4   -1.46    2.34
  -3 -13   3    7.56    2.30
  -3 -13   3   11.63    2.13
  -3 -13   2    3.15    1.79
  -3 -13   2    3.86    2.46
  -3 -13   1    0.18    1.37
  -3 -13   1    5.85    2.30
  -3 -13   0    2.76    2.12
  -3 -13  -1   -0.85    1.87
  -3 -13  -2    4.03    2.12
   3  13   3   10.47    2.32
  -3 -13  -3    4.27    2.10
   3  13   4    1.47    1.89
  -3 -13  -4    1.75    2.11
   3  13   5    0.33    1.81
  -3 -13  -5    0.14    1.70
   3  13   6   -2.27    1.71
  -3 -13  -6    4.47    1.97
   3  13   7    0.11    1.88
  -3 -13  -7    0.87    1.80
   3  13   8   -0.77    1.91
  -3 -13  -8    5.29    2.14
   3  13   9    1.16    2.10
  -3 -13  -9    2.37    2.29
   3  13  10    0.09    2.48
  -3 -13 -10    2.38    2.06
   3  13  11    2.15    2.70
  -3 -13 -11   -0.94    2.22
  -2 -14  10    2.48    2.60
  -2 -14  10    1.47    2.34
  -2 -14   9    2.04    2.06
  -2 -14   9   -1.04    2.47
  -2 -14   8    4.11    2.69
  -2 -14   8    5.33    2.22
  -2 -14   7   -2.02    1.97
  -2 -14   7    3.05    2.26
  -2 -14   6    3.75    1.93
  -2 -14   6    0.92    2.12
  -2 -14   5    1.69    1.63
  -2 -14   5    1.10    2.09
  -2 -14   4    1.72    1.69
  -2 -14   4    1.29    2.03
  -2 -14   3    0.43    1.99
  -2 -14   3   -0.58    1.56
  -2 -14   2    1.63    1.51
  -2 -14   2   -0.23    1.94
  -2 -14   1    5.46    1.49
  -2 -14   1    1.33    2.02
  -2 -14   0   15.03    2.97
  -2 -14  -1    1.18    2.04
  -2 -14  -2   -0.49    1.95
   2  14   3    0.97    1.97
  -2 -14  -3    0.37    1.85
   2  14   4    1.12    1.93
  -2 -14  -4    3.47    2.03
   2  14   5   -1.84    1.76
  -2 -14  -5   -0.73    1.71
   2  14   6    3.97    2.16
  -2 -14  -6    0.24    2.20
   2  14   7    0.30    2.31
  -2 -14  -7    1.67    2.17
   2  14   8    3.80    2.20
  -2 -14  -8    4.31    2.09
   2  14   9    0.95    2.13
  -2 -14  -9    1.12    1.95
   2  14  10   -0.73    2.11
  -2 -14 -10    1.26    1.89
  -1 -15  10    2.79    2.46
  -1 -15   9   -3.42    2.54
  -1 -15   8    1.92    2.64
  -1 -15   7    5.58    2.44
  -1 -15   6   -0.82    2.03
  -1 -15   5   -0.79    2.54
  -1 -15   4    1.76    2.45
  -1 -15   3    3.39    1.67
  -1 -15   3    3.35    2.27
  -1 -15   2    1.56    1.63
  -1 -15   2    4.02    2.24
  -1 -15   1    9.99    2.50
  -1 -15   0    4.05    2.28
  -1 -15  -1   11.51    2.53
   1  15   2    1.68    1.88
  -1 -15  -2    1.97    2.03
   1  15   3    0.15    1.95
  -1 -15  -3    0.88    1.92
   1  15   4    1.25    1.89
  -1 -15  -4    1.03    1.91
   1  15   5   -1.26    1.82
  -1 -15  -5    0.55    1.82
   1  15   6    0.04    1.97
  -1 -15  -6   -1.91    1.69
   1  15   7    8.52    2.49
  -1 -15  -7    7.56    2.38
   1  15   8    7.00    2.44
  -1 -15  -8    1.75    1.98
   1  15   9    3.43    2.22
  -1 -15  -9    1.04    1.92
   1  15  10   -0.58    2.22
  -1 -15 -10    1.82    2.13
   0 -16   9    1.98    2.45
   0 -16   8    1.07    2.28
   0 -16   7    9.17    2.62
   0 -16   6    0.98    2.23
   0 -16   5    0.13    2.47
   0 -16   4    1.64    2.26
   0 -16   3   -0.65    2.10
   0 -16   2    0.44    2.41
   0 -16   1    4.82    2.20
   0 -16   0    1.92    2.15
   0 -16  -1    8.53    2.43
   0  16   2    1.50    1.98
   0 -16  -2    3.50    2.15
   0  16   3   -0.43    1.91
   0 -16  -3   -1.62    1.90
   0  16   4    4.48    2.10
   0 -16  -4    4.08    2.16
   0  16   5    1.64    2.02
   0 -16  -5   -1.99    1.81
   0  16   6    1.08    1.99
   0 -16  -6    0.01    1.99
   0  16   7   13.02    2.72
   0 -16  -7   12.91    2.68
   0  16   8   -0.02    2.03
   0 -16  -8   -0.49    1.90
   0  16   9   -1.25    2.14
   0 -16  -9   -2.49    2.04
   1 -17   9   -2.95    2.17
   1 -17   8   -1.85    2.62
   1 -17   7    5.78    2.53
   1 -17   6    1.73    2.67
   1 -17   5    4.14    2.31
   1 -17   4    4.56    2.78
   1 -17   3    6.52    2.47
   1 -17   2    1.92    2.27
   1 -17   1    1.47    2.51
   1 -17   0    2.05    2.25
   1 -17  -1    1.37    2.19
  -1  17   2    0.81    1.95
   1 -17  -2    1.18    2.00
  -1  17   3    0.50    2.01
   1 -17  -3    3.23    2.24
  -1  17   4    4.27    2.22
   1 -17  -4    6.38    2.71
  -1  17   5   -0.96    2.01
   1 -17  -5   -0.43    1.90
  -1  17   6    4.52    2.32
   1 -17  -6    9.53    2.80
  -1  17   7    4.70    2.29
   1 -17  -7    5.11    2.58
  -1  17   8   -0.75    2.08
   1 -17  -8   -1.06    2.17
  -1  17   9   -0.03    2.20
   1 -17  -9    1.30    1.86
   2 -18   8   -3.72    2.10
   2 -18   7   -0.65    2.21
   2 -18   6   -1.77    2.11
   2 -18   5   -1.30    2.43
   2 -18   4   -0.74    2.22
   2 -18   3    4.92    2.40
   2 -18   2    2.04    2.28
   2 -18   1   -0.99    2.18
   2 -18   0   -3.90    1.94
   2 -18  -1   -0.33    2.14
  -2  18   2   -3.26    1.80
   2 -18  -2   -3.19    1.88
  -2  18   3   11.18    2.66
   2 -18  -3    6.02    2.41
  -2  18   4    5.79    2.27
   2 -18  -4    3.75    2.26
  -2  18   5    1.84    2.15
   2 -18  -5    2.71    2.04
  -2  18   6    2.72    2.24
   2 -18  -6    4.13    2.27
  -2  18   7   -0.34    2.12
   2 -18  -7    0.89    1.95
  -2  18   8    0.78    2.21
   2 -18  -8   -1.04    2.24
   3 -19   7    1.30    2.42
   3 -19   6   -2.33    2.10
   3 -19   5    0.71    2.32
   3 -19   4   -0.88    2.20
   3 -19   3    6.97    2.63
   3 -19   2    1.23    2.21
   3 -19   1    1.02    2.28
   3 -19   0    4.83    2.78
   3 -19  -1   -1.36    2.10
  -3  19   2    5.30    2.32
   3 -19  -2   -0.54    2.15
  -3  19   3   11.60    2.70
   3 -19  -3    9.28    3.01
  -3  19   4   -3.08    1.89
   3 -19  -4    0.78    2.12
  -3  19   5   -1.53    2.03
   3 -19  -5    0.21    2.03
  -3  19   6    3.59    2.37
   3 -19  -6   -0.67    1.91
  -3  19   7    1.43    2.29
   3 -19  -7    2.29    2.10
   4 -20   6    2.94    2.51
   4 -20   5    2.28    2.47
   4 -20   4    1.75    2.36
   4 -20   3    1.02    2.41
   4 -20   2    1.00    2.81
   4 -20   1    3.06    2.50
   4 -20   0    3.54    2.51
   4 -20  -1    2.23    2.32
  -4  20   2    1.43    2.16
   4 -20  -2    4.08    2.40
  -4  20   3    1.24    2.15
   4 -20  -3    1.38    2.14
  -4  20   4    1.33    2.10
   4 -20  -4    4.86    2.80
  -4  20   5   -0.42    2.12
   4 -20  -5    0.35    2.10
  -4  20   6    0.23    2.24
   4 -20  -6    1.15    2.11
   5 -21   5   -1.34    2.30
   5 -21   4   -1.26    2.29
   5 -21   3    2.71    2.59
   5 -21   2    2.44    2.54
   5 -21   1    3.49    2.54
   5 -21   0   -0.14    2.18
  -5  21   1   -1.18    2.06
   5 -21  -1    1.44    2.34
  -5  21   2   -0.56    1.99
   5 -21  -2    0.19    2.60
  -5  21   3   -1.26    2.08
   5 -21  -3    2.50    2.26
  -5  21   4   -0.56    2.12
   5 -21  -4    2.96    2.33
  -5  21   5    0.14    2.16
   5 -21  -5    2.18    2.30
   6 -22   2    1.39    2.96
   6 -22   1   -1.25    2.31
   6 -22   0   -3.19    2.16
   6 -22  -1    1.72    2.48
  -6  22   2   -0.14    2.55
   6 -22  -2    0.34    2.36
 -22   5   1    3.87    2.59
 -22   5   0    8.05    2.73
 -22   5  -1    0.70    2.32
 -21   4   4    0.75    2.83
 -21   4   3    0.89    2.26
 -21   4   2    1.29    2.64
 -21   4   1    0.57    2.25
 -21   4   0    1.60    2.67
 -21   4  -1    1.21    2.71
 -21   4  -2    2.60    2.37
 -21   4  -3    3.66    2.39
 -21   4  -3    1.98    1.81
 -21   4  -4    1.64    1.91
 -21   4  -4    5.46    2.65
 -20   3   5    0.21    2.28
 -20   3   4    2.93    2.82
 -20   3   3    4.42    2.58
 -20   3   2    3.20    2.40
 -20   3   1   -0.63    2.55
 -20   3   0    3.98    2.75
 -20   3  -1    0.15    2.18
 -20   3  -2   -0.84    1.59
 -20   3  -2    3.37    2.35
 -20   3  -3    2.57    1.63
 -20   3  -3    0.38    2.42
 -20   3  -4    1.53    1.91
 -20   3  -4    0.03    2.07
 -20   3  -5   -2.13    1.76
 -20   3  -5   -0.12    1.61
 -19   2   7   -0.21    2.32
 -19   2   6    1.51    2.40
 -19   2   5    3.15    2.43
 -19   2   4    1.64    2.35
 -19   2   3   -2.29    2.14
 -19   2   2    9.72    2.78
 -19   2   1    3.02    2.31
 -19   2   0    2.67    2.27
 -19   2  -1   -0.64    1.97
 -19   2  -1    3.24    1.77
 -19   2  -2    9.18    2.17
 -19   2  -2    6.53    2.76
 -19   2  -3   -1.29    2.31
 -19   2  -3   -0.35    1.51
 -19   2  -4    3.46    2.15
 -19   2  -4    1.33    1.87
 -19   2  -5    2.84    2.38
 -19   2  -5   -0.66    1.60
 -19   2  -6   -0.97    1.92
 -19   2  -6    0.25    2.24
 -19   2  -7    0.16    2.28
 -18   1   7    0.11    2.89
 -18   1   6    3.34    2.84
 -18   1   5   -3.24    2.10
 -18   1   4    3.75    2.39
 -18   1   3    4.09    2.40
 -18   1   2    6.03    2.63
 -18   1   1    1.12    2.14
 -18   1   0    4.18    1.69
 -18   1   0   -0.42    2.03
 -18   1  -1   -1.12    2.38
 -18   1  -1    1.61    1.67
 -18   1  -2    0.75    2.42
 -18   1  -2    6.51    2.03
 -18   1  -3    4.00    1.74
 -18   1  -3    5.35    2.27
 -18   1  -4    0.27    2.24
 -18   1  -4    1.09    1.56
 -18   1  -5    0.76    1.67
 -18   1  -5    2.08    1.91
 -18   1  -6    1.30    2.20
 -18   1  -6    0.20    1.63
 -18   1  -7   -0.89    1.59
 -18   1  -7    3.25    1.69
 -17   0   8   -2.33    2.27
 -17   0   7   -0.93    2.32
 -17   0   6    6.99    2.64
 -17   0   5   -4.23    1.97
 -17   0   4   -0.17    2.16
 -17   0   3    8.73    2.98
 -17   0   2   -0.28    2.11
 -17   0   1    1.50    1.54
 -17   0   1    3.75    2.64
 -17   0   0   -1.96    1.36
 -17   0   0    4.00    2.17
 -17   0  -1    1.87    2.29
 -17   0  -1    2.34    1.70
 -17   0  -2    0.88    1.96
 -17   0  -3    6.05    2.23
 -17   0  -3    7.84    1.91
 -17   0  -4    3.33    2.27
 -17   0  -4    0.76    1.95
 -17   0  -5    0.08    1.57
 -17   0  -5    1.21    2.04
 -17   0  -6   10.88    2.47
 -17   0  -7    0.66    1.70
 -17   0  -8   -0.71    1.62
 -16  -1   9   -4.75    2.12
 -16  -1   8   -2.55    2.31
 -16  -1   7    0.73    2.41
 -16  -1   6    5.42    2.52
 -16  -1   5   -1.70    2.09
 -16  -1   4    4.76    2.36
 -16  -1   3    6.31    2.43
 -16  -1   2   -0.40    1.97
 -16  -1   2    0.83    1.41
 -16  -1   1    1.18    1.55
 -16  -1   1    2.12    2.51
 -16  -1   0   -0.51    1.86
 -16  -1   0    1.69    1.55
 -16  -1  -1   -1.19    2.23
 -16  -1  -1    2.00    1.65
 -16  -1  -2    0.33    2.11
 -16  -1  -2   -0.53    1.60
 -16  -1  -3    6.33    2.36
 -16  -1  -3    3.99    1.96
 -16  -1  -4    6.27    1.94
 -16  -1  -4    8.52    2.20
 -16  -1  -5    0.72    1.66
 -16  -1  -5    2.87    1.89
 -16  -1  -6    6.38    1.98
 -16  -1  -6   10.02    2.37
 -16  -1  -7    0.66    1.76
 -16  -1  -8    0.42    1.75
 -16  -1  -9   -0.47    2.04
 -15  -2   9    2.90    2.98
 -15  -2   8   -1.94    2.16
 -15  -2   7   -0.33    2.20
 -15  -2   6    9.21    2.76
 -15  -2   5    1.50    2.22
 -15  -2   4    3.45    2.30
 -15  -2   3    5.33    1.59
 -15  -2   3    5.54    2.64
 -15  -2   2    4.73    2.57
 -15  -2   2    1.99    1.52
 -15  -2   1   -0.65    1.44
 -15  -2   1   -1.17    2.23
 -15  -2   0    0.36    2.28
 -15  -2   0    2.77    1.57
 -15  -2  -1    0.89    2.20
 -15  -2  -1    2.80    1.45
 -15  -2  -2   -0.12    1.58
 -15  -2  -2    1.14    1.76
 -15  -2  -3    1.32    1.00
 -15  -2  -3    6.19    1.79
 -15  -2  -4    3.20    2.06
 -15  -2  -4    1.66    1.65
 -15  -2  -5    4.94    2.03
 -15  -2  -5    2.50    1.91
 -15  -2  -6    9.38    2.20
 -15  -2  -7    6.05    2.04
 -15  -2  -8   -0.24    1.59
 -15  -2  -9    1.64    1.85
 -14  -3  10    3.08    2.74
 -14  -3   9   -1.00    2.35
 -14  -3   8   -0.32    2.24
 -14  -3   7    5.00    2.53
 -14  -3   6    3.40    2.27
 -14  -3   5    1.40    2.11
 -14  -3   4    2.20    2.11
 -14  -3   4    2.97    1.65
 -14  -3   3    5.35    1.59
 -14  -3   3    5.12    2.52
 -14  -3   2   12.20    2.03
 -14  -3   2   11.84    2.51
 -14  -3   1    1.47    1.38
 -14  -3   1    2.28    1.97
 -14  -3   0   -2.71    1.96
 -14  -3   0    0.16    1.50
 -14  -3  -1    5.09    1.87
 -14  -3  -1    2.29    1.82
 -14  -3  -2   19.12    2.49
 -14  -3  -3    3.28    1.64
 -14  -3  -3    5.22    2.04
 -14  -3  -4    1.06    1.54
 -14  -3  -4    1.99    1.87
 -14  -3  -5    4.98    1.86
 -14  -3  -6    7.66    2.01
 -14  -3  -7    8.28    2.40
 -14  -3  -8   -0.12    1.64
 -14  -3  -9    0.25    1.74
 -14  -3 -10    2.77    2.04
 -13  -4  10   14.21    3.28
 -13  -4   9    3.76    2.57
 -13  -4   8    3.96    2.55
 -13  -4   7    7.04    2.60
 -13  -4   6   -2.95    1.98
 -13  -4   5   -0.74    2.38
 -13  -4   4    2.30    2.05
 -13  -4   4    1.91    1.61
 -13  -4   3    4.72    2.37
 -13  -4   3    4.77    1.71
 -13  -4   2   19.69    2.41
 -13  -4   2   14.65    2.56
 -13  -4   1    8.84    1.97
 -13  -4   1   10.66    2.56
 -13  -4   0    4.29    1.59
 -13  -4   0    6.34    2.30
 -13  -4  -1   10.93    2.13
 -13  -4  -1    0.88    0.91
 -13  -4  -2   17.63    2.48
 -13  -4  -2   14.32    2.47
 -13  -4  -3    4.50    1.69
 -13  -4  -3    4.52    1.90
 -13  -4  -4    0.42    1.62
 -13  -4  -4    0.45    1.56
 -13  -4  -5   -0.29    1.75
 -13  -4  -6   -0.79    1.50
 -13  -4  -7    5.16    1.97
 -13  -4  -8    3.46    1.90
 -13  -4  -9    2.16    1.89
 -13  -4 -10   11.49    2.57
 -12  -5  10    3.75    2.70
 -12  -5   9    4.71    2.67
 -12  -5   8    2.07    2.42
 -12  -5   7    3.05    2.37
 -12  -5   6    2.38    2.22
 -12  -5   5   -1.35    1.92
 -12  -5   5    2.89    1.83
 -12  -5   4    4.37    2.37
 -12  -5   4   -1.43    1.54
 -12  -5   3   11.19    2.33
 -12  -5   3   16.20    2.27
 -12  -5   2    1.24    1.73
 -12  -5   2   -0.56    2.06
 -12  -5   1   11.53    2.54
 -12  -5   1    6.23    1.76
 -12  -5   0    5.60    1.93
 -12  -5   0    4.28    1.68
 -12  -5  -1    5.19    2.13
 -12  -5  -1    7.87    2.01
 -12  -5  -2    2.17    1.83
 -12  -5  -2    3.24    1.69
 -12  -5  -3   10.57    2.07
 -12  -5  -3   16.06    2.26
 -12  -5  -4   -0.05    1.77
 -12  -5  -5    1.07    1.54
 -12  -5  -6   -2.38    1.45
 -12  -5  -7    2.13    1.69
 -12  -5  -8    1.60    1.88
 -12  -5  -9    3.82    1.98
 -12  -5 -10    1.85    1.87
 -11  -6  10   -2.92    2.24
 -11  -6   9   -1.02    2.27
 -11  -6   8    0.36    2.25
 -11  -6   7    4.52    2.42
 -11  -6   6    2.45    2.64
 -11  -6   6    5.26    2.01
 -11  -6   5    2.03    1.89
 -11  -6   5   -3.13    1.79
 -11  -6   4    1.98    2.01
 -11  -6   4    2.44    1.76
 -11  -6   3    6.55    1.77
 -11  -6   3    7.05    2.43
 -11  -6   2    0.62    1.77
 -11  -6   2    0.46    1.74
 -11  -6   1    1.38    1.64
 -11  -6   1   -1.94    1.78
 -11  -6   0    1.87    1.82
 -11  -6   0    2.05    1.58
 -11  -6  -1    0.68    1.56
 -11  -6  -1    2.40    1.83
 -11  -6  -2    2.85    1.66
 -11  -6  -2    0.44    1.53
 -11  -6  -3    5.65    1.81
 -11  -6  -3    5.29    1.86
 -11  -6  -4    2.86    1.74
 -11  -6  -5   -0.67    1.47
 -11  -6  -6    3.79    1.86
 -11  -6  -7    2.44    1.87
 -11  -6  -8    2.02    2.08
 -11  -6  -9    0.17    1.72
 -11  -6 -10   -0.33    1.61
 -10  -7  11   -2.49    2.80
 -10  -7  10   -1.12    2.26
 -10  -7   9   -4.10    2.58
 -10  -7   8    1.50    2.31
 -10  -7   7    2.33    1.96
 -10  -7   7   -0.90    2.03
 -10  -7   6    7.15    2.15
 -10  -7   6   10.98    2.61
 -10  -7   5    1.06    1.93
 -10  -7   5    0.73    1.92
 -10  -7   4    0.19    1.58
 -10  -7   4    0.72    1.78
 -10  -7   3    0.14    1.56
 -10  -7   3   -0.99    2.05
 -10  -7   2    1.23    1.66
 -10  -7   2   -0.92    1.90
 -10  -7   1    1.16    1.66
 -10  -7   1    0.61    0.90
 -10  -7   0    4.58    2.12
 -10  -7   0    8.01    2.10
 -10  -7  -1    2.01    1.64
 -10  -7  -1    3.44    1.95
 -10  -7  -2    0.73    1.64
 -10  -7  -2   -2.40    1.59
 -10  -7  -3    4.09    2.05
 -10  -7  -4   -0.25    1.59
 -10  -7  -5    1.38    1.62
 -10  -7  -6   11.15    2.32
 -10  -7  -7   -2.68    1.71
 -10  -7  -8    5.38    2.26
 -10  -7  -9    3.73    2.28
 -10  -7 -10    1.29    1.88
 -10  -7 -11    0.65    1.85
  -9  -8  11    1.28    2.55
  -9  -8  10   -2.10    2.14
  -9  -8   9    1.57    2.30
  -9  -8   8   -1.26    2.02
  -9  -8   8   -1.14    2.10
  -9  -8   7   14.58    3.11
  -9  -8   7   12.09    2.54
  -9  -8   6    0.45    2.38
  -9  -8   6    3.87    2.18
  -9  -8   5    5.70    1.98
  -9  -8   5    7.40    2.51
  -9  -8   4    0.69    2.15
  -9  -8   4    1.51    2.08
  -9  -8   3   -1.29    1.97
  -9  -8   3    1.62    2.11
  -9  -8   2   -0.27    1.91
  -9  -8   2    2.91    1.87
  -9  -8   1    8.82    2.12
  -9  -8   1   11.00    2.21
  -9  -8   0    2.75    1.90
  -9  -8   0    0.52    1.95
  -9  -8  -1    9.04    2.07
  -9  -8  -1    8.19    2.05
  -9  -8  -2    1.12    1.65
  -9  -8  -3    4.18    1.80
  -9  -8  -4   -1.64    1.49
  -9  -8  -5    9.40    2.35
  -9  -8  -6    5.80    1.96
  -9  -8  -7    5.93    1.99
   9   8   8    0.46    1.63
  -9  -8  -8    1.13    1.76
  -9  -8  -9    3.69    1.93
  -9  -8 -10   -2.32    1.62
  -9  -8 -11    2.85    2.06
  -8  -9  11    1.75    2.48
  -8  -9  10   -2.82    2.07
  -8  -9   9    1.95    2.36
  -8  -9   9    3.72    2.37
  -8  -9   8    2.97    2.17
  -8  -9   8    6.03    2.81
  -8  -9   7    8.33    2.76
  -8  -9   7    9.35    2.53
  -8  -9   6    4.03    1.90
  -8  -9   6    2.57    2.08
  -8  -9   5    7.60    2.25
  -8  -9   5    8.47    2.45
  -8  -9   4    1.51    2.11
  -8  -9   4    0.84    1.83
  -8  -9   3   -1.72    1.67
  -8  -9   3   -0.02    1.92
  -8  -9   2   -2.12    0.84
  -8  -9   2   -0.88    1.77
  -8  -9   1    9.72    2.53
  -8  -9   1   12.24    2.19
  -8  -9   0    2.43    1.84
  -8  -9   0    3.58    1.90
  -8  -9  -1    6.40    2.00
  -8  -9  -1   10.69    1.89
  -8  -9  -2    1.91    1.79
  -8  -9  -3    1.99    2.02
  -8  -9  -4    0.12    1.62
  -8  -9  -5    8.74    2.15
  -8  -9  -6    5.59    1.99
   8   9   7   10.60    2.38
  -8  -9  -7   16.76    2.85
   8   9   8   -1.73    1.61
  -8  -9  -8    1.24    1.85
   8   9   9    3.40    2.10
  -8  -9  -9    2.80    1.93
  -8  -9 -10   -1.55    1.73
  -8  -9 -11    1.51    2.01
  -7 -10  11   -1.00    2.38
  -7 -10  10    1.73    2.35
  -7 -10  10   -0.42    2.10
  -7 -10   9   -0.51    1.87
  -7 -10   9    4.03    2.75
  -7 -10   8    3.72    2.67
  -7 -10   8    3.38    2.44
  -7 -10   7    0.89    2.28
  -7 -10   7   -0.69    1.97
  -7 -10   6   12.74    2.68
  -7 -10   6   13.45    2.55
  -7 -10   5   -0.10    2.17
  -7 -10   5   -1.39    1.69
  -7 -10   4    0.87    1.86
  -7 -10   4    0.11    1.98
  -7 -10   3    0.65    1.86
  -7 -10   3   -0.06    1.56
  -7 -10   2    1.75    1.92
  -7 -10   2   -0.04    1.75
  -7 -10   1    3.65    1.77
  -7 -10   1    5.44    2.39
  -7 -10   0    6.23    2.08
  -7 -10   0    5.05    1.73
  -7 -10  -1    6.54    2.09
  -7 -10  -2   -0.17    1.67
  -7 -10  -3    1.67    1.83
  -7 -10  -4    1.64    1.71
  -7 -10  -5   -1.88    1.53
   7  10   6   14.44    2.38
  -7 -10  -6    6.56    2.05
   7  10   7   -1.82    1.99
  -7 -10  -7    1.12    1.73
   7  10   8    2.33    2.22
  -7 -10  -8    5.53    2.18
   7  10   9    6.25    2.04
  -7 -10  -9    0.90    1.87
   7  10  10    0.92    1.92
  -7 -10 -10   -1.21    1.72
  -7 -10 -11    2.54    2.35
  -6 -11  10   -3.28    2.05
  -6 -11  10    1.31    2.53
  -6 -11   9    0.73    2.44
  -6 -11   9    0.44    2.19
  -6 -11   8    1.26    2.03
  -6 -11   8    2.06    2.19
  -6 -11   7    0.54    2.02
  -6 -11   7    4.51    2.23
  -6 -11   6    5.92    2.49
  -6 -11   6    4.37    2.41
  -6 -11   5    0.37    1.97
  -6 -11   5   -0.52    1.99
  -6 -11   4    3.27    2.11
  -6 -11   4    4.17    2.09
  -6 -11   3    0.39    0.81
  -6 -11   3    5.86    2.56
  -6 -11   2    1.78    1.98
  -6 -11   2    1.52    1.76
  -6 -11   1   -1.48    1.77
  -6 -11   1    0.73    1.63
  -6 -11   0    0.06    1.86
  -6 -11   0    1.08    1.45
  -6 -11  -1    1.02    1.78
  -6 -11  -2   -0.76    1.73
  -6 -11  -3    4.08    1.92
  -6 -11  -4    1.60    1.82
   6  11   5   -0.33    1.70
  -6 -11  -5    2.13    1.76
   6  11   6    4.40    2.03
  -6 -11  -6    3.04    1.96
   6  11   7    4.88    2.02
  -6 -11  -7    1.73    2.11
   6  11   8    5.33    2.08
  -6 -11  -8    1.69    2.15
   6  11   9    4.17    2.41
  -6 -11  -9    2.53    2.21
   6  11  10    2.33    2.08
  -6 -11 -10   -0.76    1.86
  -5 -12  10    1.05    2.30
  -5 -12  10    4.61    2.65
  -5 -12   9    3.89    2.36
  -5 -12   9    6.92    2.88
  -5 -12   8    0.92    2.08
  -5 -12   8    1.70    2.16
  -5 -12   7    8.55    2.67
  -5 -12   7    1.98    2.47
  -5 -12   6    0.68    1.79
  -5 -12   6   -0.23    2.02
  -5 -12   5    2.67    2.10
  -5 -12   5    1.77    2.15
  -5 -12   4    0.96    2.01
  -5 -12   4    0.59    1.83
  -5 -12   3    6.78    1.83
  -5 -12   3   11.38    2.48
  -5 -12   2   -0.14    1.62
  -5 -12   2    2.54    2.09
  -5 -12   1    8.27    2.31
  -5 -12   1    7.90    1.84
  -5 -12   0    4.97    2.18
  -5 -12  -1    6.77    2.19
  -5 -12  -2    0.83    1.87
  -5 -12  -3    9.41    2.27
  -5 -12  -4    1.01    1.77
   5  12   5   -0.67    2.11
  -5 -12  -5    0.20    1.71
   5  12   6    0.46    1.87
  -5 -12  -6    0.88    1.82
   5  12   7    3.18    2.38
  -5 -12  -7    2.38    1.95
   5  12   8    2.51    2.06
  -5 -12  -8    3.01    2.32
   5  12   9    6.43    2.28
  -5 -12  -9    6.45    2.35
   5  12  10   -0.23    2.06
  -5 -12 -10    1.79    1.96
  -4 -13  10   13.79    3.22
  -4 -13  10    9.34    2.78
  -4 -13   9    4.02    2.35
  -4 -13   9   -0.36    2.07
  -4 -13   8    1.30    2.11
  -4 -13   8    1.39    2.58
  -4 -13   7    5.97    2.40
  -4 -13   7    4.53    2.16
  -4 -13   6    0.74    2.08
  -4 -13   6   -0.98    1.73
  -4 -13   5    0.00    1.97
  -4 -13   5   -2.50    1.87
  -4 -13   4    4.12    1.99
  -4 -13   4    3.57    2.14
  -4 -13   3    2.49    2.05
  -4 -13   3    2.62    1.80
  -4 -13   2   16.70    2.25
  -4 -13   2   14.69    2.66
  -4 -13   1    8.92    1.93
  -4 -13   1    9.71    2.44
  -4 -13   0    4.40    2.19
  -4 -13  -1   11.08    2.52
  -4 -13  -2   12.64    2.50
  -4 -13  -3    4.18    1.97
   4  13   4    0.40    2.24
  -4 -13  -4    1.36    1.86
   4  13   5    5.43    2.37
  -4 -13  -5   -1.15    1.64
   4  13   6   -1.18    1.82
  -4 -13  -6    0.73    1.81
   4  13   7    4.97    2.18
  -4 -13  -7    9.80    2.64
   4  13   8    2.93    2.54
  -4 -13  -8    2.09    2.01
   4  13   9    0.19    2.43
  -4 -13  -9    4.60    2.19
   4  13  10    7.52    2.56
  -4 -13 -10    7.36    2.67
  -3 -14  10    4.24    2.84
  -3 -14  10    5.63    2.47
  -3 -14   9    3.40    2.30
  -3 -14   9    0.36    2.59
  -3 -14   8   -1.60    1.86
  -3 -14   8    1.56    2.66
  -3 -14   7    7.76    2.59
  -3 -14   7    8.45    2.33
  -3 -14   6    2.78    2.25
  -3 -14   6    1.56    2.23
  -3 -14   5    2.04    1.74
  -3 -14   5   -1.60    2.02
  -3 -14   4    1.34    2.10
  -3 -14   4    1.20    1.55
  -3 -14   3    3.81    2.22
  -3 -14   3    2.23    1.75
  -3 -14   2   13.13    2.64
  -3 -14   2   14.18    2.26
  -3 -14   1    3.32    2.12
  -3 -14   0    2.35    2.03
  -3 -14  -1    1.80    1.97
  -3 -14  -2   13.66    2.64
  -3 -14  -3    2.68    1.94
   3  14   4   -1.38    1.80
  -3 -14  -4    1.21    2.16
   3  14   5    1.51    1.98
  -3 -14  -5    5.48    2.11
   3  14   6    3.15    2.07
  -3 -14  -6    4.24    2.03
   3  14   7    2.99    2.16
  -3 -14  -7    8.46    2.33
   3  14   8   -6.06    2.20
  -3 -14  -8    1.36    2.31
   3  14   9    1.06    2.14
  -3 -14  -9   -0.85    1.81
   3  14  10   -0.15    2.58
  -3 -14 -10    8.36    2.48
  -2 -15   9    2.34    2.38
  -2 -15   9    3.15    2.22
  -2 -15   8   -0.32    2.17
  -2 -15   8    1.36    2.01
  -2 -15   7    5.53    2.20
  -2 -15   7    1.66    2.70
  -2 -15   6    8.65    2.26
  -2 -15   6    8.25    2.97
  -2 -15   5    2.04    1.96
  -2 -15   5   -1.62    1.97
  -2 -15   4    3.16    2.25
  -2 -15   4    1.39    0.62
  -2 -15   3    5.77    2.38
  -2 -15   3    1.80    1.72
  -2 -15   2    1.69    1.56
  -2 -15   2    2.54    2.29
  -2 -15   1    0.72    2.06
  -2 -15   0   -0.35    2.28
  -2 -15  -1    0.12    2.02
  -2 -15  -2   -0.53    1.91
   2  15   3    3.87    2.12
  -2 -15  -3    4.84    2.13
   2  15   4    3.09    2.07
  -2 -15  -4    3.16    2.07
   2  15   5   -0.60    1.88
  -2 -15  -5   -0.63    2.19
   2  15   6    7.83    2.37
  -2 -15  -6    9.79    2.57
   2  15   7    4.50    2.34
  -2 -15  -7    3.04    2.07
   2  15   8    0.06    2.13
  -2 -15  -8    1.30    1.97
   2  15   9    1.66    2.70
  -2 -15  -9    3.13    2.18
  -1 -16   9   -1.25    2.18
  -1 -16   9    2.71    2.18
  -1 -16   8    2.95    2.44
  -1 -16   7    1.92    2.74
  -1 -16   6    3.23    2.44
  -1 -16   5    4.53    2.13
  -1 -16   5   -1.53    2.58
  -1 -16   4   13.23    2.78
  -1 -16   3   -1.60    2.49
  -1 -16   3    3.85    1.81
  -1 -16   2    0.22    2.14
  -1 -16   1    1.50    2.14
  -1 -16   0    1.59    2.47
  -1 -16  -1    1.00    2.11
  -1 -16  -2   -0.12    1.99
   1  16   3    0.57    1.90
  -1 -16  -3    0.81    2.01
   1  16   4    8.76    2.41
  -1 -16  -4    6.60    2.31
   1  16   5    1.95    2.05
  -1 -16  -5    1.54    1.95
   1  16   6    3.32    2.63
  -1 -16  -6    9.04    2.50
   1  16   7    1.02    2.12
  -1 -16  -7    1.69    1.97
   1  16   8    1.24    2.24
  -1 -16  -8   -1.54    1.73
   1  16   9   -2.10    2.57
  -1 -16  -9   -2.48    1.68
   0 -17   8   -1.55    2.63
   0 -17   7   -0.33    2.22
   0 -17   6    2.60    2.72
   0 -17   5    0.47    2.28
   0 -17   4    2.35    2.29
   0 -17   3    3.42    2.44
   0 -17   2    3.33    2.28
   0 -17   1    3.31    2.24
   0 -17   0   -0.17    2.11
   0 -17  -1   -0.78    1.99
   0 -17  -2    1.73    2.53
   0  17   3    7.37    2.39
   0 -17  -3    7.44    2.47
   0  17   4   -0.64    1.91
   0 -17  -4    2.08    2.08
   0  17   5    3.29    2.20
   0 -17  -5   -1.26    2.35
   0  17   6    7.84    2.48
   0 -17  -6    6.34    2.35
   0  17   7   -0.59    2.12
   0 -17  -7    1.26    2.00
   0  17   8   -2.45    2.05
   0 -17  -8   -3.07    1.69
   1 -18   7   -0.79    2.68
   1 -18   6    3.61    2.44
   1 -18   5    0.94    2.35
   1 -18   4    3.28    2.31
   1 -18   3    5.35    2.82
   1 -18   2    8.63    2.67
   1 -18   1    0.34    2.28
   1 -18   0   -1.30    2.14
   1 -18  -1    0.14    2.16
  -1  18   2    9.05    2.52
   1 -18  -2    7.84    2.52
  -1  18   3    2.69    2.14
   1 -18  -3    5.10    2.38
  -1  18   4    1.85    2.11
   1 -18  -4    1.10    2.49
  -1  18   5   -1.50    2.03
   1 -18  -5    0.54    2.01
  -1  18   6    7.87    2.54
   1 -18  -6    3.11    2.15
  -1  18   7    0.95    2.19
   1 -18  -7    2.52    2.56
   2 -19   7   -1.26    2.66
   2 -19   6   -3.72    2.12
   2 -19   5    4.93    2.59
   2 -19   4    2.43    2.49
   2 -19   3    3.78    2.47
   2 -19   2    4.56    2.52
   2 -19   1    2.57    2.30
   2 -19   0   -0.65    2.17
   2 -19  -1    1.28    2.66
  -2  19   2    3.14    2.24
   2 -19  -2    3.78    2.33
  -2  19   3    0.30    2.06
   2 -19  -3   -0.43    2.08
  -2  19   4    1.60    2.17
   2 -19  -4    2.86    2.65
  -2  19   5    2.23    2.19
   2 -19  -5    2.54    2.17
  -2  19   6    2.00    2.42
   2 -19  -6   -0.30    2.38
   2 -19  -7    1.97    2.47
   3 -20   5   -1.82    2.16
   3 -20   4   -1.82    2.24
   3 -20   3    4.54    2.50
   3 -20   2    0.34    2.32
   3 -20   1    2.53    2.43
   3 -20   0    2.70    2.38
   3 -20  -1    2.06    2.40
  -3  20   2    2.87    2.18
   3 -20  -2    2.28    2.70
  -3  20   3   -2.42    1.91
   3 -20  -3    2.77    2.69
  -3  20   4   -0.75    2.04
   3 -20  -4    0.94    2.15
  -3  20   5    2.44    2.27
   3 -20  -5    3.61    2.29
   4 -21   4   -3.88    2.32
   4 -21   3    0.32    2.46
   4 -21   2    1.88    2.51
   4 -21   1    4.03    2.46
   4 -21   0   -0.68    2.66
   4 -21  -1    0.26    2.26
  -4  21   2    1.98    2.21
   4 -21  -2   -1.41    2.11
  -4  21   3   -2.06    2.04
   4 -21  -3   -0.10    2.21
  -4  21   4    1.40    2.66
   4 -21  -4    2.34    2.38
   5 -22   1   -1.19    2.36
   5 -22   0    3.38    2.66
   5 -22  -1    4.01    2.60
 -21   3   3    1.66    2.37
 -21   3   2    0.48    2.28
 -21   3   1    3.58    2.52
 -21   3   0    3.35    2.39
 -21   3  -1    0.91    2.29
 -21   3  -2    1.34    2.28
 -21   3  -3    1.35    2.09
 -20   2   4    2.42    2.50
 -20   2   3   -1.50    2.27
 -20   2   2    1.13    2.24
 -20   2   1    2.73    2.35
 -20   2   0    2.20    2.32
 -20   2  -1    5.23    2.86
 -20   2  -2    0.56    1.80
 -20   2  -2   -1.65    2.40
 -20   2  -3    1.38    1.79
 -20   2  -3    1.85    2.27
 -20   2  -4    4.37    2.12
 -20   2  -4    8.42    2.49
 -19   1   6    2.41    2.95
 -19   1   5    1.59    2.45
 -19   1   4    3.35    2.44
 -19   1   3    6.79    3.06
 -19   1   2    2.53    2.34
 -19   1   1    3.70    2.74
 -19   1   0    8.00    2.57
 -19   1  -1   -0.63    1.66
 -19   1  -1    0.04    2.09
 -19   1  -2   -1.04    1.40
 -19   1  -2   -2.67    2.22
 -19   1  -3    3.85    2.05
 -19   1  -3    7.42    2.75
 -19   1  -4    1.54    2.06
 -19   1  -4    0.34    1.60
 -19   1  -5   11.15    2.76
 -19   1  -5    2.39    1.79
 -19   1  -6    2.09    1.83
 -19   1  -6   -0.53    2.13
 -18   0   7   -0.71    2.36
 -18   0   6    4.22    2.61
 -18   0   5    3.82    2.49
 -18   0   4    3.34    2.40
 -18   0   3    1.07    2.65
 -18   0   2    7.86    2.60
 -18   0   1    6.00    2.47
 -18   0   0   -1.38    1.53
 -18   0   0   -1.43    2.39
 -18   0  -1    8.01    1.81
 -18   0  -1    2.85    2.17
 -18   0  -2    4.58    1.95
 -18   0  -2    7.75    2.41
 -18   0  -3    2.81    2.37
 -18   0  -3   -0.09    1.85
 -18   0  -4    1.73    1.67
 -18   0  -4    5.43    2.44
 -18   0  -5    7.44    2.41
 -18   0  -5    6.01    2.02
 -18   0  -6    0.46    2.01
 -18   0  -7    0.25    1.74
 -17  -1   7    0.92    2.40
 -17  -1   6   -0.02    2.33
 -17  -1   5   -0.20    2.24
 -17  -1   4    2.05    2.35
 -17  -1   3    4.85    2.47
 -17  -1   2    6.91    2.49
 -17  -1   1    3.03    2.25
 -17  -1   1    2.59    1.71
 -17  -1   0   -0.26    1.51
 -17  -1   0   -2.41    2.25
 -17  -1  -1    0.34    1.96
 -17  -1  -1   -1.38    1.61
 -17  -1  -2    8.33    2.22
 -17  -1  -2    9.59    2.61
 -17  -1  -3    6.86    2.21
 -17  -1  -3    1.02    1.59
 -17  -1  -4   -0.96    1.51
 -17  -1  -4    6.36    2.26
 -17  -1  -5    0.94    1.97
 -17  -1  -5    1.73    1.39
 -17  -1  -6    4.51    1.98
 -17  -1  -7   -1.39    1.64
 -16  -2   8   -0.83    2.36
 -16  -2   7   -1.19    2.26
 -16  -2   6    4.77    2.48
 -16  -2   5    0.98    2.25
 -16  -2   4    1.65    2.29
 -16  -2   3    6.58    2.49
 -16  -2   2    1.31    1.50
 -16  -2   2   -0.69    2.04
 -16  -2   1   -1.56    2.33
 -16  -2   1    0.79    1.53
 -16  -2   0   -0.53    1.31
 -16  -2   0    0.22    1.95
 -16  -2  -1    1.10    1.44
 -16  -2  -1   -1.11    2.06
 -16  -2  -2    1.53    2.21
 -16  -2  -2    1.75    1.76
 -16  -2  -3    7.85    1.99
 -16  -2  -3    8.78    2.03
 -16  -2  -4    2.16    2.01
 -16  -2  -4    3.11    1.78
 -16  -2  -5    3.52    1.85
 -16  -2  -6    3.21    1.87
 -16  -2  -7    1.21    1.78
 -16  -2  -8    3.02    1.86
 -15  -3   9   -1.27    2.45
 -15  -3   8    1.97    2.84
 -15  -3   7   -1.34    2.13
 -15  -3   6   -0.57    2.68
 -15  -3   5    0.34    2.14
 -15  -3   4    8.94    2.61
 -15  -3   3   -1.16    2.40
 -15  -3   3    3.53    1.55
 -15  -3   2    6.38    1.82
 -15  -3   2    2.93    2.48
 -15  -3   1    4.51    2.44
 -15  -3   1    3.15    1.46
 -15  -3   0    3.52    2.36
 -15  -3   0    1.70    1.72
 -15  -3  -1    0.21    1.75
 -15  -3  -1    4.75    1.85
 -15  -3  -2    3.97    1.70
 -15  -3  -2    3.24    1.25
 -15  -3  -3    0.86    1.85
 -15  -3  -3    1.22    1.98
 -15  -3  -4   13.02    2.44
 -15  -3  -4    7.73    2.04
 -15  -3  -5    3.83    2.16
 -15  -3  -6    2.19    1.82
 -15  -3  -7    1.04    1.99
 -15  -3  -8    1.63    1.75
 -15  -3  -9    5.34    2.39
 -14  -4   9    6.99    2.88
 -14  -4   8    2.26    2.50
 -14  -4   7    2.40    2.42
 -14  -4   6    4.06    2.74
 -14  -4   5    6.46    2.49
 -14  -4   4   -1.96    2.30
 -14  -4   4    0.71    1.53
 -14  -4   3   19.37    2.35
 -14  -4   3   16.87    3.11
 -14  -4   2    0.08    1.60
 -14  -4   2   -0.71    1.87
 -14  -4   1    0.08    1.82
 -14  -4   1    3.55    1.55
 -14  -4   0    8.63    2.51
 -14  -4   0   15.39    2.34
 -14  -4  -1    1.76    1.51
 -14  -4  -1    4.97    1.92
 -14  -4  -2    1.86    1.81
 -14  -4  -2    0.09    1.94
 -14  -4  -3   18.89    2.80
 -14  -4  -3   14.44    2.32
 -14  -4  -4    1.17    1.63
 -14  -4  -5    8.02    2.04
 -14  -4  -6   11.92    2.29
 -14  -4  -7    2.05    1.86
 -14  -4  -8   -0.18    1.66
 -14  -4  -9    9.88    2.64
 -13  -5   9    3.66    2.62
 -13  -5   8    0.45    2.41
 -13  -5   7    3.05    2.48
 -13  -5   6    4.66    2.48
 -13  -5   5    1.03    1.81
 -13  -5   5   -1.95    1.98
 -13  -5   4   12.64    2.21
 -13  -5   4    7.01    2.75
 -13  -5   3    2.88    2.05
 -13  -5   3    5.82    1.93
 -13  -5   2    8.47    2.28
 -13  -5   2   10.11    2.08
 -13  -5   1    0.74    1.70
 -13  -5   1    2.38    2.18
 -13  -5   0   10.61    2.16
 -13  -5   0   13.26    2.47
 -13  -5  -1    2.04    2.03
 -13  -5  -1    2.57    1.64
 -13  -5  -2   10.90    2.20
 -13  -5  -2   13.92    2.37
 -13  -5  -3    5.48    1.85
 -13  -5  -3    3.93    2.04
 -13  -5  -4    7.82    2.01
 -13  -5  -5    0.24    1.57
 -13  -5  -6    4.94    1.89
 -13  -5  -7    8.00    2.20
 -13  -5  -8    1.43    1.86
 -13  -5  -9    0.77    2.08
 -12  -6   9    2.32    2.54
 -12  -6   8   -0.67    2.26
 -12  -6   7    6.37    2.60
 -12  -6   6    2.02    2.31
 -12  -6   5    3.88    1.94
 -12  -6   5    0.45    2.09
 -12  -6   4    2.63    2.15
 -12  -6   4    9.99    2.17
 -12  -6   3    6.06    2.46
 -12  -6   3    3.71    1.90
 -12  -6   2   -0.09    1.74
 -12  -6   2    0.65    1.54
 -12  -6   1    3.80    2.17
 -12  -6   1    6.20    2.01
 -12  -6   0    0.46    1.54
 -12  -6   0   -1.59    1.27
 -12  -6  -1    4.30    1.96
 -12  -6  -1    7.87    2.19
 -12  -6  -2   -0.87    1.74
 -12  -6  -2   -0.90    1.44
 -12  -6  -3    1.47    1.62
 -12  -6  -4    9.70    2.12
 -12  -6  -5    3.00    1.70
 -12  -6  -6   -0.04    1.94
 -12  -6  -7    4.11    1.95
 -12  -6  -8    0.78    1.79
 -12  -6  -9    4.95    2.04
 -11  -7  10    0.93    2.55
 -11  -7   9   -4.95    2.57
 -11  -7   8    0.31    2.80
 -11  -7   7    6.45    2.55
 -11  -7   6    1.94    2.61
 -11  -7   6    7.11    2.23
 -11  -7   5   -1.59    1.81
 -11  -7   5   -0.55    1.97
 -11  -7   4    0.47    1.96
 -11  -7   4    0.16    1.85
 -11  -7   3   -0.61    2.07
 -11  -7   3   -0.19    1.84
 -11  -7   2    3.42    1.88
 -11  -7   2    6.46    2.08
 -11  -7   1    6.47    1.88
 -11  -7   0    3.06    1.98
 -11  -7   0    0.55    1.61
 -11  -7  -1    4.95    1.95
 -11  -7  -1    3.20    2.05
 -11  -7  -2    3.57    2.03
 -11  -7  -3    2.15    1.69
 -11  -7  -4    0.27    1.57
 -11  -7  -5    2.81    1.84
 -11  -7  -6    6.98    2.07
 -11  -7  -7    8.90    2.23
 -11  -7  -8   -0.11    2.14
 -11  -7  -9   -1.07    1.69
 -11  -7 -10   -0.17    1.74
 -10  -8  10   -4.12    2.18
 -10  -8   9    2.46    2.56
 -10  -8   8    6.33    2.59
 -10  -8   7   10.48    2.49
 -10  -8   7   12.75    2.82
 -10  -8   6   -0.54    2.41
 -10  -8   6    4.57    2.18
 -10  -8   5    6.36    2.64
 -10  -8   5    5.39    2.28
 -10  -8   4    2.02    2.27
 -10  -8   4   -0.16    1.72
 -10  -8   3    1.66    2.16
 -10  -8   3    3.55    2.05
 -10  -8   2    5.78    1.94
 -10  -8   2    2.58    1.99
 -10  -8   1   17.93    2.50
 -10  -8   1   13.79    2.49
 -10  -8   0    9.26    2.17
 -10  -8   0   10.61    2.19
 -10  -8  -1   12.98    2.20
 -10  -8  -1   14.52    2.37
 -10  -8  -2    6.03    1.96
 -10  -8  -3    1.90    1.70
 -10  -8  -4    0.29    1.94
 -10  -8  -5    6.15    2.03
 -10  -8  -6    0.43    1.69
 -10  -8  -7   12.75    2.51
 -10  -8  -8    6.22    2.16
 -10  -8  -9    2.21    1.80
 -10  -8 -10    2.74    2.30
  -9  -9  10   -3.15    2.68
  -9  -9   9    2.73    2.78
  -9  -9   8   18.44    2.94
  -9  -9   8   12.39    2.94
  -9  -9   7    0.50    2.21
  -9  -9   7    2.75    2.27
  -9  -9   6    8.43    2.51
  -9  -9   6    8.87    2.28
  -9  -9   5    0.18    1.75
  -9  -9   5   -0.49    1.98
  -9  -9   4   10.21    2.30
  -9  -9   4   12.60    2.49
  -9  -9   3    2.92    2.19
  -9  -9   3   -0.37    1.65
  -9  -9   2   -0.03    1.01
  -9  -9   2   -0.97    2.00
  -9  -9   1    3.97    1.89
  -9  -9   1    5.83    2.29
  -9  -9   0   30.54    3.14
  -9  -9   0   38.28    2.99
  -9  -9  -1    6.45    1.99
  -9  -9  -2    1.95    1.83
  -9  -9  -3   -1.01    1.62
  -9  -9  -4    9.62    2.16
  -9  -9  -5    2.54    1.82
  -9  -9  -6    9.25    2.27
  -9  -9  -7   -0.18    1.67
   9   9   8   14.59    2.63
  -9  -9  -8   15.92    2.81
  -9  -9  -9    1.01    1.91
  -9  -9 -10    0.21    2.19
  -8 -10  10   -0.44    2.35
  -8 -10   9    4.41    2.43
  -8 -10   9    2.84    2.38
  -8 -10   8    1.59    2.29
  -8 -10   8    7.76    3.02
  -8 -10   7   13.03    2.83
  -8 -10   7   14.18    3.17
  -8 -10   6    1.55    1.96
  -8 -10   6    0.21    2.00
  -8 -10   5    6.42    2.21
  -8 -10   5    5.47    2.15
  -8 -10   4    1.81    1.96
  -8 -10   4   -0.78    2.07
  -8 -10   3    1.82    2.21
  -8 -10   3   -0.87    1.96
  -8 -10   2    3.72    2.28
  -8 -10   2    3.02    1.96
  -8 -10   1   16.83    2.53
  -8 -10   1   15.49    2.79
  -8 -10   0   12.56    2.07
  -8 -10   0   12.65    2.32
  -8 -10  -1   16.03    2.56
  -8 -10  -2    2.59    1.79
  -8 -10  -3    2.33    1.71
  -8 -10  -4    2.54    1.85
  -8 -10  -5    6.98    2.06
  -8 -10  -6    2.15    1.84
   8  10   7   10.78    2.57
  -8 -10  -7   11.32    2.45
   8  10   8    6.69    2.43
  -8 -10  -8    2.46    1.96
   8  10   9    1.91    2.20
  -8 -10  -9    2.21    1.95
  -8 -10 -10    2.00    2.27
  -7 -11  10    2.29    2.45
  -7 -11  10   -1.32    2.30
  -7 -11   9   -2.04    2.07
  -7 -11   9   -3.40    2.21
  -7 -11   8   -1.33    2.32
  -7 -11   8    1.00    2.20
  -7 -11   7    9.42    2.91
  -7 -11   7    5.16    2.64
  -7 -11   6    3.87    2.19
  -7 -11   6    4.28    2.16
  -7 -11   5    0.05    2.29
  -7 -11   5    0.56    2.19
  -7 -11   4    1.07    2.06
  -7 -11   4   -0.89    1.88
  -7 -11   3   -0.14    1.86
  -7 -11   3   -1.34    0.58
  -7 -11   2    3.06    1.94
  -7 -11   2    4.48    2.12
  -7 -11   1    2.16    1.79
  -7 -11   1    5.36    2.19
  -7 -11   0    1.75    2.16
  -7 -11  -1    3.46    1.97
  -7 -11  -2    2.68    2.22
  -7 -11  -3    2.86    1.88
  -7 -11  -4   -0.09    1.69
  -7 -11  -5    0.54    1.69
   7  11   6    3.80    2.30
  -7 -11  -6    4.72    2.07
   7  11   7    7.14    2.50
  -7 -11  -7    5.26    2.14
   7  11   8   -2.15    2.14
  -7 -11  -8    1.19    1.95
   7  11   9    1.83    2.31
  -7 -11  -9   -0.52    1.80
   7  11  10   -2.32    2.15
  -7 -11 -10    0.16    1.86
  -6 -12   9    0.03    1.95
  -6 -12   9    1.18    2.74
  -6 -12   8    0.51    2.48
  -6 -12   8   -3.87    2.39
  -6 -12   7    1.75    2.19
  -6 -12   7    4.46    2.23
  -6 -12   6    4.53    2.14
  -6 -12   6    2.44    2.14
  -6 -12   5    4.26    1.98
  -6 -12   5    4.91    2.23
  -6 -12   4    6.46    2.04
  -6 -12   4    9.71    2.47
  -6 -12   3    5.71    2.58
  -6 -12   3    2.20    1.81
  -6 -12   2   -0.86    1.68
  -6 -12   2    1.72    1.99
  -6 -12   1    4.77    2.16
  -6 -12   1    5.46    1.79
  -6 -12   0    0.29    2.29
  -6 -12  -1    5.93    2.11
  -6 -12  -2    0.12    1.81
  -6 -12  -3    4.42    2.28
  -6 -12  -4    9.02    2.26
  -6 -12  -5    2.28    1.91
   6  12   6    3.06    2.00
  -6 -12  -6    4.19    2.03
   6  12   7    3.25    2.13
  -6 -12  -7    6.51    2.14
   6  12   8   -0.58    1.85
  -6 -12  -8   -1.53    1.79
   6  12   9    0.19    1.93
  -6 -12  -9    2.07    2.31
  -5 -13   9    4.12    2.80
  -5 -13   9   -0.13    2.56
  -5 -13   8    2.60    2.66
  -5 -13   8    2.77    2.22
  -5 -13   7    1.70    2.40
  -5 -13   7    1.77    2.25
  -5 -13   6    1.70    1.96
  -5 -13   6    2.19    2.26
  -5 -13   5    1.68    1.82
  -5 -13   5    1.48    2.12
  -5 -13   4   11.02    2.52
  -5 -13   4    7.77    2.23
  -5 -13   3    5.06    2.05
  -5 -13   3    4.61    2.27
  -5 -13   2   11.02    2.58
  -5 -13   2    9.32    2.20
  -5 -13   1    0.82    1.96
  -5 -13   0   11.05    2.54
  -5 -13  -1    2.49    2.02
  -5 -13  -2   11.43    2.42
  -5 -13  -3    5.79    2.19
  -5 -13  -4    6.37    2.10
   5  13   5   -1.11    1.85
  -5 -13  -5    1.70    1.85
   5  13   6    4.09    2.15
  -5 -13  -6    0.15    1.89
   5  13   7    3.73    2.10
  -5 -13  -7    3.68    2.00
   5  13   8    1.29    2.38
  -5 -13  -8    0.52    1.89
   5  13   9    3.30    2.58
  -5 -13  -9    1.52    1.91
  -4 -14   9    9.28    2.70
  -4 -14   9    7.84    2.72
  -4 -14   8    2.55    2.21
  -4 -14   8    4.03    2.81
  -4 -14   7   -0.19    1.93
  -4 -14   7    0.65    2.16
  -4 -14   6    7.43    2.53
  -4 -14   6    3.01    2.36
  -4 -14   5    6.42    2.45
  -4 -14   5    8.98    2.17
  -4 -14   4   -0.20    2.21
  -4 -14   4   -0.28    0.90
  -4 -14   3   20.44    2.62
  -4 -14   3   14.82    2.78
  -4 -14   2    2.36    1.73
  -4 -14   2    1.53    2.12
  -4 -14   1    2.53    2.13
  -4 -14   0   10.16    2.47
  -4 -14  -1   -1.29    1.92
  -4 -14  -2    1.97    1.96
  -4 -14  -3   18.15    2.77
  -4 -14  -4   -2.08    1.72
   4  14   5    6.29    2.28
  -4 -14  -5    9.01    2.47
   4  14   6    5.77    2.29
  -4 -14  -6    4.13    2.10
   4  14   7    2.17    2.10
  -4 -14  -7    3.60    2.32
   4  14   8    1.56    2.10
  -4 -14  -8   -0.13    1.86
   4  14   9    4.84    2.49
  -4 -14  -9    8.84    2.56
  -3 -15   9    1.03    2.84
  -3 -15   9    3.05    2.28
  -3 -15   8   -1.22    1.88
  -3 -15   8    0.79    2.76
  -3 -15   7    1.45    2.28
  -3 -15   7    2.36    1.97
  -3 -15   6    2.61    2.32
  -3 -15   6    1.07    1.90
  -3 -15   5    3.53    2.39
  -3 -15   5    4.57    1.93
  -3 -15   4    4.24    2.37
  -3 -15   4    1.23    1.05
  -3 -15   3   -1.52    2.05
  -3 -15   3    3.98    1.85
  -3 -15   2    3.05    2.24
  -3 -15   1    2.29    2.54
  -3 -15   0    3.94    2.14
  -3 -15  -1    0.86    1.99
  -3 -15  -2    4.21    2.15
  -3 -15  -3    1.81    1.97
   3  15   4    7.01    2.31
  -3 -15  -4    4.73    2.19
   3  15   5    2.20    2.06
  -3 -15  -5    3.75    2.08
   3  15   6    7.57    2.43
  -3 -15  -6    5.98    2.29
   3  15   7    1.05    2.15
  -3 -15  -7    2.91    2.16
   3  15   8    3.14    2.26
  -3 -15  -8    2.24    2.38
   3  15   9    1.43    2.73
  -3 -15  -9    1.11    1.97
  -2 -16   8   -0.31    2.35
  -2 -16   8   -2.18    2.23
  -2 -16   7    2.35    2.80
  -2 -16   7   -0.39    1.84
  -2 -16   6    0.48    1.77
  -2 -16   6    4.05    2.75
  -2 -16   5   -0.95    1.93
  -2 -16   5   -1.09    2.13
  -2 -16   4    0.76    2.26
  -2 -16   4    4.51    1.90
  -2 -16   3    7.95    2.55
  -2 -16   2   -2.74    2.04
  -2 -16   1   -0.69    2.07
  -2 -16   0    1.10    2.05
  -2 -16  -1    0.34    2.07
  -2 -16  -2   -0.06    1.98
  -2 -16  -3    8.36    2.78
   2  16   4    4.10    2.13
  -2 -16  -4    3.19    2.48
   2  16   5    1.15    2.12
  -2 -16  -5    3.19    2.12
   2  16   6    3.24    2.24
  -2 -16  -6    0.27    1.89
   2  16   7    0.22    2.08
  -2 -16  -7    3.38    2.15
   2  16   8    5.00    2.43
  -2 -16  -8    2.23    2.45
  -1 -17   7    5.71    2.67
  -1 -17   7    4.88    2.41
  -1 -17   6   -0.86    2.32
  -1 -17   6    3.01    1.90
  -1 -17   5    0.12    1.86
  -1 -17   5   -2.21    2.52
  -1 -17   4    3.04    1.88
  -1 -17   4    1.68    2.28
  -1 -17   3    3.19    2.35
  -1 -17   2    6.18    2.53
  -1 -17   1   -0.36    2.19
  -1 -17   0    0.17    2.23
  -1 -17  -1   -2.73    1.89
  -1 -17  -2    6.31    2.50
   1  17   3    2.56    2.10
  -1 -17  -3    6.20    2.38
   1  17   4    5.01    2.26
   1  17   5    0.06    2.04
  -1 -17  -5    1.25    2.01
   1  17   6    1.83    2.24
  -1 -17  -6    3.64    2.16
   1  17   7    2.18    2.30
  -1 -17  -7   -2.10    2.16
   0 -18   7    1.58    2.50
   0 -18   6   -0.32    2.27
   0 -18   5    3.22    2.43
   0 -18   4   -0.55    2.14
   0 -18   3    0.22    2.28
   0 -18   2    3.99    2.45
   0 -18   1    4.98    2.51
   0 -18   0    0.39    2.63
   0 -18  -1    1.45    2.22
   0 -18  -2    5.40    2.42
   0  18   3    1.26    2.07
   0 -18  -3    3.77    2.39
   0  18   4    2.50    2.57
   0 -18  -4    1.66    2.07
   0  18   5    5.49    2.84
   0 -18  -5    6.09    2.40
   0  18   6   -1.12    1.99
   0 -18  -6   -0.04    2.31
   0  18   7    2.52    2.37
   0 -18  -7    0.57    2.00
   1 -19   6   -0.07    2.45
   1 -19   5    1.50    2.46
   1 -19   4    5.47    3.03
   1 -19   3    7.43    2.76
   1 -19   2    0.58    2.28
   1 -19   1    0.90    2.34
   1 -19   0    6.96    2.70
   1 -19  -1    3.79    2.43
   1 -19  -2    0.30    2.18
  -1  19   3    5.09    2.37
   1 -19  -3    2.29    2.35
  -1  19   4   -0.11    2.17
   1 -19  -4   -0.08    2.09
  -1  19   5    4.75    2.46
   1 -19  -5    3.12    2.22
  -1  19   6    2.52    2.35
   1 -19  -6   -0.78    2.28
   2 -20   4    5.64    2.68
   2 -20   3   -3.41    2.19
   2 -20   2    2.04    2.35
   2 -20   1    3.86    2.51
   2 -20   0    1.64    2.40
   2 -20  -1    1.19    2.31
   2 -20  -2   -1.23    2.54
  -2  20   3    1.09    2.24
   2 -20  -3    1.96    2.28
  -2  20   4    2.84    2.20
   2 -20  -4    5.16    2.45
   3 -21   3    2.31    2.58
   3 -21   2   -1.50    2.35
   3 -21   1    0.15    2.37
   3 -21   0    0.41    2.34
   3 -21  -1    3.43    2.49
   3 -21  -2    1.79    2.39
   3 -21  -3    3.83    2.84
 -20   1   3    0.54    2.46
 -20   1   2    2.86    2.45
 -20   1   1    4.43    2.74
 -20   1   0    5.40    2.81
 -20   1  -1    0.80    2.57
 -20   1  -2    2.25    2.62
 -20   1  -2    0.62    1.80
 -20   1  -3   -1.04    1.55
 -20   1  -3    0.38    2.10
 -19   0   5    0.90    2.42
 -19   0   4    5.86    2.77
 -19   0   3    1.33    2.37
 -19   0   2    0.53    2.68
 -19   0   1   -2.37    1.97
 -19   0   0   12.21    3.08
 -19   0  -1   -1.06    1.70
 -19   0  -1   -0.68    2.41
 -19   0  -2    1.54    2.39
 -19   0  -2    0.89    1.75
 -19   0  -3    4.55    2.56
 -19   0  -3   -0.04    1.85
 -19   0  -4    5.34    2.23
 -19   0  -4    8.10    2.33
 -19   0  -5   -0.95    1.96
 -19   0  -5    2.86    2.30
 -18  -1   6    1.33    2.37
 -18  -1   5    3.83    2.52
 -18  -1   4    1.70    2.40
 -18  -1   3    5.78    2.54
 -18  -1   2    5.30    2.52
 -18  -1   1    1.27    2.12
 -18  -1   0    6.21    1.77
 -18  -1   0   14.33    3.13
 -18  -1  -1    2.41    2.11
 -18  -1  -1   -0.71    1.68
 -18  -1  -2    0.13    1.49
 -18  -1  -2    1.67    2.02
 -18  -1  -3    8.66    2.67
 -18  -1  -3    3.31    1.76
 -18  -1  -4    6.21    2.38
 -18  -1  -4   -0.39    1.91
 -18  -1  -5    4.78    1.97
 -18  -1  -6    2.73    1.93
 -17  -2   7    1.63    2.50
 -17  -2   6   -1.90    2.17
 -17  -2   5    2.27    2.48
 -17  -2   4   -1.94    2.58
 -17  -2   3    0.31    2.25
 -17  -2   2    3.82    2.32
 -17  -2   1    1.31    2.17
 -17  -2   1    0.68    1.54
 -17  -2   0    5.46    1.91
 -17  -2   0   -0.06    2.35
 -17  -2  -1    1.18    1.77
 -17  -2  -1    3.91    2.46
 -17  -2  -2    4.64    1.71
 -17  -2  -2    3.68    2.08
 -17  -2  -3    0.24    1.62
 -17  -2  -3    0.55    1.86
 -17  -2  -4    1.99    1.98
 -17  -2  -4   -0.61    1.96
 -17  -2  -5    2.66    2.14
 -17  -2  -6    2.74    1.90
 -16  -3   7    3.01    2.60
 -16  -3   6    0.84    2.80
 -16  -3   5    2.24    2.39
 -16  -3   4   -0.01    2.20
 -16  -3   3    5.79    2.45
 -16  -3   2   -0.45    2.06
 -16  -3   2    1.85    1.68
 -16  -3   1    2.32    2.57
 -16  -3   1    1.71    1.70
 -16  -3   0    7.13    2.04
 -16  -3   0    8.59    2.34
 -16  -3  -1    3.77    2.27
 -16  -3  -1    4.31    1.97
 -16  -3  -2    5.95    2.08
 -16  -3  -2    4.44    2.05
 -16  -3  -3    9.67    2.37
 -16  -3  -3   12.49    2.60
 -16  -3  -4    0.65    1.65
 -16  -3  -5    0.39    1.71
 -16  -3  -6    2.88    1.86
 -16  -3  -7   -0.97    2.07
 -15  -4   8   -0.27    2.45
 -15  -4   7    2.33    2.43
 -15  -4   6   -0.10    2.27
 -15  -4   5   -0.48    2.56
 -15  -4   4   13.21    3.15
 -15  -4   3    3.30    2.62
 -15  -4   3    5.68    1.96
 -15  -4   2    5.70    1.67
 -15  -4   2    1.80    2.53
 -15  -4   1    1.60    2.40
 -15  -4   1    4.24    1.96
 -15  -4   0    4.46    1.95
 -15  -4   0    0.63    2.26
 -15  -4  -1    4.72    1.79
 -15  -4  -2    8.42    2.36
 -15  -4  -2    2.46    1.71
 -15  -4  -3    6.13    2.27
 -15  -4  -3    4.90    1.88
 -15  -4  -4   11.81    2.31
 -15  -4  -5   -0.23    1.63
 -15  -4  -6    1.09    1.76
 -15  -4  -7    1.24    1.89
 -15  -4  -8    1.74    2.25
 -14  -5   8    0.72    2.95
 -14  -5   7    2.37    2.91
 -14  -5   6    1.39    2.22
 -14  -5   5    4.77    2.40
 -14  -5   4   13.75    2.82
 -14  -5   4   16.17    2.34
 -14  -5   3   12.19    2.66
 -14  -5   3    4.76    1.93
 -14  -5   2    1.89    1.77
 -14  -5   2    6.12    2.58
 -14  -5   1    5.74    2.52
 -14  -5   1    7.58    1.84
 -14  -5   0    2.03    2.19
 -14  -5   0    1.94    1.85
 -14  -5  -1    8.70    2.29
 -14  -5  -1    8.61    2.26
 -14  -5  -2    1.78    1.68
 -14  -5  -2    4.36    2.04
 -14  -5  -3    6.15    1.96
 -14  -5  -4   15.89    2.48
 -14  -5  -5    7.90    2.16
 -14  -5  -6    1.08    1.79
 -14  -5  -7    2.59    2.19
 -14  -5  -8   -0.29    1.76
 -13  -6   8   -0.30    2.49
 -13  -6   7    3.96    2.56
 -13  -6   6    7.21    2.98
 -13  -6   5    4.50    1.98
 -13  -6   5    3.09    2.29
 -13  -6   4   -0.40    1.94
 -13  -6   4    2.26    1.85
 -13  -6   3   16.36    3.03
 -13  -6   3   14.61    2.43
 -13  -6   2    2.15    1.59
 -13  -6   2    1.52    2.25
 -13  -6   1   -2.25    1.93
 -13  -6   1    0.21    1.53
 -13  -6   0    1.39    1.46
 -13  -6   0    6.95    1.90
 -13  -6  -1   -1.60    1.81
 -13  -6  -1    0.50    1.53
 -13  -6  -2    2.82    1.81
 -13  -6  -3   10.69    2.41
 -13  -6  -4    1.24    1.65
 -13  -6  -5    2.68    1.86
 -13  -6  -6    3.50    1.93
 -13  -6  -7    0.11    1.67
 -13  -6  -8    1.55    1.96
 -12  -7   9    2.55    2.62
 -12  -7   8   -2.23    2.67
 -12  -7   7    3.93    2.46
 -12  -7   6   -0.38    2.19
 -12  -7   5    2.39    2.25
 -12  -7   5    1.20    1.90
 -12  -7   4    2.83    2.41
 -12  -7   4    0.45    1.91
 -12  -7   3    3.22    2.04
 -12  -7   3    0.39    2.23
 -12  -7   2    3.89    2.05
 -12  -7   2    2.22    1.90
 -12  -7   1    5.72    2.19
 -12  -7   1    0.44    0.86
 -12  -7   0    1.28    1.95
 -12  -7   0    1.59    1.68
 -12  -7  -1    5.69    2.14
 -12  -7  -1    3.36    1.81
 -12  -7  -2   -0.21    1.57
 -12  -7  -3    1.71    1.74
 -12  -7  -4    0.41    1.64
 -12  -7  -5    1.60    1.79
 -12  -7  -6    1.38    1.76
 -12  -7  -7    0.46    1.81
 -12  -7  -8    4.16    2.37
 -12  -7  -9    0.89    1.93
 -11  -8   9    0.25    2.47
 -11  -8   8    2.37    2.46
 -11  -8   7   -1.90    2.56
 -11  -8   6    7.24    2.41
 -11  -8   6    3.37    2.42
 -11  -8   5    1.40    2.07
 -11  -8   5    2.08    2.12
 -11  -8   4   -0.85    2.25
 -11  -8   4   -2.31    1.47
 -11  -8   3    0.89    1.75
 -11  -8   3   -1.25    2.10
 -11  -8   2    4.73    2.19
 -11  -8   2   -0.77    1.67
 -11  -8   1    1.86    2.04
 -11  -8   1    3.15    2.06
 -11  -8   0   17.39    2.59
 -11  -8   0   22.02    2.75
 -11  -8  -1   -0.22    1.59
 -11  -8  -2    1.75    2.03
 -11  -8  -3    2.49    1.71
 -11  -8  -4    0.11    1.71
 -11  -8  -5    0.26    1.70
 -11  -8  -6   10.36    2.62
 -11  -8  -7    0.92    1.85
 -11  -8  -8    3.51    2.01
 -11  -8  -9    2.63    2.30
 -10  -9   9   -1.04    2.29
 -10  -9   8    3.51    2.88
 -10  -9   7   17.39    2.94
 -10  -9   7   12.12    2.92
 -10  -9   6    3.64    2.34
 -10  -9   6    4.75    2.04
 -10  -9   5    2.98    2.18
 -10  -9   5    5.98    2.38
 -10  -9   4    0.32    2.11
 -10  -9   4    1.34    1.94
 -10  -9   3    2.58    2.25
 -10  -9   3    2.35    2.15
 -10  -9   2    6.78    2.12
 -10  -9   1    7.09    2.13
 -10  -9   1   10.10    2.31
 -10  -9   0    4.73    1.92
 -10  -9   0    4.06    1.86
 -10  -9  -1   10.72    2.27
 -10  -9  -2    1.73    1.77
 -10  -9  -3    3.47    1.90
 -10  -9  -4    1.26    1.71
 -10  -9  -5    6.37    2.38
 -10  -9  -6    4.19    2.24
 -10  -9  -7   21.23    3.18
 -10  -9  -8    1.44    1.91
 -10  -9  -9   -2.40    1.53
  -9 -10   9   -0.55    2.77
  -9 -10   8   -0.55    2.23
  -9 -10   8    1.10    2.29
  -9 -10   7   16.46    3.30
  -9 -10   7   15.74    2.99
  -9 -10   6    7.57    2.66
  -9 -10   6    1.88    2.48
  -9 -10   5    5.48    2.36
  -9 -10   5    2.83    2.12
  -9 -10   4    1.27    1.91
  -9 -10   4    0.02    1.86
  -9 -10   3    2.06    1.80
  -9 -10   3    2.96    2.05
  -9 -10   2    2.76    2.04
  -9 -10   2    4.65    2.05
  -9 -10   1   12.23    2.25
  -9 -10   1   11.43    2.45
  -9 -10   0    6.57    2.10
  -9 -10  -1    7.85    2.21
  -9 -10  -2    4.92    2.01
  -9 -10  -3    3.13    1.92
  -9 -10  -4    1.21    2.06
  -9 -10  -5    1.64    1.79
  -9 -10  -6    4.11    2.08
  -9 -10  -7   17.41    2.83
  -9 -10  -8    1.58    1.90
  -9 -10  -9    3.10    2.05
  -8 -11   9    0.34    2.38
  -8 -11   9    3.12    2.43
  -8 -11   8    8.18    2.68
  -8 -11   8    2.74    2.52
  -8 -11   7   -2.88    1.85
  -8 -11   7    0.83    2.23
  -8 -11   6    5.41    2.57
  -8 -11   6    8.80    2.78
  -8 -11   5    1.81    2.03
  -8 -11   5    0.71    2.48
  -8 -11   4   -3.03    2.18
  -8 -11   4    2.01    2.18
  -8 -11   3   -0.60    0.68
  -8 -11   3    0.73    2.00
  -8 -11   2    2.64    2.02
  -8 -11   2   -2.34    1.82
  -8 -11   1   -0.77    1.89
  -8 -11   1    0.07    1.82
  -8 -11   0   16.07    2.61
  -8 -11  -1   -0.14    1.80
  -8 -11  -2    4.46    2.00
  -8 -11  -3   -0.69    1.64
  -8 -11  -4    1.73    1.90
  -8 -11  -5   -2.01    1.62
  -8 -11  -6    6.73    2.18
  -8 -11  -7    5.40    2.10
   8  11   8    2.89    1.94
  -8 -11  -8    6.16    2.24
   8  11   9   -2.81    1.74
  -8 -11  -9   -0.49    1.81
  -7 -12   9   -6.55    2.32
  -7 -12   9    1.08    2.38
  -7 -12   8   -0.16    2.58
  -7 -12   8    1.00    2.45
  -7 -12   7    1.80    2.13
  -7 -12   7    0.39    2.54
  -7 -12   6   -0.60    2.39
  -7 -12   6    3.75    2.48
  -7 -12   5    3.07    2.24
  -7 -12   5    0.87    1.93
  -7 -12   4    4.71    2.56
  -7 -12   4   -0.05    2.13
  -7 -12   3   -0.29    1.86
  -7 -12   3    1.99    2.06
  -7 -12   2    2.52    1.90
  -7 -12   2    4.98    2.23
  -7 -12   1    6.88    2.32
  -7 -12   0   -1.45    1.70
  -7 -12  -1    5.78    2.16
  -7 -12  -2    2.08    1.92
  -7 -12  -3    2.81    2.00
  -7 -12  -4    1.44    1.82
  -7 -12  -5    0.33    1.75
  -7 -12  -6   -2.37    1.60
   7  12   7    0.81    1.93
  -7 -12  -7    5.02    2.51
   7  12   8    3.62    2.41
  -7 -12  -8   -1.40    1.77
   7  12   9    5.84    2.65
  -7 -12  -9    1.88    2.25
  -6 -13   8    0.45    2.10
  -6 -13   8   -1.88    2.49
  -6 -13   7   -2.09    1.93
  -6 -13   7   -0.48    2.00
  -6 -13   6    5.39    2.20
  -6 -13   6    0.97    2.28
  -6 -13   5    2.43    1.97
  -6 -13   5    4.17    2.70
  -6 -13   4    0.80    2.17
  -6 -13   4   -1.62    1.72
  -6 -13   3    8.68    2.36
  -6 -13   3   12.56    2.72
  -6 -13   2    0.47    2.01
  -6 -13   1    3.10    2.53
  -6 -13   0    3.43    2.22
  -6 -13  -1   -0.11    1.85
  -6 -13  -2    4.08    2.04
  -6 -13  -3    8.31    2.31
  -6 -13  -4    2.63    2.00
  -6 -13  -5    4.60    2.32
   6  13   6    3.49    2.14
  -6 -13  -6    4.00    2.05
   6  13   7    1.55    2.40
  -6 -13  -7    1.03    1.84
   6  13   8    3.34    2.24
  -6 -13  -8    2.26    2.01
  -5 -14   8   -2.58    2.33
  -5 -14   8    0.80    2.34
  -5 -14   7    3.83    2.61
  -5 -14   7   -1.86    2.56
  -5 -14   6   -2.35    2.43
  -5 -14   6    1.27    2.39
  -5 -14   5    6.09    2.52
  -5 -14   5    9.45    2.53
  -5 -14   4   11.44    2.94
  -5 -14   3    5.41    2.78
  -5 -14   3    3.58    2.04
  -5 -14   2    1.86    2.20
  -5 -14   1    5.34    2.61
  -5 -14   0    2.79    2.09
  -5 -14  -1   10.60    2.75
  -5 -14  -2    2.09    1.95
  -5 -14  -3    9.20    2.39
  -5 -14  -4   10.62    2.46
  -5 -14  -5    7.63    2.38
   5  14   6    3.76    2.21
  -5 -14  -6    2.28    2.11
   5  14   7    6.36    2.36
  -5 -14  -7    1.73    2.03
   5  14   8    3.14    2.60
  -5 -14  -8   -0.21    1.93
  -4 -15   8    4.21    2.70
  -4 -15   8    5.99    2.57
  -4 -15   7   -1.07    2.61
  -4 -15   7    7.41    2.64
  -4 -15   6   -1.14    2.18
  -4 -15   6    0.35    2.14
  -4 -15   5    3.96    2.67
  -4 -15   5    3.23    2.16
  -4 -15   4   10.96    2.24
  -4 -15   4   11.91    2.78
  -4 -15   3    5.85    2.50
  -4 -15   2    3.47    2.33
  -4 -15   1    4.55    2.30
  -4 -15   0    1.81    2.09
  -4 -15  -1    1.27    2.04
  -4 -15  -2    1.44    2.07
  -4 -15  -3    5.09    2.19
  -4 -15  -4    9.51    2.41
   4  15   5    1.72    2.06
  -4 -15  -5    2.96    2.11
   4  15   6   -0.73    2.04
  -4 -15  -6   -0.72    1.76
   4  15   7    5.80    2.74
  -4 -15  -7    1.01    1.88
   4  15   8    6.43    2.74
  -4 -15  -8   -0.51    1.85
  -3 -16   7    0.97    2.34
  -3 -16   7    3.89    2.52
  -3 -16   6    2.29    2.75
  -3 -16   6   -2.84    1.61
  -3 -16   5   -0.37    1.96
  -3 -16   5   -1.50    2.52
  -3 -16   4    0.82    1.84
  -3 -16   4    2.05    2.34
  -3 -16   3    9.81    2.60
  -3 -16   2    0.95    2.22
  -3 -16   1    1.69    2.26
  -3 -16   0    4.29    2.67
  -3 -16  -1   -1.44    1.86
  -3 -16  -2    1.39    2.12
  -3 -16  -3   11.11    2.92
  -3 -16  -4    0.83    2.04
   3  16   5   -1.15    2.04
  -3 -16  -5    1.68    2.06
   3  16   6    1.55    2.17
  -3 -16  -6    1.26    1.96
   3  16   7    0.90    2.59
  -3 -16  -7   -0.03    1.94
  -2 -17   7    1.24    1.97
  -2 -17   7   -1.98    2.21
  -2 -17   6    1.74    2.19
  -2 -17   6    1.99    2.39
  -2 -17   5    2.05    2.39
  -2 -17   5    1.84    1.59
  -2 -17   4    4.61    2.75
  -2 -17   3    4.12    2.54
  -2 -17   2    6.79    2.95
  -2 -17   1    3.22    2.30
  -2 -17   0    1.20    2.24
  -2 -17  -1    1.70    2.21
  -2 -17  -2    6.85    2.49
  -2 -17  -3   -0.57    1.89
   2  17   4    0.90    2.04
  -2 -17  -4   -1.06    1.93
   2  17   5    1.90    2.22
  -2 -17  -5   -0.28    2.04
   2  17   6   -0.57    2.07
  -2 -17  -6    0.08    1.96
  -2 -17  -7    2.20    2.07
  -1 -18   6    0.26    2.05
  -1 -18   6   -2.34    2.21
  -1 -18   5    0.77    2.40
  -1 -18   4   -1.60    2.65
  -1 -18   3    7.31    2.65
  -1 -18   2    3.15    2.38
  -1 -18   1    3.75    2.77
  -1 -18   0    8.15    2.67
  -1 -18  -1   -1.17    2.06
  -1 -18  -2    1.19    2.60
  -1 -18  -3    0.94    2.10
   1  18   4    4.23    2.69
  -1 -18  -4    0.26    2.04
   1  18   5    4.24    2.33
  -1 -18  -5    4.32    2.59
   1  18   6    1.37    2.22
  -1 -18  -6    2.31    2.50
   0 -19   5    0.02    2.86
   0 -19   4    6.37    2.70
   0 -19   3   -0.70    2.30
   0 -19   2    1.04    2.37
   0 -19   1    2.74    2.84
   0 -19   0    8.79    2.77
   0 -19  -1   -1.30    2.09
   0 -19  -2    1.64    2.29
   0 -19  -3    1.16    2.16
   0  19   4    6.96    2.50
   0 -19  -4    6.89    2.43
   0  19   5    3.30    2.38
   0 -19  -5    0.61    2.18
   1 -20   3   -0.81    2.28
   1 -20   2   -1.58    2.16
   1 -20   1    3.21    2.50
   1 -20   0   -0.11    2.18
   1 -20  -1    0.34    2.25
   1 -20  -2    0.06    2.22
   1 -20  -3   -1.00    2.12
 -20   0   0   -1.59    2.42
 -19  -1   3    1.68    2.84
 -19  -1   2   -0.17    2.75
 -19  -1   1   -0.22    2.48
 -19  -1   0   -1.13    1.98
 -19  -1  -1    3.31    1.96
 -19  -1  -1    1.88    2.12
 -19  -1  -2    1.17    1.95
 -19  -1  -2    1.14    2.37
 -19  -1  -3    1.01    2.39
 -19  -1  -3   -1.90    1.54
 -18  -2   4    1.02    2.32
 -18  -2   3    2.33    2.74
 -18  -2   2    0.58    2.20
 -18  -2   1    1.99    2.22
 -18  -2   0    3.07    1.87
 -18  -2   0    3.58    2.16
 -18  -2  -1    3.45    2.48
 -18  -2  -1    4.94    1.97
 -18  -2  -2    2.54    1.92
 -18  -2  -2    2.86    2.42
 -18  -2  -3    3.85    2.28
 -18  -2  -3    0.09    1.67
 -18  -2  -4    2.46    2.10
 -17  -3   5    0.44    2.36
 -17  -3   4    0.18    2.30
 -17  -3   3    2.61    2.78
 -17  -3   2    0.03    2.16
 -17  -3   1    0.87    1.74
 -17  -3   1    2.10    2.59
 -17  -3   0    4.33    1.68
 -17  -3   0    2.40    2.41
 -17  -3  -1    2.13    1.87
 -17  -3  -1    2.60    2.39
 -17  -3  -2    0.35    1.99
 -17  -3  -2    1.37    1.61
 -17  -3  -3    0.61    1.68
 -17  -3  -4   -1.09    1.67
 -17  -3  -5    0.49    1.72
 -16  -4   6   -1.39    2.23
 -16  -4   5    0.35    2.73
 -16  -4   4    5.21    2.83
 -16  -4   3    4.80    2.79
 -16  -4   2    2.59    1.86
 -16  -4   2    2.18    2.53
 -16  -4   1    0.02    1.75
 -16  -4   1   -0.83    1.95
 -16  -4   0    5.60    1.83
 -16  -4   0    5.44    2.59
 -16  -4  -1    1.26    1.61
 -16  -4  -1   -3.05    1.91
 -16  -4  -2   10.30    2.51
 -16  -4  -2    2.21    1.70
 -16  -4  -3    1.25    1.75
 -16  -4  -4    2.90    2.13
 -16  -4  -5    1.77    2.08
 -16  -4  -6    0.29    1.76
 -15  -5   7   -1.03    2.33
 -15  -5   6   -1.97    2.17
 -15  -5   5    1.96    2.32
 -15  -5   4    0.08    2.53
 -15  -5   3   12.04    2.15
 -15  -5   3    8.39    2.95
 -15  -5   2    0.47    1.48
 -15  -5   2   -0.89    2.31
 -15  -5   1    0.44    1.54
 -15  -5   1    0.59    2.32
 -15  -5   0    3.97    2.06
 -15  -5   0    2.23    2.00
 -15  -5  -1   -0.81    1.85
 -15  -5  -1   -1.55    1.32
 -15  -5  -2    2.11    1.74
 -15  -5  -3   11.53    2.56
 -15  -5  -4    0.70    1.69
 -15  -5  -5    2.45    2.10
 -15  -5  -6    4.98    2.13
 -15  -5  -7   -1.31    1.72
 -14  -6   7   -1.35    2.39
 -14  -6   6   -0.47    2.28
 -14  -6   5   -0.50    2.19
 -14  -6   4    5.99    2.33
 -14  -6   4    9.17    2.22
 -14  -6   3    3.37    1.99
 -14  -6   3    1.06    2.08
 -14  -6   2    8.24    1.92
 -14  -6   2    4.58    2.15
 -14  -6   1    4.28    2.03
 -14  -6   1    1.33    2.26
 -14  -6   0    0.50    1.12
 -14  -6   0    1.67    1.69
 -14  -6  -1    3.31    2.08
 -14  -6  -1    0.00    1.99
 -14  -6  -2    7.08    2.29
 -14  -6  -3    3.85    1.94
 -14  -6  -4    5.70    2.01
 -14  -6  -5    1.06    1.74
 -14  -6  -6    0.52    1.76
 -14  -6  -7    0.23    1.76
 -13  -7   7    1.21    2.47
 -13  -7   6    2.35    2.32
 -13  -7   5   -2.10    1.98
 -13  -7   5    4.36    2.04
 -13  -7   4    1.70    2.55
 -13  -7   4    2.17    2.04
 -13  -7   3    0.53    1.87
 -13  -7   3    0.54    2.30
 -13  -7   2    1.09    1.93
 -13  -7   2    1.36    2.21
 -13  -7   1   -1.65    1.51
 -13  -7   1    0.48    1.12
 -13  -7   0    7.89    2.11
 -13  -7   0    7.16    2.30
 -13  -7  -1    0.00    1.65
 -13  -7  -2    3.36    1.84
 -13  -7  -3   -0.35    1.61
 -13  -7  -4    3.53    1.92
 -13  -7  -5    1.88    1.86
 -13  -7  -6    0.76    2.11
 -13  -7  -7    0.67    1.81
 -12  -8   8   -2.95    2.16
 -12  -8   7    2.00    2.50
 -12  -8   6    4.71    2.46
 -12  -8   5    3.33    2.18
 -12  -8   5    0.22    2.47
 -12  -8   4    0.56    1.65
 -12  -8   4   -1.20    2.36
 -12  -8   3    1.69    1.95
 -12  -8   3    2.76    2.17
 -12  -8   2   -1.41    2.07
 -12  -8   2    1.93    2.04
 -12  -8   1    2.08    2.12
 -12  -8   1    4.03    1.91
 -12  -8   0    6.76    2.29
 -12  -8   0   -0.15    2.16
 -12  -8  -1    3.76    2.20
 -12  -8  -2   -1.31    1.57
 -12  -8  -3    1.26    1.81
 -12  -8  -4   -0.40    2.03
 -12  -8  -5    2.91    1.94
 -12  -8  -6    2.41    1.83
 -12  -8  -7    2.30    1.98
 -12  -8  -8    0.35    1.89
 -11  -9   8   -0.12    2.42
 -11  -9   7    4.19    2.91
 -11  -9   6    4.21    2.40
 -11  -9   6    5.53    2.53
 -11  -9   5    4.69    2.38
 -11  -9   5    2.10    2.20
 -11  -9   4    0.89    1.79
 -11  -9   4    2.15    2.07
 -11  -9   3    1.09    2.20
 -11  -9   3    1.87    1.84
 -11  -9   2    2.40    1.80
 -11  -9   2   -1.03    0.74
 -11  -9   1    2.95    2.15
 -11  -9   1    4.67    2.00
 -11  -9   0    1.44    1.83
 -11  -9  -1    4.31    2.21
 -11  -9  -2    5.19    1.98
 -11  -9  -3    0.57    1.69
 -11  -9  -4    0.29    1.74
 -11  -9  -5    1.47    1.83
 -11  -9  -6    8.64    2.56
 -11  -9  -7    3.84    2.10
 -11  -9  -8    0.25    1.87
 -10 -10   8   -0.14    2.83
 -10 -10   7    0.43    2.30
 -10 -10   7    2.34    2.33
 -10 -10   6   15.34    3.00
 -10 -10   6   13.68    2.62
 -10 -10   5    4.63    2.54
 -10 -10   5   -2.66    1.86
 -10 -10   4   -2.61    1.77
 -10 -10   4   -0.40    1.89
 -10 -10   3    0.91    2.22
 -10 -10   3    1.58    2.22
 -10 -10   2    3.93    2.17
 -10 -10   2    4.66    2.02
 -10 -10   1   -0.58    1.74
 -10 -10   0    7.60    2.48
 -10 -10  -1    0.33    1.76
 -10 -10  -2    4.28    1.94
 -10 -10  -3    2.54    1.92
 -10 -10  -4   -0.78    1.66
 -10 -10  -5    1.58    1.88
 -10 -10  -6   13.01    2.66
 -10 -10  -7    0.19    2.09
 -10 -10  -8    1.72    1.94
  -9 -11   8   -0.57    2.74
  -9 -11   8    1.33    2.36
  -9 -11   7    6.70    2.95
  -9 -11   7    2.93    2.57
  -9 -11   6    6.93    2.87
  -9 -11   6   11.66    2.93
  -9 -11   5    2.94    2.46
  -9 -11   5   -0.86    2.38
  -9 -11   4    1.27    2.29
  -9 -11   4    1.20    2.01
  -9 -11   3   -1.15    0.77
  -9 -11   3    0.78    1.98
  -9 -11   2    1.46    2.07
  -9 -11   2    5.83    2.12
  -9 -11   1    2.55    2.34
  -9 -11   0   -0.59    1.72
  -9 -11  -1    3.77    1.97
  -9 -11  -2    3.74    2.31
  -9 -11  -3    0.26    1.76
  -9 -11  -4    1.50    1.89
  -9 -11  -5    0.66    1.79
  -9 -11  -6    4.91    2.18
  -9 -11  -7    5.01    2.18
  -9 -11  -8    0.58    1.82
  -8 -12   8    3.65    2.59
  -8 -12   8    1.15    2.31
  -8 -12   7    2.94    2.74
  -8 -12   7    5.42    2.61
  -8 -12   6    0.34    2.54
  -8 -12   6   -1.29    1.93
  -8 -12   5    2.44    2.55
  -8 -12   5    3.69    2.51
  -8 -12   4   -1.08    1.98
  -8 -12   4   -1.16    2.09
  -8 -12   3    1.92    2.15
  -8 -12   3   -0.99    1.91
  -8 -12   2   -3.32    1.79
  -8 -12   1    6.57    2.50
  -8 -12   0    1.21    1.95
  -8 -12  -1    1.01    1.98
  -8 -12  -2    3.21    2.07
  -8 -12  -3    2.39    1.92
  -8 -12  -4    1.67    1.81
  -8 -12  -5    1.93    1.93
  -8 -12  -6    2.28    1.97
  -8 -12  -7    2.67    2.09
  -8 -12  -8   -1.78    1.80
  -7 -13   7   -1.23    2.11
  -7 -13   7    3.10    2.35
  -7 -13   6    0.07    2.09
  -7 -13   6   -0.89    2.43
  -7 -13   5    1.25    2.21
  -7 -13   5    2.24    2.02
  -7 -13   4    6.35    2.80
  -7 -13   4    1.86    1.71
  -7 -13   3   -0.13    2.36
  -7 -13   3   -2.50    1.85
  -7 -13   2    2.29    2.50
  -7 -13   1    1.15    2.14
  -7 -13   0    8.40    2.33
  -7 -13  -1    0.56    1.93
  -7 -13  -2    0.39    1.93
  -7 -13  -3    4.51    2.45
  -7 -13  -4    4.47    2.07
  -7 -13  -5    2.72    2.02
  -7 -13  -6    2.13    2.02
  -7 -13  -7    0.94    2.23
  -6 -14   7   -1.30    2.55
  -6 -14   7   -1.50    1.94
  -6 -14   6    2.17    2.24
  -6 -14   6    0.60    2.39
  -6 -14   5   -0.46    2.11
  -6 -14   5   -1.33    2.15
  -6 -14   4    7.62    2.87
  -6 -14   3    2.64    2.70
  -6 -14   2    3.52    2.62
  -6 -14   1    3.86    2.35
  -6 -14   0    0.72    2.37
  -6 -14  -1    2.38    2.11
  -6 -14  -2    6.15    2.33
  -6 -14  -3    5.48    2.48
  -6 -14  -4    8.91    2.39
  -6 -14  -5    5.60    2.15
  -6 -14  -6    0.05    2.26
   6  14   7    2.97    2.14
  -6 -14  -7    2.26    1.96
  -5 -15   7   -1.47    2.15
  -5 -15   7   -2.15    1.92
  -5 -15   6    3.65    2.07
  -5 -15   6    0.52    2.67
  -5 -15   5    2.12    2.25
  -5 -15   5    2.33    1.91
  -5 -15   4    2.46    2.31
  -5 -15   4    1.50    2.05
  -5 -15   3   11.27    2.76
  -5 -15   2   -1.12    2.10
  -5 -15   1    2.83    2.25
  -5 -15   0   -0.62    1.99
  -5 -15  -1    1.20    2.01
  -5 -15  -2    0.86    2.05
  -5 -15  -3    7.70    2.48
  -5 -15  -4   -0.85    1.77
  -5 -15  -5   -0.85    2.16
   5  15   6    4.27    2.27
  -5 -15  -6    5.03    2.24
   5  15   7    3.61    2.61
  -5 -15  -7    3.10    2.43
  -4 -16   6    4.01    2.46
  -4 -16   6   -0.08    1.87
  -4 -16   5   -1.30    1.94
  -4 -16   5   -2.05    2.50
  -4 -16   4    3.23    2.40
  -4 -16   3    3.75    2.78
  -4 -16   2    6.84    2.88
  -4 -16   1    2.62    2.24
  -4 -16   0    2.74    2.65
  -4 -16  -1    0.83    2.13
  -4 -16  -2    1.47    2.07
  -4 -16  -3   -1.01    2.34
  -4 -16  -4    2.82    2.12
  -4 -16  -5    2.58    2.03
   4  16   6   -3.00    1.88
  -4 -16  -6   -2.50    1.67
  -3 -17   5    0.58    2.23
  -3 -17   4    3.35    2.45
  -3 -17   3   -1.59    2.19
  -3 -17   2   -0.40    2.19
  -3 -17   1    2.35    2.27
  -3 -17   0    4.35    2.75
  -3 -17  -1    2.73    2.26
  -3 -17  -2    1.41    2.17
  -3 -17  -3    1.07    2.44
  -3 -17  -4    1.28    2.11
   3  17   5    0.00    2.08
  -3 -17  -5    2.84    2.08
  -2 -18   4    3.59    2.57
  -2 -18   3    1.46    2.82
  -2 -18   2    1.65    2.35
  -2 -18   1    3.27    2.81
  -2 -18   0    1.97    2.22
  -2 -18  -1    1.04    2.17
  -2 -18  -2   -0.53    2.03
  -2 -18  -3    2.32    2.13
  -2 -18  -4    2.66    2.23
  -1 -19   3    2.78    2.45
  -1 -19   2   -1.77    2.19
  -1 -19   1    3.56    2.52
  -1 -19   0    3.88    2.44
  -1 -19  -1    2.17    2.25
  -1 -19  -2   -0.79    2.16
  -1 -19  -3    1.40    2.46
   0 -20   0    1.80    2.33
 -18  -3   3    3.15    2.41
 -18  -3   2   -3.17    2.57
 -18  -3   1    0.64    2.54
 -18  -3   0    3.34    2.53
 -18  -3   0    2.16    1.93
 -18  -3  -1    2.93    2.05
 -18  -3  -1    2.59    2.02
 -18  -3  -2    1.92    1.71
 -17  -4   4   -1.81    2.60
 -17  -4   3    1.58    2.69
 -17  -4   2    1.56    2.21
 -17  -4   1    3.37    1.88
 -17  -4   1   -1.31    2.03
 -17  -4   0    1.94    1.87
 -17  -4   0    1.80    2.38
 -17  -4  -1    0.89    1.61
 -17  -4  -1    1.07    2.25
 -17  -4  -2    0.04    1.56
 -17  -4  -3    5.40    2.24
 -17  -4  -4   -1.46    2.01
 -16  -5   5    0.87    2.88
 -16  -5   4    1.38    2.68
 -16  -5   3    3.17    2.74
 -16  -5   2    0.21    2.14
 -16  -5   2    3.29    1.94
 -16  -5   1    5.92    2.09
 -16  -5   1    1.20    2.46
 -16  -5   0    2.40    1.69
 -16  -5   0    2.48    2.26
 -16  -5  -1    4.17    1.84
 -16  -5  -2   -0.17    1.67
 -16  -5  -3    3.81    1.93
 -16  -5  -4    2.45    2.16
 -16  -5  -5    0.92    2.15
 -15  -6   5   -1.64    2.14
 -15  -6   4    0.83    2.74
 -15  -6   3    1.77    2.56
 -15  -6   3    3.66    1.88
 -15  -6   2   -0.97    2.30
 -15  -6   2    3.39    2.00
 -15  -6   1   -0.98    2.20
 -15  -6   1    0.06    1.87
 -15  -6   0   -0.02    0.82
 -15  -6   0    4.05    1.86
 -15  -6  -1    1.69    1.79
 -15  -6  -2    1.34    2.14
 -15  -6  -3    1.59    1.79
 -15  -6  -4    0.63    2.13
 -15  -6  -5    0.76    1.81
 -14  -7   6   -2.80    2.52
 -14  -7   5    1.36    2.24
 -14  -7   4   -0.41    2.08
 -14  -7   4    1.85    1.88
 -14  -7   3    6.10    2.68
 -14  -7   3    8.95    2.11
 -14  -7   2    2.05    1.76
 -14  -7   2   -0.97    2.25
 -14  -7   1    0.96    1.45
 -14  -7   1    2.16    2.03
 -14  -7   0    3.50    1.79
 -14  -7  -1    3.57    2.23
 -14  -7  -2    3.76    1.97
 -14  -7  -3    6.59    2.16
 -14  -7  -4    0.84    1.72
 -14  -7  -5    0.17    2.11
 -14  -7  -6    2.68    1.94
 -13  -8   6   -0.89    2.66
 -13  -8   5    4.14    2.73
 -13  -8   5    4.86    2.24
 -13  -8   4    0.03    1.99
 -13  -8   4    0.37    2.13
 -13  -8   3    5.40    2.31
 -13  -8   3    3.26    2.14
 -13  -8   2    0.49    1.73
 -13  -8   2   -1.21    2.12
 -13  -8   1   -1.27    2.04
 -13  -8   1    0.83    1.97
 -13  -8   0    4.36    2.26
 -13  -8  -1    0.22    1.76
 -13  -8  -2    0.24    1.69
 -13  -8  -3    5.01    2.05
 -13  -8  -4    0.04    1.68
 -13  -8  -5    0.35    1.79
 -13  -8  -6    1.83    1.93
 -12  -9   6    3.20    2.43
 -12  -9   5   -0.38    2.09
 -12  -9   5    0.10    2.50
 -12  -9   4    4.00    2.30
 -12  -9   4    0.49    2.45
 -12  -9   3    0.02    2.33
 -12  -9   3    1.39    1.75
 -12  -9   2   -0.65    0.76
 -12  -9   2    0.95    2.10
 -12  -9   1    1.87    2.21
 -12  -9   0    2.44    1.88
 -12  -9  -1    1.56    1.95
 -12  -9  -2    3.72    2.20
 -12  -9  -3   -0.04    2.04
 -12  -9  -4    4.43    2.03
 -12  -9  -5    1.74    1.91
 -12  -9  -6    2.87    2.06
 -11 -10   6    2.82    2.40
 -11 -10   6    1.91    2.30
 -11 -10   5   -0.56    2.15
 -11 -10   5    0.30    2.23
 -11 -10   4   -0.89    1.93
 -11 -10   4   -1.90    2.03
 -11 -10   3    0.59    2.08
 -11 -10   3    2.16    2.01
 -11 -10   2   -1.27    2.02
 -11 -10   2    2.56    2.30
 -11 -10   1    6.83    2.49
 -11 -10   0   -1.12    2.05
 -11 -10  -1    2.17    1.91
 -11 -10  -2   -1.55    1.74
 -11 -10  -3   -0.92    1.65
 -11 -10  -4   -0.88    1.74
 -11 -10  -5    4.75    2.13
 -11 -10  -6    3.55    2.01
 -10 -11   6    0.39    2.68
 -10 -11   6    0.65    2.38
 -10 -11   5   -0.13    2.55
 -10 -11   5    2.00    2.47
 -10 -11   4    1.92    2.37
 -10 -11   4   -1.53    2.31
 -10 -11   3   -0.77    1.87
 -10 -11   3   -1.27    0.75
 -10 -11   2   -2.43    1.72
 -10 -11   1    0.60    1.87
 -10 -11   0    1.08    1.90
 -10 -11  -1    2.82    2.34
 -10 -11  -2    1.13    1.87
 -10 -11  -3    0.84    2.17
 -10 -11  -4   -2.15    1.57
 -10 -11  -5    3.88    2.09
 -10 -11  -6    1.58    1.98
  -9 -12   6    1.48    2.18
  -9 -12   6    2.80    2.54
  -9 -12   5    1.60    2.50
  -9 -12   5   -2.41    1.97
  -9 -12   4    2.09    2.61
  -9 -12   4   -0.35    2.15
  -9 -12   3   -0.60    2.00
  -9 -12   3   -1.53    2.11
  -9 -12   2   -1.59    1.80
  -9 -12   1    1.93    2.05
  -9 -12   0    2.07    2.00
  -9 -12  -1   -0.22    1.86
  -9 -12  -2   -0.08    1.83
  -9 -12  -3    4.07    2.09
  -9 -12  -4    2.86    2.25
  -9 -12  -5    5.66    2.18
  -9 -12  -6    3.81    2.18
  -8 -13   6    4.79    2.69
  -8 -13   6   -1.02    2.04
  -8 -13   5    0.28    2.33
  -8 -13   5    4.79    2.76
  -8 -13   4   -1.36    1.11
  -8 -13   4    1.34    2.16
  -8 -13   3    6.74    2.81
  -8 -13   2   -0.84    2.01
  -8 -13   1    0.90    2.39
  -8 -13   0    1.47    2.02
  -8 -13  -1   -2.29    1.68
  -8 -13  -2    0.70    1.90
  -8 -13  -3    4.93    2.48
  -8 -13  -4    2.92    1.99
  -8 -13  -5    2.15    1.98
  -8 -13  -6    0.87    1.93
  -7 -14   6    1.88    2.76
  -7 -14   6    2.31    2.12
  -7 -14   5    2.56    2.75
  -7 -14   5    2.48    2.41
  -7 -14   4    0.68    2.14
  -7 -14   3    4.70    2.41
  -7 -14   2   -1.86    2.03
  -7 -14   1    3.94    2.32
  -7 -14   0    2.48    2.33
  -7 -14  -1    0.89    2.01
  -7 -14  -2    2.43    2.06
  -7 -14  -3   10.44    2.78
  -7 -14  -4   -0.51    2.15
  -7 -14  -5   -2.32    2.07
  -7 -14  -6    2.12    2.22
  -6 -15   5   -2.39    1.77
  -6 -15   5    0.76    2.22
  -6 -15   4    6.47    2.55
  -6 -15   3    1.85    2.58
  -6 -15   2    0.27    2.19
  -6 -15   1    0.05    2.44
  -6 -15   0    2.72    2.25
  -6 -15  -1   -0.73    1.97
  -6 -15  -2    1.52    2.00
  -6 -15  -3    3.62    2.21
  -6 -15  -4    4.23    2.17
  -6 -15  -5    2.29    2.05
  -5 -16   5    1.74    2.82
  -5 -16   4    0.45    2.18
  -5 -16   3   -1.55    2.15
  -5 -16   2    1.27    2.24
  -5 -16   1    4.78    2.47
  -5 -16   0    1.61    2.11
  -5 -16  -1    3.07    2.13
  -5 -16  -2   -1.06    1.94
  -5 -16  -3    1.57    2.34
  -5 -16  -4    1.20    2.30
  -5 -16  -5    4.46    2.10
  -4 -17   4   -1.39    2.20
  -4 -17   3    1.24    2.25
  -4 -17   2    2.38    2.39
  -4 -17   1    3.16    2.40
  -4 -17   0   -2.24    2.11
  -4 -17  -1    4.11    2.44
  -4 -17  -2   -3.31    2.18
  -4 -17  -3   -1.87    2.24
  -4 -17  -4   -4.14    2.04
  -3 -18   3    4.65    2.69
  -3 -18   2    2.22    2.46
  -3 -18   1    0.22    2.18
  -3 -18   0    4.27    2.73
  -3 -18  -1    2.85    2.27
  -3 -18  -2    1.87    2.06
  -3 -18  -3   -0.87    1.97
 -17  -5   1   -3.54    2.26
 -17  -5   0    1.34    2.31
 -17  -5   0    6.61    2.21
 -16  -6   2   -2.07    1.75
 -16  -6   2    0.31    2.44
 -16  -6   1    2.55    2.44
 -16  -6   1    2.31    2.05
 -16  -6   0    1.52    2.04
 -16  -6  -1    0.26    2.00
 -16  -6  -2    2.69    2.15
 -15  -7   3    0.39    1.69
 -15  -7   3    4.44    2.69
 -15  -7   2    2.99    2.60
 -15  -7   2    0.77    1.97
 -15  -7   1    2.75    1.93
 -15  -7   1    2.12    2.07
 -15  -7   0    0.43    1.76
 -15  -7  -1    1.21    1.79
 -15  -7  -2   -1.54    2.00
 -15  -7  -3    0.83    1.83
 -14  -8   4    7.30    2.85
 -14  -8   4   11.83    2.61
 -14  -8   3    0.75    1.65
 -14  -8   3    2.11    2.46
 -14  -8   2   -0.48    2.30
 -14  -8   2    2.93    1.92
 -14  -8   1    3.51    1.91
 -14  -8   0    5.32    2.22
 -14  -8  -1    0.09    1.78
 -14  -8  -2    2.31    2.29
 -14  -8  -3    2.16    1.93
 -14  -8  -4    7.51    2.25
 -13  -9   4    5.82    2.35
 -13  -9   4    6.07    2.78
 -13  -9   3    4.54    2.52
 -13  -9   3    0.03    2.09
 -13  -9   2    2.95    2.26
 -13  -9   1    2.71    1.92
 -13  -9   0    2.18    2.28
 -13  -9  -1    2.78    1.85
 -13  -9  -2   -0.33    1.80
 -13  -9  -3   -1.18    2.14
 -13  -9  -4    8.78    2.65
 -12 -10   4   -0.42    2.33
 -12 -10   4    1.55    1.94
 -12 -10   3    1.71    2.41
 -12 -10   3    3.19    2.06
 -12 -10   2    2.90    2.26
 -12 -10   1   -0.83    1.85
 -12 -10   0    4.36    2.33
 -12 -10  -1   -2.67    2.04
 -12 -10  -2   -1.94    1.68
 -12 -10  -3    4.50    2.37
 -12 -10  -4    3.58    2.45
 -11 -11   5   -0.29    2.20
 -11 -11   4    2.64    2.49
 -11 -11   4   -0.18    1.86
 -11 -11   3   -0.17    2.28
 -11 -11   2    2.46    2.00
 -11 -11   1    1.77    2.30
 -11 -11   0    3.14    2.10
 -11 -11  -1    2.29    1.92
 -11 -11  -2    1.52    1.90
 -11 -11  -3    0.42    2.13
 -11 -11  -4    1.78    1.91
 -11 -11  -5    2.98    2.13
 -10 -12   4   -1.36    2.23
 -10 -12   4    1.68    2.13
 -10 -12   3    1.91    2.13
 -10 -12   2    2.70    2.44
 -10 -12   1    0.67    2.25
 -10 -12   0    1.75    1.96
 -10 -12  -1    3.20    2.44
 -10 -12  -2    0.16    2.16
 -10 -12  -3    1.45    1.96
 -10 -12  -4    2.07    2.05
  -9 -13   4    5.84    2.51
  -9 -13   3    0.88    2.45
  -9 -13   2    1.05    2.03
  -9 -13   1   -0.70    1.90
  -9 -13   0    0.19    1.92
  -9 -13  -1    2.59    2.04
  -9 -13  -2   -1.29    1.93
  -9 -13  -3    0.79    1.96
  -9 -13  -4    5.28    2.28
  -8 -14   4    7.56    2.66
  -8 -14   3   -0.85    2.13
  -8 -14   2   -1.10    2.43
  -8 -14   1    4.14    2.58
  -8 -14   0    3.25    2.56
  -8 -14  -1    1.61    2.01
  -8 -14  -2    0.55    1.97
  -8 -14  -3    3.24    2.13
  -8 -14  -4    4.39    2.22
  -7 -15   3   -2.16    2.12
  -7 -15   2    1.40    2.22
  -7 -15   1    1.77    2.55
  -7 -15   0    2.29    2.09
  -7 -15  -1   -2.20    1.83
  -7 -15  -2   -0.51    1.91
  -7 -15  -3    0.66    1.94
  -6 -16   2    2.00    2.40
  -6 -16   1    2.39    2.29
  -6 -16   0   -0.85    1.98
  -6 -16  -1   -2.34    2.32
  -6 -16  -2    1.51    2.13
  -5 -17   1   -1.02    2.22
  -5 -17   0    3.90    2.42
  -5 -17  -1   -0.37    1.93
 -13 -10   0   -0.13    2.27
 -12 -11   1    2.47    2.12
 -12 -11   0   -2.85    1.69
 -12 -11  -1    3.40    2.10
 -11 -12   1    2.57    2.07
 -11 -12   0    1.88    2.11
 -11 -12  -1    0.14    1.84
 -10 -13   0   -0.16    1.93
   0   0   0    0.00    0.00
;
_shelx_hkl_checksum              80551
_shelx_fab_file
;
    0    0    4     -3.46      0.06
    0    0    6     -0.30     -0.29
    0    0    8      9.00     -0.07
    0    0   10      2.67      0.34
    0    0   12      2.07      0.36
    0    0   14      1.59      0.45
    0    0   16     -6.03      7.52
    0    1   16     -4.44      3.32
    0    1   15     -0.42      0.31
    0    1   14      0.27     -0.10
    0    1   13      0.90      0.09
    0    1   12      1.15      0.24
    0    1   11      1.54      0.11
    0    1   10      0.00     -0.69
    0    1    9     -0.06     -0.30
    0    1    8     -0.76     -0.75
    0    1    7      3.57     -0.09
    0    1    6     -0.88     -0.10
    0    1    5     -1.61      0.02
    0    1    4      1.59     -0.01
    0    1    3     -1.29      0.29
    0    1    2      0.56      1.09
    0    1    1    -39.52      0.66
    0    1    0    418.56      0.77
    0    2   16      0.74     -0.50
    0    2   15     -0.88      0.50
    0    2   14      0.51     -0.01
    0    2   13     -0.20     -0.26
    0    2   12     -1.30     -0.14
    0    2   11      2.82     -0.42
    0    2   10     -1.42     -0.34
    0    2    9      1.12     -0.27
    0    2    8     -1.02      0.34
    0    2    7      1.67     -0.64
    0    2    6     -2.92      0.21
    0    2    5     -6.18      0.14
    0    2    4     -0.59      0.86
    0    2    3     -1.45      1.14
    0    2    2      9.34     -0.63
    0    2    1    -72.62      5.27
    0    2    0    -44.90      4.82
    0    3   16      1.86     -0.56
    0    3   15     -0.13     -0.53
    0    3   14     -0.08      0.26
    0    3   13     -0.43      0.11
    0    3   12     -2.11      0.21
    0    3   11      0.63     -0.05
    0    3   10      0.19      0.67
    0    3    9      1.22     -0.20
    0    3    8     -0.52      0.44
    0    3    7     -1.48     -0.14
    0    3    6     -2.31     -0.28
    0    3    5     -0.83      0.23
    0    3    4    -10.11      0.95
    0    3    3    -12.52     -0.51
    0    3    2      8.70     -1.24
    0    3    1     29.56      0.11
    0    3    0    -89.47      0.07
    0    4   16      0.38     -0.16
    0    4   15      0.19     -1.07
    0    4   14      2.55      0.23
    0    4   13      1.68     -0.06
    0    4   12     -1.91      0.65
    0    4   11     -0.01      0.42
    0    4   10      0.63      0.09
    0    4    9     -1.38     -0.03
    0    4    8      1.63      0.17
    0    4    7      4.48      0.22
    0    4    6     -3.04      0.43
    0    4    5      5.05      0.37
    0    4    4     -6.92      0.87
    0    4    3    -14.13     -2.95
    0    4    2     21.02     -0.29
    0    4    1     41.51     -2.86
    0    4    0    -23.67      9.15
    0    5   15     -0.52     -0.47
    0    5   14      0.45     -0.11
    0    5   13     -1.75      0.12
    0    5   12     -1.18      0.48
    0    5   11     -0.46      0.45
    0    5   10     -0.60      0.18
    0    5    9     -2.66     -0.02
    0    5    8      0.32     -0.06
    0    5    7      0.33     -0.29
    0    5    6      0.56      0.10
    0    5    5      6.44      0.52
    0    5    4     11.41      0.00
    0    5    3     -5.99     -1.44
    0    5    2     -2.49      0.95
    0    5    1     12.51     -0.17
    0    5    0     21.79      4.91
    0    6   15      1.30      0.32
    0    6   14      0.79     -0.09
    0    6   13      0.33      0.37
    0    6   12     -0.37     -0.18
    0    6   11      0.47      0.27
    0    6   10     -1.08     -0.42
    0    6    9     -1.96      0.08
    0    6    8      1.02      0.13
    0    6    7     -0.46     -0.15
    0    6    6      2.12     -0.23
    0    6    5      5.39     -0.51
    0    6    4      3.31     -0.38
    0    6    3     -0.03      0.56
    0    6    2     -5.71      0.32
    0    6    1      1.57     -0.41
    0    6    0      6.65     -3.63
    0    7   15      2.33      0.38
    0    7   14     -0.03      1.04
    0    7   13      0.83      0.36
    0    7   12      0.40      0.22
    0    7   11      1.06     -0.19
    0    7   10     -0.55     -0.10
    0    7    9      1.47     -0.21
    0    7    8      0.43      0.07
    0    7    7     -2.78      0.15
    0    7    6      0.37      0.00
    0    7    5     -1.78     -0.67
    0    7    4     -0.69     -0.68
    0    7    3      2.77     -0.10
    0    7    2      8.33     -0.73
    0    7    1     -5.46     -0.15
    0    7    0      2.42     -1.23
    0    8   15      1.54     -0.35
    0    8   14     -0.60      1.19
    0    8   13      0.45      0.01
    0    8   12      0.00      0.04
    0    8   11      1.40     -0.38
    0    8   10     -1.54      0.11
    0    8    9     -0.54      0.01
    0    8    8     -1.15     -0.10
    0    8    7     -2.66     -0.25
    0    8    6     -0.58      0.09
    0    8    5      1.23     -0.10
    0    8    4     -4.52      0.50
    0    8    3     -2.27     -0.06
    0    8    2      9.73     -0.50
    0    8    1     -2.90     -1.77
    0    8    0     12.34      1.49
    0    9   14      0.01     -0.02
    0    9   13     -1.46      0.01
    0    9   12     -0.20      0.06
    0    9   11      0.56     -0.04
    0    9   10     -0.39     -0.18
    0    9    9      1.93      0.29
    0    9    8      0.88     -0.68
    0    9    7     -2.26      0.17
    0    9    6      0.95      0.35
    0    9    5      2.20      0.22
    0    9    4     -1.89      0.43
    0    9    3     -2.73     -0.68
    0    9    2     -0.47      0.52
    0    9    1     -4.32      0.14
    0    9    0      3.61     -0.61
    0   10   14      0.16     -0.27
    0   10   13     -0.53      0.08
    0   10   12     -0.01     -0.36
    0   10   11      0.42      0.21
    0   10   10      2.17     -0.39
    0   10    9      0.74     -0.11
    0   10    8     -0.38     -0.60
    0   10    7     -3.63      1.13
    0   10    6      0.28      0.04
    0   10    5      1.29     -0.03
    0   10    4      1.43     -0.92
    0   10    3     -2.36     -0.65
    0   10    2     -3.32      0.25
    0   10    1     -0.98      0.99
    0   10    0     -4.73     -1.31
    0   11   13     -0.96      0.22
    0   11   12     -0.53     -0.46
    0   11   11     -0.84     -0.08
    0   11   10      1.78     -0.23
    0   11    9      2.30     -0.04
    0   11    8     -0.12      0.33
    0   11    7     -0.88      0.13
    0   11    6      1.14     -0.50
    0   11    5      2.08     -0.04
    0   11    4     -0.02     -0.35
    0   11    3     -0.80      0.60
    0   11    2     -1.45      0.03
    0   11    1      0.22     -0.70
    0   11    0     -0.14      0.65
    0   12   13      1.37      0.09
    0   12   12     -0.46      0.87
    0   12   11     -1.23      0.00
    0   12   10     -0.62     -0.04
    0   12    9      2.23     -0.10
    0   12    8     -0.94      0.71
    0   12    7     -0.82     -0.35
    0   12    6     -0.39      0.20
    0   12    5      0.11      0.53
    0   12    4     -2.16      0.07
    0   12    3     -0.82      0.70
    0   12    2     -0.10      0.05
    0   12    1     -2.30     -0.63
    0   12    0      1.24      0.30
    0   13   12      1.54      1.86
    0   13   11     -0.22     -0.14
    0   13   10     -0.75      0.38
    0   13    9      0.30      0.29
    0   13    8      0.43     -0.25
    0   13    7     -0.88     -0.32
    0   13    6     -0.89      0.47
    0   13    5     -3.27      0.46
    0   13    4      0.18      0.59
    0   13    3      0.85     -0.81
    0   13    2      0.76     -0.24
    0   13    1      0.86      0.10
    0   13    0      0.32     -0.82
    0   14   11     -0.43     -0.24
    0   14   10      1.23      0.07
    0   14    9     -0.26      0.37
    0   14    8      0.67     -0.33
    0   14    7     -1.83     -0.33
    0   14    6     -0.15      0.29
    0   14    5     -2.68     -0.32
    0   14    4     -0.64      0.23
    0   14    3      0.21     -0.16
    0   14    2     -0.54     -0.26
    0   14    1      0.19      2.25
    0   14    0      1.96     -1.15
    0   15   10      0.85     -0.06
    0   15    9      0.10     -0.44
    0   15    8     -0.56      0.52
    0   15    7     -1.95     -0.05
    0   15    6     -0.58     -0.33
    0   15    5      0.76     -0.39
    0   15    4      0.23     -0.01
    0   15    3     -0.83      0.57
    0   15    2      1.14     -0.32
    0   15    1     -3.14      4.45
    0   15    0      0.27     -1.28
    0   16    9     -1.76     -0.51
    0   16    8     -0.77      0.51
    0   16    7     -1.02      0.50
    0   16    6     -1.28     -0.03
    0   16    5      1.88     -0.46
    0   16    4      0.23      0.35
    0   16    3      1.51      0.55
    0   16    2     -2.82      0.12
    0   16    1      0.40      2.02
    0   16    0     -0.93      0.40
    0   17    8     -0.79      1.25
    0   17    7      0.67      0.99
    0   17    6     -1.08     -0.26
    0   17    5     -0.40     -0.40
    0   17    4      1.18      0.70
    0   17    3      0.71      0.11
    0   17    2     -3.51      0.15
    0   17    1      2.58     -1.17
    0   17    0      1.91      0.84
    0   18    7     -0.03      0.22
    0   18    6      1.84     -0.48
    0   18    5      0.91      0.66
    0   18    4     -0.17      0.21
    0   18    3      0.32     -0.33
    0   18    2      0.05     -0.02
    0   18    1     -0.74     -1.54
    0   18    0     -0.63     -0.96
    0   19    5     -2.70      0.44
    0   19    4      0.82     -0.10
    0   19    3      1.15      0.61
    0   19    2      1.44     -0.14
    0   19    1     -0.93     -0.85
    0   19    0      0.53     -1.83
    0   20    0     -3.56     -0.11
   -1   20    3      0.00      1.80
   -1   20    2     -1.02      3.57
   -1   20    1      1.77     -3.84
   -1   20    0     -1.39     -3.95
   -1   19    6      3.41     -0.46
   -1   19    5      0.42      1.95
   -1   19    4     -1.58      0.59
   -1   19    3     -0.05      1.70
   -1   19    2     -0.06      4.21
   -1   19    1     -1.72     -2.26
   -1   19    0      0.10     -2.77
   -1   18    7     -2.10      0.94
   -1   18    6      1.23     -0.51
   -1   18    5     -0.20      1.10
   -1   18    4     -0.47      1.82
   -1   18    3      0.21     -0.72
   -1   18    2     -0.78      2.93
   -1   18    1     -0.24     -1.62
   -1   18    0      3.72     -0.09
   -1   17    9     -1.40     -0.70
   -1   17    8     -0.91      1.13
   -1   17    7     -1.18      1.28
   -1   17    6      0.15      0.33
   -1   17    5     -2.23     -1.03
   -1   17    4     -0.01      2.11
   -1   17    3      2.31     -1.51
   -1   17    2     -2.53      0.29
   -1   17    1      2.99     -1.02
   -1   17    0      3.52      0.99
   -1   16   10     -2.75     -0.59
   -1   16    9      0.19     -1.20
   -1   16    8     -1.38      2.96
   -1   16    7     -0.95      1.82
   -1   16    6     -0.66      0.10
   -1   16    5      0.03     -1.75
   -1   16    4      0.83     -0.40
   -1   16    3      2.15     -2.97
   -1   16    2      1.80     -1.46
   -1   16    1      0.44      1.08
   -1   16    0     -0.80      0.12
   -1   15   11     -1.62     -1.08
   -1   15   10      1.02     -1.68
   -1   15    9      0.87      0.47
   -1   15    8     -0.77      1.63
   -1   15    7     -0.69      0.18
   -1   15    6      0.46      0.98
   -1   15    5     -0.84     -0.78
   -1   15    4      0.24     -4.48
   -1   15    3     -0.24     -1.53
   -1   15    2      1.16     -1.29
   -1   15    1     -0.90      3.38
   -1   15    0     -0.30      0.02
   -1   14   12     -0.48      2.04
   -1   14   11     -0.78     -4.28
   -1   14   10      0.55     -0.13
   -1   14    9     -1.32      2.08
   -1   14    8      0.38     -1.13
   -1   14    7     -0.23     -1.69
   -1   14    6     -0.21      0.39
   -1   14    5     -1.44      1.36
   -1   14    4     -0.58     -5.35
   -1   14    3      0.56     -0.26
   -1   14    2     -0.63     -1.02
   -1   14    1      1.60      2.27
   -1   14    0     -0.55     -0.08
   -1   13   12     -0.28      2.70
   -1   13   11     -0.68     -2.10
   -1   13   10     -1.11     -1.29
   -1   13    9      0.21      2.56
   -1   13    8      0.17     -0.38
   -1   13    7     -0.40      1.11
   -1   13    6      0.07     -0.60
   -1   13    5     -1.17      2.04
   -1   13    4     -0.27     -0.33
   -1   13    3     -0.30      1.37
   -1   13    2     -0.17     -3.09
   -1   13    1      0.46      2.49
   -1   13    0     -1.16     -0.38
   -1   12   13     -0.51      0.33
   -1   12   12     -1.08      1.14
   -1   12   11     -1.10      1.38
   -1   12   10      0.78     -1.91
   -1   12    9      1.64      1.81
   -1   12    8      0.18      0.63
   -1   12    7     -0.21      4.13
   -1   12    6      0.71     -2.79
   -1   12    5      0.80      0.51
   -1   12    4     -1.32      3.16
   -1   12    3     -1.55      3.14
   -1   12    2     -1.14     -1.49
   -1   12    1     -0.82      1.30
   -1   12    0     -0.08      0.27
   -1   11   13      0.84     -0.17
   -1   11   12     -1.08      0.95
   -1   11   11      0.68      2.49
   -1   11   10      1.18     -0.43
   -1   11    9      0.49     -1.13
   -1   11    8      0.28     -0.14
   -1   11    7     -1.65      4.17
   -1   11    6      0.52     -3.17
   -1   11    5     -0.50     -1.01
   -1   11    4     -0.04      1.02
   -1   11    3     -1.21      1.01
   -1   11    2     -1.10      3.94
   -1   11    1     -0.81     -2.40
   -1   11    0     -2.63     -0.45
   -1   10   14     -0.61      3.14
   -1   10   13      0.99     -0.24
   -1   10   12     -0.37     -0.59
   -1   10   11      0.91      2.41
   -1   10   10      0.67      0.63
   -1   10    9      2.17     -3.03
   -1   10    8     -0.33     -2.26
   -1   10    7     -3.01      1.44
   -1   10    6     -0.44      0.15
   -1   10    5      0.14     -0.52
   -1   10    4      0.82     -0.65
   -1   10    3     -1.80     -3.72
   -1   10    2     -0.66      6.33
   -1   10    1     -4.73     -2.52
   -1   10    0     -1.94     -0.90
   -1    9   14      0.79      3.57
   -1    9   13     -0.02     -0.17
   -1    9   12      0.46     -1.42
   -1    9   11      1.57      1.65
   -1    9   10     -0.84     -0.82
   -1    9    9     -0.30     -0.20
   -1    9    8      0.79     -1.16
   -1    9    7     -2.09     -1.46
   -1    9    6      1.80      0.74
   -1    9    5      1.72     -0.87
   -1    9    4     -1.01      1.01
   -1    9    3      1.96     -4.37
   -1    9    2      5.06      3.67
   -1    9    1     -2.60     -0.77
   -1    9    0      6.50      1.10
   -1    8   15      1.57     -0.10
   -1    8   14      0.27      2.61
   -1    8   13      0.28     -1.10
   -1    8   12      1.06     -0.13
   -1    8   11      1.06      0.85
   -1    8   10     -0.37     -0.43
   -1    8    9     -1.81      2.00
   -1    8    8     -0.05      0.95
   -1    8    7     -2.60     -1.32
   -1    8    6     -1.03     -2.38
   -1    8    5     -3.25      0.98
   -1    8    4      1.05      1.34
   -1    8    3      2.66      2.41
   -1    8    2      4.01      2.27
   -1    8    1      0.28      3.17
   -1    8    0      5.55      0.43
   -1    7   15      1.20     -0.93
   -1    7   14      0.40      0.11
   -1    7   13     -0.35     -1.50
   -1    7   12      0.34     -0.58
   -1    7   11     -0.11      0.53
   -1    7   10     -0.80      1.63
   -1    7    9     -0.21      2.38
   -1    7    8      1.65      1.06
   -1    7    7     -1.08     -1.86
   -1    7    6     -0.52     -1.89
   -1    7    5      1.40      1.61
   -1    7    4     -1.62     -1.97
   -1    7    3     -3.13      6.61
   -1    7    2     -1.84      6.01
   -1    7    1      3.41      4.16
   -1    7    0     -3.71     -1.86
   -1    6   15     -0.28     -0.26
   -1    6   14     -0.86     -1.41
   -1    6   13     -1.56      0.34
   -1    6   12      0.40     -1.35
   -1    6   11     -0.28      0.32
   -1    6   10      0.11      1.39
   -1    6    9     -2.15      2.45
   -1    6    8     -1.73      0.29
   -1    6    7     -1.63     -0.36
   -1    6    6      0.41      2.88
   -1    6    5     10.10     -1.18
   -1    6    4     -1.09     -2.43
   -1    6    3    -11.73      1.19
   -1    6    2     -0.29     18.60
   -1    6    1      1.95      4.62
   -1    6    0      2.95     -0.19
   -1    5   15     -0.18     -0.72
   -1    5   14      1.74     -0.68
   -1    5   13     -0.16     -0.05
   -1    5   12     -0.41     -0.27
   -1    5   11      0.63      0.95
   -1    5   10     -0.14     -1.65
   -1    5    9     -0.82      0.70
   -1    5    8      0.37     -0.34
   -1    5    7      0.95     -2.61
   -1    5    6     -0.28      4.31
   -1    5    5      4.65     -4.25
   -1    5    4     -3.77      1.07
   -1    5    3     -2.00     -6.42
   -1    5    2     14.76      8.86
   -1    5    1     -3.53      4.87
   -1    5    0      4.75      2.54
   -1    4   16      1.38      0.90
   -1    4   15      0.04     -0.81
   -1    4   14      1.18     -0.44
   -1    4   13      2.33     -0.71
   -1    4   12     -1.79      0.45
   -1    4   11      1.14      2.30
   -1    4   10      0.39     -1.74
   -1    4    9      0.60     -2.27
   -1    4    8     -0.18      0.21
   -1    4    7      4.53     -2.87
   -1    4    6     -2.31      3.07
   -1    4    5      0.46     -1.40
   -1    4    4     -7.20      3.07
   -1    4    3     -6.54      0.04
   -1    4    2      1.41    -26.42
   -1    4    1     19.87     -9.77
   -1    4    0     -3.27    -11.06
   -1    3   16      2.49      0.29
   -1    3   15     -0.49      0.28
   -1    3   14      0.71      0.43
   -1    3   13     -0.88      0.23
   -1    3   12     -2.55      0.95
   -1    3   11      1.26      1.93
   -1    3   10     -0.30     -0.50
   -1    3    9      1.16     -3.53
   -1    3    8      4.19      0.99
   -1    3    7     -0.66     -1.08
   -1    3    6     -3.73      3.90
   -1    3    5     -2.82      3.13
   -1    3    4      2.29      0.88
   -1    3    3     -2.16     12.85
   -1    3    2    -17.33    -27.04
   -1    3    1     -7.44    -28.54
   -1    3    0    -10.28    -12.34
   -1    2   16     -0.58      0.39
   -1    2   15      0.22      0.99
   -1    2   14      1.06     -0.19
   -1    2   13     -0.31      1.28
   -1    2   12     -0.38     -0.19
   -1    2   11     -0.25      0.72
   -1    2   10     -1.69     -0.87
   -1    2    9      0.12     -1.17
   -1    2    8     -0.10     -0.07
   -1    2    7     -0.29      1.81
   -1    2    6     -3.81      0.18
   -1    2    5     -0.05      2.31
   -1    2    4      2.84      0.47
   -1    2    3     -0.55      8.63
   -1    2    2      5.03     -0.22
   -1    2    1      1.25    -16.09
   -1    2    0     58.85      0.34
   -2   20    4      1.54      1.57
   -2   20    3      2.20      2.40
   -2   20    2     -3.48      2.70
   -2   20    1      3.11     -1.65
   -2   20    0     -0.18     -1.26
   -2   19    7     -3.62      2.47
   -2   19    6      2.95     -0.73
   -2   19    5      0.18      0.23
   -2   19    4     -0.61      1.12
   -2   19    3      0.06     -0.59
   -2   19    2     -0.51      3.60
   -2   19    1     -1.90      1.02
   -2   19    0     -1.58     -0.34
   -2   18    8     -2.23     -0.58
   -2   18    7     -3.08      1.16
   -2   18    6      0.81     -0.26
   -2   18    5     -2.43     -0.88
   -2   18    4      0.65      0.38
   -2   18    3      0.18     -0.96
   -2   18    2      0.03      3.49
   -2   18    1      0.06      0.93
   -2   18    0      3.18      0.06
   -2   17    9     -0.98      0.00
   -2   17    8     -2.84      0.69
   -2   17    7     -0.63     -1.06
   -2   17    6      0.25     -0.17
   -2   17    5     -1.34     -1.04
   -2   17    4     -0.35     -0.19
   -2   17    3      2.15      0.48
   -2   17    2      0.48      1.85
   -2   17    1      2.47     -0.27
   -2   17    0      1.20      0.57
   -2   16   10     -2.64      0.17
   -2   16    9      0.29     -0.48
   -2   16    8     -0.67      1.09
   -2   16    7      1.23      0.35
   -2   16    6      0.55      2.04
   -2   16    5     -2.13     -0.88
   -2   16    4      0.15     -0.61
   -2   16    3      1.01     -1.06
   -2   16    2      2.12      0.00
   -2   16    1      1.56      1.53
   -2   16    0     -0.48      0.72
   -2   15   11     -2.03      1.14
   -2   15   10      0.62      0.71
   -2   15    9     -0.50      0.27
   -2   15    8      1.21     -0.05
   -2   15    7      0.48      1.05
   -2   15    6      0.80      2.08
   -2   15    5     -1.50      0.51
   -2   15    4     -0.71     -3.20
   -2   15    3     -0.08     -0.28
   -2   15    2     -0.65      0.73
   -2   15    1      0.77      1.91
   -2   15    0     -0.86      1.06
   -2   14   12     -1.06      2.36
   -2   14   11      0.49     -0.48
   -2   14   10      1.12     -1.59
   -2   14    9     -0.77      1.80
   -2   14    8      0.56      0.48
   -2   14    7     -0.49      0.58
   -2   14    6      0.98     -1.34
   -2   14    5      0.95      1.70
   -2   14    4     -0.80     -1.80
   -2   14    3      0.21     -1.38
   -2   14    2     -0.15     -1.01
   -2   14    1      1.67     -3.50
   -2   14    0     -1.88      0.32
   -2   13   13     -1.77     -0.48
   -2   13   12     -0.83      1.36
   -2   13   11      0.31      0.34
   -2   13   10      0.07     -3.25
   -2   13    9      0.07      2.47
   -2   13    8     -0.12      1.08
   -2   13    7     -0.32      0.27
   -2   13    6      2.16     -1.94
   -2   13    5      0.17      2.01
   -2   13    4     -0.21      1.27
   -2   13    3      0.56      0.07
   -2   13    2     -0.06     -4.35
   -2   13    1      0.55     -3.44
   -2   13    0     -0.69     -0.31
   -2   12   13     -1.58      0.26
   -2   12   12     -1.19      1.14
   -2   12   11     -0.42      0.08
   -2   12   10     -0.24     -1.39
   -2   12    9      0.19      1.55
   -2   12    8      1.34      0.50
   -2   12    7      1.22      1.36
   -2   12    6      0.15     -1.87
   -2   12    5     -2.10     -0.85
   -2   12    4      0.89      0.89
   -2   12    3      0.47      2.73
   -2   12    2     -0.26      0.83
   -2   12    1     -1.59     -2.56
   -2   12    0      0.95      0.12
   -2   11   14     -1.87      1.65
   -2   11   13      1.75     -0.71
   -2   11   12     -0.73     -0.10
   -2   11   11      0.09      1.52
   -2   11   10      0.98      1.80
   -2   11    9      0.04     -0.85
   -2   11    8     -0.53      0.44
   -2   11    7     -0.66      4.86
   -2   11    6     -3.05     -0.29
   -2   11    5     -1.56     -0.49
   -2   11    4     -0.23      2.25
   -2   11    3     -0.80      3.49
   -2   11    2     -0.10      5.08
   -2   11    1     -4.55     -1.64
   -2   11    0      0.06     -0.07
   -2   10   14      0.01      2.44
   -2   10   13      1.44     -0.83
   -2   10   12      1.18     -2.47
   -2   10   11      1.12      0.92
   -2   10   10      0.38      1.43
   -2   10    9      0.46     -1.33
   -2   10    8     -0.64     -0.68
   -2   10    7     -1.48      1.68
   -2   10    6      0.20     -0.42
   -2   10    5      0.94     -0.32
   -2   10    4     -0.46      5.97
   -2   10    3      2.66     -2.11
   -2   10    2      1.32      2.74
   -2   10    1     -2.76      2.07
   -2   10    0     -1.75      0.20
   -2    9   14      1.97      1.04
   -2    9   13      1.24      0.19
   -2    9   12      1.32     -1.26
   -2    9   11      1.56      0.99
   -2    9   10      0.14     -2.66
   -2    9    9     -3.97     -0.03
   -2    9    8      0.66      0.49
   -2    9    7     -1.90     -2.81
   -2    9    6      1.74     -2.81
   -2    9    5     -1.71      1.29
   -2    9    4      1.88      3.41
   -2    9    3      4.18     -1.73
   -2    9    2      1.20      1.93
   -2    9    1      4.20      6.10
   -2    9    0     -0.79      0.01
   -2    8   15      0.84     -0.48
   -2    8   14      0.79      1.27
   -2    8   13     -0.02      0.24
   -2    8   12      0.46     -0.15
   -2    8   11      0.10      1.62
   -2    8   10      0.68     -4.52
   -2    8    9     -2.07      1.10
   -2    8    8      2.04     -2.32
   -2    8    7      0.15     -5.46
   -2    8    6     -0.29     -3.36
   -2    8    5     -5.26      0.26
   -2    8    4     -0.32     -3.73
   -2    8    3     -1.18      3.54
   -2    8    2     -3.23      0.17
   -2    8    1      3.27      3.06
   -2    8    0      1.45     -0.11
   -2    7   15     -0.53     -1.15
   -2    7   14     -0.63     -0.39
   -2    7   13     -0.72     -0.02
   -2    7   12      0.39     -2.60
   -2    7   11      0.07      0.69
   -2    7   10      1.41     -1.40
   -2    7    9     -1.09      2.42
   -2    7    8      0.35     -2.31
   -2    7    7      0.63     -2.52
   -2    7    6     -1.08      0.59
   -2    7    5      5.07      1.90
   -2    7    4     -8.60     -6.60
   -2    7    3    -10.93      4.18
   -2    7    2      1.33      0.40
   -2    7    1      1.58    -10.38
   -2    7    0     -0.07      1.85
   -2    6   15     -0.70     -1.16
   -2    6   14     -0.12      0.35
   -2    6   13     -2.30     -0.42
   -2    6   12      0.79     -0.56
   -2    6   11      0.30     -0.82
   -2    6   10      1.16      0.13
   -2    6    9      0.58      2.87
   -2    6    8     -1.87     -0.14
   -2    6    7     -3.93     -0.81
   -2    6    6     -1.49      7.57
   -2    6    5      6.77      2.68
   -2    6    4     -2.77     -2.74
   -2    6    3     -0.71     -3.93
   -2    6    2     11.67     -0.50
   -2    6    1    -14.86      6.67
   -2    6    0     -4.10      2.51
   -2    5   16     -0.04     -0.57
   -2    5   15     -0.21     -1.54
   -2    5   14      2.34      0.35
   -2    5   13      0.27     -1.38
   -2    5   12      0.66      0.57
   -2    5   11      1.30      0.94
   -2    5   10     -0.61     -1.35
   -2    5    9      0.63      2.17
   -2    5    8     -2.64      0.63
   -2    5    7      0.05     -1.28
   -2    5    6     -2.84      5.08
   -2    5    5      0.73     -0.06
   -2    5    4     -2.61     -0.60
   -2    5    3      7.47    -11.39
   -2    5    2      6.45    -10.67
   -2    5    1    -17.39     41.33
   -2    5    0     15.48    -12.67
   -2    4   16      1.07      0.59
   -2    4   15     -0.47      1.27
   -2    4   14      0.53     -0.34
   -2    4   13      0.16     -0.55
   -2    4   12     -1.21      0.36
   -2    4   11      0.09      2.84
   -2    4   10     -0.76     -0.14
   -2    4    9      0.02     -0.39
   -2    4    8     -0.18     -0.69
   -2    4    7      0.33      0.25
   -2    4    6     -2.31     -0.17
   -2    4    5      0.11     -2.06
   -2    4    4      4.75     -0.88
   -2    4    3     -0.19      0.49
   -2    4    2    -29.29      0.08
   -2    4    1      1.10     13.11
   -2    4    0     69.83    -29.02
   -3   21    2     -1.26      3.29
   -3   21    1      5.87     -0.47
   -3   21    0      2.90      0.07
   -3   21    3      4.37      2.80
   -3   20    5     -1.09      1.65
   -3   20    4      2.44      1.38
   -3   20    3      3.46      3.71
   -3   20    2     -0.20      3.50
   -3   20    1     -0.15     -0.86
   -3   20    0     -3.71      0.81
   -3   19    7     -1.08      2.06
   -3   19    6      0.34      0.47
   -3   19    5     -0.25     -0.76
   -3   19    4      1.98      0.31
   -3   19    3      0.04      1.06
   -3   19    2      0.52      0.61
   -3   19    1     -2.43     -0.40
   -3   19    0     -4.17      0.57
   -3   18    9      0.16     -1.42
   -3   18    8     -2.08     -2.06
   -3   18    7      0.08     -1.17
   -3   18    6      0.53      1.05
   -3   18    5     -0.37     -1.11
   -3   18    4     -0.27      0.59
   -3   18    3     -0.85      2.20
   -3   18    2     -0.78      0.98
   -3   18    1      0.36      0.65
   -3   18    0     -0.93      1.16
   -3   17   10     -1.05      0.07
   -3   17    9     -1.07     -0.41
   -3   17    8     -0.80     -0.27
   -3   17    7      0.28     -2.16
   -3   17    6     -1.04      0.57
   -3   17    5     -0.53      0.53
   -3   17    4     -1.18      0.89
   -3   17    3     -0.41      0.92
   -3   17    2     -0.41      0.51
   -3   17    1      1.15      0.09
   -3   17    0     -1.64      1.02
   -3   16   11     -1.34      2.41
   -3   16   10     -0.86      1.46
   -3   16    9     -1.26     -0.44
   -3   16    8      1.60     -0.58
   -3   16    7      0.01      0.06
   -3   16    6      0.04      2.78
   -3   16    5     -1.99      0.64
   -3   16    4      0.01      0.46
   -3   16    3     -0.79      0.35
   -3   16    2     -0.88     -0.37
   -3   16    1     -1.42      2.83
   -3   16    0      1.09      0.48
   -3   15   11     -0.65      2.42
   -3   15   10      1.05      0.97
   -3   15    9     -0.62     -0.51
   -3   15    8      1.81      0.46
   -3   15    7     -0.49      0.85
   -3   15    6      0.92      0.41
   -3   15    5      0.80     -0.58
   -3   15    4     -0.69     -1.52
   -3   15    3      0.69      0.08
   -3   15    2     -0.98      0.11
   -3   15    1     -1.03     -1.77
   -3   15    0      0.71      0.67
   -3   14   12     -0.55      0.39
   -3   14   11      0.57      1.44
   -3   14   10      1.89     -1.24
   -3   14    9      0.91     -0.18
   -3   14    8      0.05      2.25
   -3   14    7     -0.76     -0.58
   -3   14    6      1.69     -0.67
   -3   14    5      2.78     -0.56
   -3   14    4      0.01      1.16
   -3   14    3      1.30     -1.52
   -3   14    2      0.13     -2.99
   -3   14    1      0.72     -5.65
   -3   14    0      0.09     -0.10
   -3   13   13     -3.82      0.69
   -3   13   12     -1.11     -1.09
   -3   13   11      0.30     -0.67
   -3   13   10     -0.09     -0.45
   -3   13    9      0.45      0.93
   -3   13    8     -0.01      1.01
   -3   13    7      0.12     -2.46
   -3   13    6      1.39     -0.24
   -3   13    5      0.74      0.16
   -3   13    4      0.81      2.11
   -3   13    3      1.00     -1.38
   -3   13    2     -0.03     -1.41
   -3   13    1      0.16     -2.28
   -3   13    0      1.73      0.03
   -3   12   13     -3.01     -0.61
   -3   12   12     -0.53      0.05
   -3   12   11     -0.97     -1.07
   -3   12   10     -0.07     -0.29
   -3   12    9     -1.65      0.42
   -3   12    8      1.88      1.49
   -3   12    7      1.96      0.56
   -3   12    6     -1.50     -0.93
   -3   12    5     -1.63      1.20
   -3   12    4      0.73      1.60
   -3   12    3      0.83      0.77
   -3   12    2      0.18      3.57
   -3   12    1     -1.39     -0.90
   -3   12    0      3.37      0.72
   -3   11   14     -0.06      0.18
   -3   11   13     -0.79     -2.16
   -3   11   12      1.11     -2.14
   -3   11   11     -0.99     -0.25
   -3   11   10      1.52     -0.36
   -3   11    9      0.42     -0.21
   -3   11    8      0.21      1.38
   -3   11    7      0.72      3.57
   -3   11    6     -3.72     -1.07
   -3   11    5      0.00      2.91
   -3   11    4     -0.42      4.98
   -3   11    3      0.34      2.17
   -3   11    2     -1.41      0.23
   -3   11    1     -2.44     -0.47
   -3   11    0      1.81     -0.20
   -3   10   14      0.67     -0.35
   -3   10   13      0.27     -0.76
   -3   10   12      0.94     -1.84
   -3   10   11      2.20     -0.88
   -3   10   10      0.26     -3.65
   -3   10    9     -0.07      1.31
   -3   10    8     -1.45      0.75
   -3   10    7     -1.42     -1.11
   -3   10    6      0.31     -1.35
   -3   10    5      2.52     -2.15
   -3   10    4     -2.72      4.37
   -3   10    3      0.09     -1.21
   -3   10    2      0.68     -2.07
   -3   10    1      2.50      3.11
   -3   10    0     -2.91     -1.23
   -3    9   15      1.11     -1.96
   -3    9   14      0.37      1.19
   -3    9   13      1.60      1.55
   -3    9   12      1.11      2.37
   -3    9   11      1.03     -0.55
   -3    9   10      1.17     -5.93
   -3    9    9     -2.81      0.65
   -3    9    8     -1.05     -3.35
   -3    9    7     -0.53     -3.88
   -3    9    6      1.79     -2.21
   -3    9    5     -2.75     -5.07
   -3    9    4     -3.79     -0.66
   -3    9    3      0.91     -1.19
   -3    9    2      1.38      1.76
   -3    9    1      3.16      7.64
   -3    9    0      2.53     -1.46
   -3    8   15      0.22     -1.78
   -3    8   14      0.29      2.10
   -3    8   13      1.44      1.39
   -3    8   12     -0.11      0.91
   -3    8   11     -0.40      0.93
   -3    8   10      2.24     -4.33
   -3    8    9     -2.38     -0.17
   -3    8    8      0.91     -5.81
   -3    8    7      2.28     -3.62
   -3    8    6      1.03     -1.97
   -3    8    5     -3.99     -0.48
   -3    8    4     -5.55     -7.50
   -3    8    3      3.76     -0.18
   -3    8    2      0.83     -5.36
   -3    8    1     -2.09     -2.82
   -3    8    0      8.39      1.33
   -3    7   15     -0.90      0.08
   -3    7   14     -0.28      0.10
   -3    7   13     -0.38      0.92
   -3    7   12     -1.16     -0.99
   -3    7   11      0.43      0.70
   -3    7   10      2.62     -0.16
   -3    7    9     -0.74      1.66
   -3    7    8     -1.37     -1.55
   -3    7    7     -0.56      2.62
   -3    7    6      0.09      0.93
   -3    7    5      1.93      9.50
   -3    7    4      6.97     -4.08
   -3    7    3      1.27     -0.23
   -3    7    2     -0.59     -6.90
   -3    7    1     -4.04     -8.11
   -3    7    0      5.69      5.29
   -3    6   15      0.33     -1.83
   -3    6   14      1.43      0.25
   -3    6   13     -0.05     -0.98
   -3    6   12      0.42      0.02
   -3    6   11     -0.19     -0.24
   -3    6   10     -0.16      0.05
   -3    6    9      0.20      3.09
   -3    6    8     -2.75      0.42
   -3    6    7     -0.39     -0.40
   -3    6    6     -2.40     -0.08
   -3    6    5     -0.14      8.41
   -3    6    4     11.10      0.90
   -3    6    3      0.81     -7.48
   -3    6    2      6.22     -0.02
   -3    6    1     -1.86     24.36
   -3    6    0     -0.81      2.73
   -4   21    4      2.46     -0.44
   -4   21    3      2.66      3.10
   -4   21    2      0.55      4.39
   -4   21    1      0.81     -1.47
   -4   21    0      2.62      0.77
   -4   20    6     -0.07     -1.60
   -4   20    5     -0.85      2.34
   -4   20    4     -0.29      0.17
   -4   20    3      0.70      3.14
   -4   20    2      1.31      0.47
   -4   20    1     -1.77      0.15
   -4   20    0     -2.20      1.28
   -4   19    8      0.06     -2.10
   -4   19    7      2.67      1.31
   -4   19    6      0.94      0.76
   -4   19    5     -1.34      0.84
   -4   19    4     -0.61      1.64
   -4   19    3     -0.42      0.68
   -4   19    2     -0.69     -1.14
   -4   19    1     -0.27      0.98
   -4   19    0     -0.73      0.22
   -4   18    9      0.43     -2.35
   -4   18    8      0.56     -0.17
   -4   18    7      0.96     -0.82
   -4   18    6     -0.28      0.11
   -4   18    5     -0.05     -0.51
   -4   18    4     -0.91      1.19
   -4   18    3     -1.29     -0.15
   -4   18    2     -0.87      0.39
   -4   18    1      1.48     -0.60
   -4   18    0     -0.63      0.57
   -4   17   10      1.55      0.13
   -4   17    9      0.89     -1.21
   -4   17    8      1.16      1.47
   -4   17    7     -0.52     -1.28
   -4   17    6     -2.40     -0.03
   -4   17    5      0.99      0.22
   -4   17    4      1.18      0.78
   -4   17    3     -0.53     -0.33
   -4   17    2      0.47     -0.29
   -4   17    1     -0.34     -0.93
   -4   17    0     -0.12      0.22
   -4   16   11     -0.87      0.03
   -4   16   10      0.65      0.61
   -4   16    9     -0.75     -0.02
   -4   16    8      0.31     -0.09
   -4   16    7     -1.08     -2.76
   -4   16    6     -0.33      1.03
   -4   16    5      1.81      0.02
   -4   16    4      1.09     -1.16
   -4   16    3      0.92      2.50
   -4   16    2     -1.20     -1.80
   -4   16    1     -3.19      2.48
   -4   16    0      0.41      0.32
   -4   15   12     -0.56      1.42
   -4   15   11     -0.47     -0.57
   -4   15   10      0.33      0.23
   -4   15    9     -0.52     -1.57
   -4   15    8      0.06      0.13
   -4   15    7      0.64     -2.12
   -4   15    6      1.53     -0.06
   -4   15    5      2.07     -1.69
   -4   15    4     -0.86     -0.28
   -4   15    3      1.22     -1.01
   -4   15    2     -2.62     -0.70
   -4   15    1     -0.46     -0.46
   -4   15    0     -0.60      0.19
   -4   14   12     -0.95     -1.16
   -4   14   11     -0.63     -0.29
   -4   14   10      0.25      0.84
   -4   14    9      0.87     -1.80
   -4   14    8      0.50      0.55
   -4   14    7      1.25      0.32
   -4   14    6      0.73      1.14
   -4   14    5     -0.06     -0.43
   -4   14    4      0.86      3.33
   -4   14    3     -0.40     -3.27
   -4   14    2     -1.31      0.22
   -4   14    1      1.50      0.20
   -4   14    0     -0.25     -0.45
   -4   13   13     -3.81      1.16
   -4   13   12     -1.84     -0.81
   -4   13   11     -0.02     -2.35
   -4   13   10     -0.21     -1.06
   -4   13    9      0.01     -0.35
   -4   13    8      1.61      0.86
   -4   13    7     -0.08      0.79
   -4   13    6     -1.64      0.06
   -4   13    5      0.63     -0.14
   -4   13    4      0.90      1.62
   -4   13    3     -0.84     -4.38
   -4   13    2      0.74      3.49
   -4   13    1      1.51      0.79
   -4   13    0     -1.21      0.09
   -4   12   13     -1.82     -1.49
   -4   12   12     -0.41      0.08
   -4   12   11     -0.20     -1.79
   -4   12   10      0.93     -2.01
   -4   12    9     -0.93      0.17
   -4   12    8      1.25      2.00
   -4   12    7     -0.63      2.53
   -4   12    6     -1.47     -2.15
   -4   12    5      1.75      2.00
   -4   12    4      0.32     -0.41
   -4   12    3     -0.10     -1.95
   -4   12    2      2.17      1.06
   -4   12    1     -0.50     -0.92
   -4   12    0      0.85      0.49
   -4   11   14      1.01      1.01
   -4   11   13     -0.94     -1.95
   -4   11   12      0.45     -1.04
   -4   11   11      1.01     -1.03
   -4   11   10     -0.24     -2.39
   -4   11    9      1.16      2.80
   -4   11    8     -0.48     -0.45
   -4   11    7      0.28      0.43
   -4   11    6     -0.45     -3.53
   -4   11    5      0.73     -1.44
   -4   11    4     -0.88     -0.17
   -4   11    3      0.61      0.05
   -4   11    2      2.89     -1.94
   -4   11    1     -3.47     -2.02
   -4   11    0      1.26     -0.22
   -4   10   14      0.39     -0.09
   -4   10   13      0.80      0.58
   -4   10   12      0.20      0.93
   -4   10   11      1.70     -0.38
   -4   10   10      0.24     -2.95
   -4   10    9     -0.42      2.02
   -4   10    8     -0.79     -1.26
   -4   10    7     -0.43     -0.92
   -4   10    6     -0.36     -2.62
   -4   10    5      0.77     -6.43
   -4   10    4     -2.54      0.69
   -4   10    3      0.00      0.49
   -4   10    2      2.02      2.58
   -4   10    1     -0.06      0.40
   -4   10    0      1.88     -1.25
   -4    9   15     -0.20     -3.96
   -4    9   14     -0.24      1.20
   -4    9   13      1.05      1.37
   -4    9   12      0.56      2.57
   -4    9   11      0.04      0.54
   -4    9   10      0.39     -1.75
   -4    9    9     -1.61     -2.46
   -4    9    8     -1.16     -3.68
   -4    9    7     -0.49     -3.77
   -4    9    6     -0.35     -1.34
   -4    9    5     -0.91     -6.44
   -4    9    4     -4.83     -0.04
   -4    9    3      3.12     -0.41
   -4    9    2     -2.93      2.43
   -4    9    1     -0.14      5.70
   -4    9    0      5.15     -0.53
   -4    8   15     -0.06     -3.60
   -4    8   14      0.51      0.01
   -4    8   13     -0.13      1.32
   -4    8   12     -0.31      0.45
   -4    8   11     -0.06      1.81
   -4    8   10      1.69     -0.31
   -4    8    9     -0.26     -2.68
   -4    8    8     -1.64     -0.45
   -4    8    7      0.10     -0.86
   -4    8    6      1.90     -0.11
   -4    8    5      0.23      5.28
   -4    8    4     -1.07     -0.21
   -4    8    3     -0.39     -1.46
   -4    8    2     -3.56      0.74
   -4    8    1      0.43     -0.88
   -4    8    0      6.11      1.93
   -5   22    0      2.47      0.11
   -5   22    1      1.91     -0.95
   -5   21    5     -1.16      2.58
   -5   21    4     -1.71     -1.19
   -5   21    3      0.61     -0.59
   -5   21    2     -0.22      1.70
   -5   21    1      1.38      0.46
   -5   21    0      1.17      1.54
   -5   20    7      2.92      1.39
   -5   20    6      0.81     -2.63
   -5   20    5     -1.37      3.17
   -5   20    4     -0.91     -2.13
   -5   20    3     -0.30     -1.10
   -5   20    2     -0.77     -0.97
   -5   20    1      0.72      2.72
   -5   20    0     -1.74     -0.24
   -5   19    8     -0.40     -0.14
   -5   19    7      2.33      0.10
   -5   19    6      1.26     -1.47
   -5   19    5      0.39      0.13
   -5   19    4      0.00      0.44
   -5   19    3     -1.05     -0.44
   -5   19    2     -0.47      1.48
   -5   19    1     -0.05      2.47
   -5   19    0      1.09     -1.14
   -5   18    9      1.16     -1.27
   -5   18    8     -0.29      2.12
   -5   18    7      0.23     -0.30
   -5   18    6     -0.97     -0.49
   -5   18    5      1.83     -2.62
   -5   18    4     -0.13      0.92
   -5   18    3     -0.40     -1.60
   -5   18    2      1.30      1.58
   -5   18    1      1.22     -1.78
   -5   18    0      1.48     -0.53
   -5   17   10      1.52      0.77
   -5   17    9      0.70      0.00
   -5   17    8      0.23      0.61
   -5   17    7     -0.84     -0.02
   -5   17    6      0.00      1.05
   -5   17    5      1.24     -1.63
   -5   17    4      1.78      1.62
   -5   17    3      1.46     -0.57
   -5   17    2      1.73      0.17
   -5   17    1      0.37      2.05
   -5   17    0      0.97     -0.18
   -5   16   11     -0.37     -1.12
   -5   16   10      0.14      0.46
   -5   16    9      0.23      0.52
   -5   16    8     -0.43     -0.64
   -5   16    7      0.84     -1.65
   -5   16    6      1.01     -0.85
   -5   16    5      0.88      0.69
   -5   16    4     -1.03     -0.01
   -5   16    3      0.09     -0.64
   -5   16    2     -1.98      2.51
   -5   16    1     -0.19      3.25
   -5   16    0     -2.56      0.17
   -5   15   12     -1.23      1.72
   -5   15   11      0.07     -0.90
   -5   15   10     -0.55      0.78
   -5   15    9      0.08     -1.93
   -5   15    8      0.75     -0.81
   -5   15    7      2.60      0.36
   -5   15    6     -0.36     -1.36
   -5   15    5     -1.14      1.69
   -5   15    4     -1.31      1.36
   -5   15    3     -0.25     -4.96
   -5   15    2     -2.25      4.32
   -5   15    1      1.75     -1.07
   -5   15    0     -1.04     -0.06
   -5   14   12     -0.53     -0.24
   -5   14   11      0.58     -2.22
   -5   14   10     -1.37     -0.19
   -5   14    9     -0.27     -1.98
   -5   14    8      0.21     -0.27
   -5   14    7      0.15      3.43
   -5   14    6     -0.93      0.59
   -5   14    5     -2.43     -0.33
   -5   14    4      2.11      0.07
   -5   14    3      0.62     -3.62
   -5   14    2      0.60      3.44
   -5   14    1      1.09     -1.04
   -5   14    0     -1.68     -0.03
   -5   13   13      0.12      1.37
   -5   13   12     -1.40      0.48
   -5   13   11      0.03     -1.84
   -5   13   10     -0.97     -2.28
   -5   13    9     -1.02     -0.78
   -5   13    8     -0.64      2.04
   -5   13    7     -1.77      2.55
   -5   13    6      0.56     -0.45
   -5   13    5      1.05     -3.74
   -5   13    4      0.88     -2.44
   -5   13    3     -0.44     -1.03
   -5   13    2      2.24      1.33
   -5   13    1     -0.29      0.75
   -5   13    0     -1.98      0.26
   -5   12   13      1.09      0.40
   -5   12   12     -0.85      1.71
   -5   12   11     -0.40     -0.62
   -5   12   10     -0.66      0.03
   -5   12    9     -0.64      1.41
   -5   12    8     -0.38     -0.90
   -5   12    7     -0.79     -0.25
   -5   12    6     -0.14     -2.93
   -5   12    5      1.46     -1.87
   -5   12    4     -0.40      0.29
   -5   12    3      0.06      1.54
   -5   12    2      3.22     -0.40
   -5   12    1     -3.13     -1.00
   -5   12    0     -0.13      0.49
   -5   11   14      2.43      0.71
   -5   11   13      0.53      1.32
   -5   11   12     -1.64      0.64
   -5   11   11      0.75     -0.10
   -5   11   10     -1.58     -0.17
   -5   11    9     -0.58      1.92
   -5   11    8      1.31     -2.07
   -5   11    7      0.09     -0.79
   -5   11    6     -1.47     -2.80
   -5   11    5      0.24     -0.83
   -5   11    4     -1.17      0.78
   -5   11    3      0.95     -0.08
   -5   11    2      3.73      1.17
   -5   11    1     -3.40     -6.54
   -5   11    0     -3.28      0.47
   -5   10   14      1.56      0.29
   -5   10   13      0.07      1.68
   -5   10   12     -0.42     -0.52
   -5   10   11     -0.11      0.63
   -5   10   10     -0.78      0.03
   -5   10    9     -0.06     -1.70
   -5   10    8      1.49      0.47
   -5   10    7      0.08      0.99
   -5   10    6     -0.76     -0.13
   -5   10    5     -0.13     -2.66
   -5   10    4     -1.08      0.83
   -5   10    3      0.39      1.09
   -5   10    2     -2.07     -0.35
   -5   10    1     -0.41     -3.59
   -5   10    0      0.75      0.04
   -6   22    2     -0.94      3.71
   -6   22    1      2.13      0.98
   -6   22    0      0.13      0.87
   -6   21    5     -0.06     -0.16
   -6   21    4     -1.44     -3.58
   -6   21    3      0.25     -1.43
   -6   21    2     -0.57      0.50
   -6   21    1      1.06      0.28
   -6   21    0     -3.03      0.40
   -6   20    7     -0.13      0.27
   -6   20    6      1.69     -1.90
   -6   20    5      2.82     -0.65
   -6   20    4      0.92     -1.39
   -6   20    3      0.39      0.13
   -6   20    2     -0.50     -0.63
   -6   20    1     -0.53      1.09
   -6   20    0     -2.30     -0.87
   -6   19    8     -3.73      0.79
   -6   19    7     -0.13     -0.55
   -6   19    6      1.63     -2.05
   -6   19    5      2.91     -2.65
   -6   19    4     -0.37      0.89
   -6   19    3     -0.06      0.68
   -6   19    2      0.63      1.07
   -6   19    1     -0.87      1.60
   -6   19    0      0.77     -0.47
   -6   18    9     -1.41      0.26
   -6   18    8     -1.60      0.48
   -6   18    7     -0.16      0.78
   -6   18    6      0.35     -0.40
   -6   18    5     -2.30     -1.76
   -6   18    4     -0.31      1.63
   -6   18    3      2.01     -2.91
   -6   18    2      0.24      0.91
   -6   18    1      1.67      1.06
   -6   18    0      1.27     -0.53
   -6   17   10      1.42      2.03
   -6   17    9     -0.75      0.67
   -6   17    8      0.87     -0.82
   -6   17    7     -0.84      1.53
   -6   17    6      0.15      2.14
   -6   17    5     -3.34      0.45
   -6   17    4      1.12      1.26
   -6   17    3      0.60     -2.58
   -6   17    2      0.76      1.59
   -6   17    1      1.48      4.04
   -6   17    0      0.15      0.10
   -6   16   11      0.69      0.10
   -6   16   10      0.94      2.09
   -6   16    9      0.61     -0.43
   -6   16    8      0.72     -0.21
   -6   16    7      0.13      1.80
   -6   16    6     -0.89     -0.27
   -6   16    5      2.12      1.59
   -6   16    4     -1.29      0.36
   -6   16    3     -1.70     -3.03
   -6   16    2     -1.19      4.23
   -6   16    1      1.43      0.16
   -6   16    0     -1.48      0.76
   -6   15   12      1.15      1.39
   -6   15   11      0.82     -0.62
   -6   15   10     -2.01      2.62
   -6   15    9     -0.97     -0.76
   -6   15    8     -0.18      0.13
   -6   15    7      1.27      3.29
   -6   15    6     -0.80     -1.35
   -6   15    5      1.47      0.25
   -6   15    4     -0.03      2.15
   -6   15    3      0.52     -1.67
   -6   15    2     -0.32      2.01
   -6   15    1      0.07     -1.84
   -6   15    0      1.24      0.29
   -6   14   13      0.88      3.85
   -6   14   12     -0.05      0.72
   -6   14   11      0.07      0.19
   -6   14   10     -2.85     -0.35
   -6   14    9     -1.63     -1.51
   -6   14    8     -2.05     -0.01
   -6   14    7     -0.20      2.08
   -6   14    6      1.55     -1.29
   -6   14    5     -2.19     -3.04
   -6   14    4      0.49      0.30
   -6   14    3      1.74      0.03
   -6   14    2      0.11      0.62
   -6   14    1     -1.02      0.66
   -6   14    0      0.69     -0.05
   -6   13   13      1.27      4.79
   -6   13   12     -0.26      0.99
   -6   13   11     -0.67      0.97
   -6   13   10     -0.30     -0.40
   -6   13    9     -0.93     -3.90
   -6   13    8     -0.47      0.27
   -6   13    7     -0.66     -0.20
   -6   13    6      3.31     -0.86
   -6   13    5      0.07     -1.62
   -6   13    4     -0.52      0.05
   -6   13    3     -0.74      1.95
   -6   13    2      0.13     -0.32
   -6   13    1     -1.35      0.64
   -6   13    0      3.52     -0.13
   -6   12   14      0.47     -0.26
   -6   12   13     -0.24      3.39
   -6   12   12     -1.45      0.06
   -6   12   11      0.16     -0.06
   -6   12   10     -1.55      0.20
   -6   12    9      0.03     -0.56
   -6   12    8      0.86     -0.04
   -6   12    7     -0.06     -2.70
   -6   12    6     -0.60      0.47
   -6   12    5      0.22      0.25
   -6   12    4     -2.50     -0.28
   -6   12    3      0.16      2.24
   -6   12    2      1.83      0.19
   -6   12    1     -0.07     -4.06
   -6   12    0     -0.27      0.34
   -7   22    3      0.64     -0.33
   -7   22    2      2.78      2.69
   -7   22    1     -1.28      2.55
   -7   22    0     -0.21      0.47
   -7   21    6     -1.49      2.16
   -7   21    5      1.61     -3.09
   -7   21    4     -0.82     -1.07
   -7   21    3      1.09      0.31
   -7   21    2      0.71      0.44
   -7   21    1     -1.85      0.61
   -7   21    0     -2.43     -0.11
   -7   20    7     -2.62      0.19
   -7   20    6      1.56      0.88
   -7   20    5      3.55     -3.15
   -7   20    4      0.79      0.91
   -7   20    3      1.36      1.38
   -7   20    2      1.03     -0.47
   -7   20    1     -0.75     -0.24
   -7   20    0      0.26     -0.07
   -7   19    9     -0.83      1.36
   -7   19    8     -3.51      0.69
   -7   19    7     -0.82     -1.18
   -7   19    6     -0.12     -2.03
   -7   19    5     -0.40     -1.55
   -7   19    4      0.48     -1.34
   -7   19    3      0.80      0.42
   -7   19    2     -0.57      0.73
   -7   19    1      0.05      0.76
   -7   19    0     -0.77      0.22
   -7   18   10      0.89      2.16
   -7   18    9     -3.87      0.51
   -7   18    8      0.20      0.16
   -7   18    7     -1.19     -0.59
   -7   18    6     -1.10     -0.24
   -7   18    5     -4.29      0.88
   -7   18    4      1.14      0.20
   -7   18    3      2.98     -1.09
   -7   18    2     -1.17      0.54
   -7   18    1      0.24      1.94
   -7   18    0      0.56      0.46
   -7   17   11      1.17      0.78
   -7   17   10      1.82      2.18
   -7   17    9     -2.09     -1.58
   -7   17    8      1.27      0.46
   -7   17    7     -2.40      0.60
   -7   17    6     -0.17      2.75
   -7   17    5     -0.61      1.07
   -7   17    4      0.17      1.03
   -7   17    3     -0.59     -0.58
   -7   17    2     -1.12     -0.85
   -7   17    1      0.83      1.73
   -7   17    0     -0.11      0.82
   -7   16   11     -0.75     -0.34
   -7   16   10      0.23      3.29
   -7   16    9      0.30     -1.54
   -7   16    8      1.09      1.42
   -7   16    7     -1.14      1.42
   -7   16    6      0.02      0.18
   -7   16    5      4.71     -0.01
   -7   16    4     -0.30      2.29
   -7   16    3     -1.84     -0.74
   -7   16    2     -0.64     -1.19
   -7   16    1      1.18      0.88
   -7   16    0      0.88      0.43
   -7   15   12      2.60      0.60
   -7   15   11     -0.22      0.51
   -7   15   10     -1.98      2.02
   -7   15    9     -0.56      0.71
   -7   15    8     -1.51      0.21
   -7   15    7      0.56      1.14
   -7   15    6     -0.59     -0.70
   -7   15    5      1.75     -0.65
   -7   15    4      0.99      2.71
   -7   15    3     -0.29      2.01
   -7   15    2      0.26     -0.88
   -7   15    1     -0.77      2.98
   -7   15    0      0.92     -0.54
   -7   14   13      0.30      7.90
   -7   14   12      0.18      0.04
   -7   14   11      0.06      2.60
   -7   14   10     -1.74     -0.42
   -7   14    9     -0.12     -2.68
   -7   14    8     -2.30     -0.10
   -7   14    7      0.13      0.14
   -7   14    6      2.29      0.50
   -7   14    5     -0.16     -1.50
   -7   14    4     -1.93      0.71
   -7   14    3     -0.31     -0.08
   -7   14    2     -1.04     -0.17
   -7   14    1      0.32      2.46
   -7   14    0      2.91     -1.26
   -8   22    4     -1.67     -1.75
   -8   22    3     -0.29     -1.12
   -8   22    2      2.92      2.03
   -8   22    1     -2.44      4.39
   -8   22    0      2.28     -0.20
   -8   21    6     -0.72      4.10
   -8   21    5     -0.26     -1.77
   -8   21    4      0.34      0.56
   -8   21    3      1.68     -0.43
   -8   21    2      0.81      1.92
   -8   21    1     -0.27      3.32
   -8   21    0     -1.59     -0.10
   -8   20    8     -1.59     -1.19
   -8   20    7     -1.19     -2.84
   -8   20    6     -0.76      3.83
   -8   20    5      0.47     -2.51
   -8   20    4      1.03     -0.46
   -8   20    3     -0.97      1.39
   -8   20    2      0.18      3.92
   -8   20    1     -0.53      0.68
   -8   20    0      0.60     -0.03
   -8   19    9     -0.30      1.08
   -8   19    8     -0.24      0.22
   -8   19    7     -1.09     -2.60
   -8   19    6     -1.48     -0.53
   -8   19    5     -0.84     -0.99
   -8   19    4      2.08     -1.78
   -8   19    3      0.42      1.62
   -8   19    2     -1.74      3.81
   -8   19    1      0.34     -0.75
   -8   19    0      0.19      0.42
   -8   18   10      1.25      1.74
   -8   18    9     -2.88      0.33
   -8   18    8     -0.02      2.06
   -8   18    7     -1.62     -1.29
   -8   18    6     -0.34     -0.19
   -8   18    5     -0.13      1.25
   -8   18    4      1.45      1.58
   -8   18    3      1.07      2.15
   -8   18    2      0.39     -0.10
   -8   18    1      0.02     -0.24
   -8   18    0     -1.06      0.30
   -8   17   11      0.32      3.28
   -8   17   10      2.11      1.13
   -8   17    9     -0.90     -2.42
   -8   17    8     -0.59      1.28
   -8   17    7     -1.32     -1.85
   -8   17    6      1.58      0.72
   -8   17    5      1.25      2.05
   -8   17    4     -2.54      1.23
   -8   17    3     -1.04     -0.32
   -8   17    2     -1.00     -1.63
   -8   17    1      0.15      1.09
   -8   17    0     -2.98     -0.06
   -8   16   11     -0.19     -0.17
   -8   16   10      0.56      0.49
   -8   16    9      0.10     -1.72
   -8   16    8      1.28      0.05
   -8   16    7     -0.32     -0.62
   -8   16    6      0.74     -0.11
   -8   16    5      0.21      0.73
   -8   16    4     -0.65     -0.37
   -8   16    3      0.11     -0.30
   -8   16    2      0.30     -0.09
   -8   16    1     -0.25      2.69
   -8   16    0      1.40     -0.30
   -9   22    4     -0.06     -0.50
   -9   22    3     -0.72     -1.67
   -9   22    2     -0.04      1.95
   -9   22    1     -1.58      5.12
   -9   22    0     -0.19     -0.18
   -9   21    6      0.89      4.82
   -9   21    5     -1.61     -0.12
   -9   21    4     -0.84      1.68
   -9   21    3      0.12     -0.46
   -9   21    2     -0.62      4.32
   -9   21    1      1.35      3.91
   -9   21    0      0.40     -0.35
   -9   20    8     -1.80     -1.51
   -9   20    7      0.60     -4.47
   -9   20    6      0.07      3.76
   -9   20    5     -0.94     -1.56
   -9   20    4     -0.87      0.66
   -9   20    3     -2.85     -0.20
   -9   20    2     -1.48      6.77
   -9   20    1      0.56      0.48
   -9   20    0      0.19     -0.41
   -9   19    9      0.17      2.94
   -9   19    8      0.18      0.64
   -9   19    7     -0.64     -3.20
   -9   19    6     -0.25      0.12
   -9   19    5      0.17     -0.89
   -9   19    4      0.48      0.29
   -9   19    3     -0.12      0.05
   -9   19    2      1.04      2.55
   -9   19    1      0.40     -3.57
   -9   19    0      0.53     -0.12
   -9   18   10      1.24     -0.32
   -9   18    9      0.22      1.40
   -9   18    8     -1.52      0.09
   -9   18    7     -0.09     -1.84
   -9   18    6      0.56      0.15
   -9   18    5      0.05      1.58
   -9   18    4      0.36      0.02
   -9   18    3     -0.11      2.23
   -9   18    2      2.54      0.20
   -9   18    1      0.36     -1.81
   -9   18    0     -2.74     -0.40
  -10   23    1     -2.46      2.89
  -10   23    0      1.63      0.57
  -10   22    4     -3.04      1.73
  -10   22    3     -0.44      0.01
  -10   22    2     -0.14      1.78
  -10   22    1      0.90      2.61
  -10   22    0      1.31      1.23
  -10   21    6      2.77      2.63
  -10   21    5     -1.05      0.75
  -10   21    4     -3.83      1.29
  -10   21    3      0.02     -1.56
  -10   21    2      0.90      2.36
  -10   21    1      1.27     -0.10
  -10   21    0      2.39      0.31
  -10   20    8     -2.86      0.13
  -10   20    7      0.03     -4.87
  -10   20    6      1.67     -0.21
  -10   20    5     -0.32     -1.22
  -10   20    4     -2.48      0.31
  -10   20    3      0.22     -2.95
  -10   20    2     -1.42     -0.02
  -10   20    1     -0.21     -0.81
  -10   20    0     -0.47      0.40
  -11   23    1     -0.35      4.80
  -11   23    0      1.77      2.59
  -11   22    5      0.56      1.17
  -11   22    4     -4.76     -0.55
  -11   22    3     -0.18      0.74
  -11   22    2      1.56     -0.17
  -11   22    1      0.00     -0.11
  -11   22    0      3.31      2.64
   -6   18   10      0.44      1.33
   -2   21    0     -0.40     -1.18
   -1   21    0     -4.18     -1.52
    0   21    0     -3.54      1.09
   -4   22    0      1.70     -0.26
   -3   22    0      2.60      0.45
   -2   22    0      1.20     -0.68
   -1   22    0     -0.77     -0.22
    0   22    0     -0.60      0.48
   -9   23    0      2.69     -0.21
   -8   23    0      2.37      0.06
   -7   23    0     -0.32      0.09
   -6   23    0      0.54     -0.33
   -5   23    0     -0.06     -0.53
   -4   23    0     -0.52      0.21
   -3   23    0      1.58      0.08
   -2   23    0      1.04     -0.62
    0   20    1     -3.32      0.11
   -2   21    1      4.87     -2.83
   -1   21    1     -2.20     -1.49
    0   21    1     -5.29      1.35
   -4   22    1      2.33      0.19
   -3   22    1      2.87      1.56
   -2   22    1      0.36     -1.37
   -1   22    1     -1.70      0.72
    0   22    1      0.03      0.05
   -9   23    1     -2.26      0.62
   -8   23    1     -2.52      1.38
   -7   23    1      0.21      2.25
   -6   23    1      1.79      2.40
   -5   23    1      0.08      0.38
   -4   23    1     -0.03      1.68
   -3   23    1      0.37      0.67
   -2   23    1      0.06      0.03
    0    0    2    -23.22     -0.25
    0   20    2      1.72      0.13
   -2   21    2     -2.89      0.95
   -1   21    2     -0.87      3.14
    0   21    2      1.14      0.41
   -5   22    2     -2.24      3.36
   -4   22    2     -0.34      3.61
   -3   22    2     -0.16      0.09
   -2   22    2     -0.25      0.24
   -1   22    2      0.35      1.49
    0   22    2      0.18      0.17
  -11   23    2      0.83      1.69
  -10   23    2     -0.60      2.71
   -9   23    2      1.42      1.48
   -8   23    2      2.22      0.69
   -7   23    2      0.71      1.84
   -6   23    2     -0.77      2.11
   -5   23    2     -0.68      1.83
   -4   23    2     -0.10      0.67
   -3   23    2      0.05     -1.91
    0   20    3     -0.96      0.08
   -2   21    3      1.94      2.43
   -1   21    3     -0.92      0.32
    0   21    3     -1.73     -0.39
   -6   22    3      2.09     -2.45
   -5   22    3      2.12     -1.50
   -4   22    3      2.23      0.47
   -3   22    3      1.14      1.77
   -2   22    3      0.75      1.68
   -1   22    3      0.62     -0.48
  -11   23    3     -0.91      0.99
  -10   23    3     -2.09     -0.28
   -9   23    3     -0.76     -1.61
   -8   23    3     -0.58     -0.66
   -7   23    3      0.03     -0.55
   -6   23    3      1.45     -1.65
   -5   23    3      2.16     -0.48
   -4   23    3      0.46      0.24
   -3   23    3     -0.12      0.61
   -1   20    4      1.92     -0.78
    0   20    4      0.22     -0.26
   -3   21    4      3.90      0.62
   -2   21    4      3.07      0.39
   -1   21    4     -0.14     -0.20
    0   21    4     -3.42      0.08
   -7   22    4     -1.74     -1.89
   -6   22    4     -0.65     -0.47
   -5   22    4      1.43     -0.46
   -4   22    4      2.77     -1.57
   -3   22    4      1.03      0.46
   -2   22    4     -0.12      1.23
   -1   22    4     -0.56      0.82
  -11   23    4     -2.82      0.79
  -10   23    4     -1.05      0.56
   -9   23    4     -0.26     -1.31
   -8   23    4     -0.68     -1.30
   -7   23    4      0.48     -0.56
   -6   23    4      0.92      1.04
   -5   23    4      1.42     -0.09
   -4   23    4      0.14     -0.11
   -2   20    5      0.54      0.65
   -1   20    5     -0.50      0.06
    0   20    5     -2.32     -0.28
   -4   21    5     -1.36      2.65
   -3   21    5     -0.63      1.07
   -2   21    5      1.92     -0.35
   -1   21    5      0.18     -0.54
    0   21    5     -1.31     -0.16
  -10   22    5     -1.46      2.12
   -9   22    5     -1.27      1.31
   -8   22    5     -0.72     -1.91
   -7   22    5     -0.93     -2.66
   -6   22    5     -1.35      0.68
   -5   22    5     -0.44      1.21
   -4   22    5     -0.60      0.45
   -3   22    5      0.78     -0.35
   -2   22    5      0.83      0.64
  -11   23    5     -0.14      0.54
  -10   23    5      0.43      1.42
   -9   23    5      0.73      0.34
   -8   23    5     -0.39     -1.08
   -7   23    5     -1.37      0.20
   -6   23    5     -0.61      0.71
   -5   23    5     -0.15      0.33
   -4   23    5     -0.20      0.14
    0   19    6      2.23      0.58
   -3   20    6      0.89     -1.06
   -2   20    6      2.03      0.86
   -1   20    6      1.07      0.15
    0   20    6      0.60      0.74
   -6   21    6     -1.02     -0.66
   -5   21    6      0.30     -1.38
   -4   21    6     -0.27     -1.10
   -3   21    6     -0.37     -0.05
   -2   21    6     -0.65      0.82
   -1   21    6     -0.03     -0.70
  -11   22    6      3.54      0.12
  -10   22    6      2.19      0.87
   -9   22    6     -0.91      1.65
   -8   22    6     -2.99      2.37
   -7   22    6     -2.53      1.72
   -6   22    6     -1.16      1.00
   -5   22    6     -0.82      1.42
   -4   22    6     -0.76      0.11
   -3   22    6     -0.44      0.13
  -11   23    6      1.56     -0.70
  -10   23    6     -0.78     -0.70
   -9   23    6     -1.58      0.66
   -8   23    6     -0.70      0.92
   -7   23    6     -0.66      0.42
   -6   23    6     -1.35      1.40
   -5   23    6     -0.98      0.81
   -1   19    7     -0.87      0.77
    0   19    7     -0.05      0.09
   -4   20    7      2.59      1.57
   -3   20    7     -0.13      2.31
   -2   20    7     -0.33      1.94
   -1   20    7      0.16      0.88
    0   20    7     -0.50      0.08
  -10   21    7      0.40     -2.18
   -9   21    7     -0.07     -2.66
   -8   21    7     -2.06     -0.62
   -7   21    7     -1.79      0.88
   -6   21    7     -0.05      0.43
   -5   21    7      1.58      0.36
   -4   21    7      1.74      0.49
   -3   21    7      0.81      1.15
   -2   21    7      0.57      0.15
  -11   22    7     -0.27      0.06
  -10   22    7      0.13     -0.11
   -9   22    7     -0.09      0.03
   -8   22    7     -0.89      0.92
   -7   22    7     -0.71      0.22
   -6   22    7     -0.07      0.18
   -5   22    7     -0.02     -0.86
   -4   22    7     -0.39     -0.49
  -11   23    7      0.45      1.27
  -10   23    7      0.78      0.77
   -9   23    7     -0.84      0.60
   -8   23    7     -0.56     -0.19
   -7   23    7      0.32     -0.45
   -1   18    8     -0.20      0.37
    0   18    8      0.57      0.81
   -3   19    8     -1.81     -0.86
   -2   19    8     -0.37     -1.01
   -1   19    8      0.93     -1.12
    0   19    8      1.88     -0.55
   -7   20    8     -1.85      0.10
   -6   20    8     -0.14      0.42
   -5   20    8      0.34     -0.45
   -4   20    8     -1.33     -0.15
   -3   20    8     -0.86     -0.14
   -2   20    8      0.49     -1.18
   -1   20    8      0.32     -1.05
  -10   21    8     -2.95     -0.22
   -9   21    8     -0.78     -0.62
   -8   21    8     -0.96      0.17
   -7   21    8      0.48      0.74
   -6   21    8      2.01      0.55
   -5   21    8      0.21     -0.90
   -4   21    8     -1.19      0.30
   -3   21    8      0.15      0.65
  -11   22    8     -0.69      0.15
  -10   22    8     -0.06     -0.54
   -9   22    8     -0.75      0.49
   -8   22    8     -0.70      1.08
   -7   22    8      0.75      0.56
   -6   22    8      1.27     -0.50
  -11   23    8     -0.28     -0.78
    0   17    9     -1.56      0.36
   -2   18    9      0.18     -0.39
   -1   18    9     -1.43      0.74
    0   18    9     -1.71      0.22
   -6   19    9     -0.53      1.07
   -5   19    9     -0.40     -1.26
   -4   19    9      0.03     -2.96
   -3   19    9      1.63     -2.20
   -2   19    9      0.87     -0.22
   -1   19    9     -0.27      0.51
    0   19    9     -0.52     -0.02
  -10   20    9     -0.24      2.92
   -9   20    9      1.14      1.01
   -8   20    9      0.11      0.02
   -7   20    9      0.39      0.30
   -6   20    9      1.37     -0.02
   -5   20    9      0.07     -1.24
   -4   20    9     -0.09     -0.88
   -3   20    9      1.05     -0.37
   -2   20    9      0.74     -0.08
  -10   21    9     -0.60     -0.21
   -9   21    9     -0.65     -0.43
   -8   21    9      0.26     -0.54
   -7   21    9      1.33     -0.40
   -6   21    9      0.97     -0.06
   -5   21    9     -0.19      0.16
  -11   22    9      0.14     -1.21
  -10   22    9     -0.11     -0.70
   -9   22    9      0.05      0.16
   -8   22    9      0.31      0.06
    0   16   10     -1.61      0.78
   -2   17   10     -4.54      0.34
   -1   17   10     -3.13      1.42
    0   17   10     -0.38      0.14
   -5   18   10      1.88      0.63
   -4   18   10      2.10     -0.32
   -3   18   10      0.61     -1.37
   -2   18   10     -0.30     -0.28
   -1   18   10      0.68      1.20
    0   18   10     -0.40     -0.36
   -9   19   10     -1.62      0.76
   -8   19   10     -0.57      1.01
   -7   19   10      0.94      0.02
   -6   19   10      1.58     -0.28
   -5   19   10      0.75      0.14
   -4   19   10      1.33     -0.13
   -3   19   10      1.63     -0.45
   -2   19   10      1.45     -0.13
   -1   19   10      0.32      0.25
  -10   20   10     -1.39      0.20
   -9   20   10     -0.52      0.21
   -8   20   10     -0.09     -0.68
   -7   20   10      0.28     -0.72
   -6   20   10      0.08      0.01
   -5   20   10     -0.28      0.19
   -4   20   10     -0.15      0.46
  -10   21   10      1.52      0.50
   -9   21   10     -0.32      0.28
   -8   21   10     -1.29     -0.26
   -7   21   10     -0.66      0.25
    0   15   11     -1.09      0.21
   -2   16   11     -2.21      1.21
   -1   16   11     -1.30      0.77
    0   16   11     -0.95     -0.12
   -6   17   11     -0.46     -0.33
   -5   17   11     -1.25     -1.60
   -4   17   11     -0.27     -0.80
   -3   17   11     -0.44     -0.13
   -2   17   11     -0.30      0.51
   -1   17   11      0.53      0.68
    0   17   11      0.61     -0.31
   -9   18   11      0.11      4.80
   -8   18   11      1.91      2.06
   -7   18   11      1.55      0.31
   -6   18   11     -0.38     -0.59
   -5   18   11     -0.06     -0.53
   -4   18   11      0.50      0.03
   -3   18   11     -0.11     -0.08
   -2   18   11      0.62     -0.49
   -1   18   11      0.76      0.03
   -9   19   11      0.91      0.58
   -8   19   11      0.98     -0.81
   -7   19   11      0.25      0.48
   -6   19   11      0.62      1.13
   -5   19   11      0.81      0.94
   -4   19   11     -0.05      0.50
  -10   20   11      0.03      0.47
   -9   20   11      0.10     -1.07
   -8   20   11     -0.44     -0.90
   -7   20   11     -0.46      0.24
    0   14   12     -1.15      0.55
   -3   15   12      0.02      1.11
   -2   15   12     -1.92     -0.02
   -1   15   12     -1.80     -0.46
    0   15   12     -1.69     -0.31
   -8   16   12      3.69     -0.50
   -7   16   12      1.70      0.54
   -6   16   12     -0.99      1.66
   -5   16   12     -0.75      0.70
   -4   16   12      0.83     -0.18
   -3   16   12     -0.65     -0.43
   -2   16   12     -0.37     -0.42
   -1   16   12     -0.27     -0.24
    0   16   12     -0.75     -0.14
   -8   17   12     -0.38     -0.16
   -7   17   12     -0.33      0.56
   -6   17   12     -0.40     -0.48
   -5   17   12      0.43     -1.72
   -4   17   12      0.35     -1.15
   -3   17   12     -0.17     -0.01
   -2   17   12      0.45      0.46
   -1   17   12      0.05      0.32
   -9   18   12     -0.85      0.41
   -8   18   12     -0.91      0.23
   -7   18   12     -0.80      0.40
   -6   18   12     -0.87     -0.69
   -5   18   12     -0.03     -0.77
   -4   18   12      0.37     -0.07
   -9   19   12     -0.14     -0.15
   -8   19   12     -0.31      0.59
   -7   19   12     -0.60      0.61
   -1   13   13      0.97     -0.77
    0   13   13      2.97     -0.18
   -5   14   13     -0.77      1.07
   -4   14   13     -1.57      0.73
   -3   14   13     -1.08     -0.40
   -2   14   13     -0.36     -1.16
   -1   14   13      1.77     -0.40
    0   14   13      1.23      0.13
   -7   15   13      0.46      4.18
   -6   15   13      1.56      0.68
   -5   15   13      1.05     -0.42
   -4   15   13      0.13     -0.51
   -3   15   13     -0.91      0.11
   -2   15   13     -0.14     -0.02
   -1   15   13     -0.60      0.19
    0   15   13     -1.03     -0.18
   -8   16   13     -0.08      0.06
   -7   16   13      0.12     -0.80
   -6   16   13     -0.03      0.12
   -5   16   13     -0.21      0.58
   -4   16   13     -0.13      0.22
   -3   16   13     -0.60     -0.53
   -2   16   13     -0.60     -0.41
   -1   16   13     -0.65      0.24
   -8   17   13     -0.63     -0.90
   -7   17   13     -1.13     -1.23
   -6   17   13     -1.12      0.22
   -5   17   13     -0.18      0.47
   -4   17   13      0.10     -0.17
   -1   11   14     -1.08      1.04
    0   11   14     -0.61     -0.15
   -5   12   14     -0.34      0.29
   -4   12   14      0.84     -0.28
   -3   12   14      0.72     -0.45
   -2   12   14     -0.93      0.06
   -1   12   14     -1.04     -0.27
    0   12   14     -0.11      0.13
   -6   13   14     -1.22     -1.20
   -5   13   14     -1.48     -1.30
   -4   13   14      0.51     -0.47
   -3   13   14      0.72      0.15
   -2   13   14      0.47     -0.01
   -1   13   14      0.51     -0.25
    0   13   14      0.51      0.21
   -7   14   14      1.08     -0.09
   -6   14   14     -0.01      0.44
   -5   14   14     -0.63      0.58
   -4   14   14      0.17      0.05
   -3   14   14      0.01      0.22
   -2   14   14     -0.31     -0.29
   -1   14   14     -0.21     -0.22
    0   14   14      0.56     -0.08
   -7   15   14      1.51     -0.18
   -6   15   14      0.21      1.08
   -5   15   14      0.16      0.37
   -4   15   14     -0.01     -0.59
   -3   15   14     -0.91     -0.53
   -2   15   14     -0.85      0.08
   -8   16   14      0.61     -0.17
   -7   16   14     -0.15     -0.97
   -6   16   14     -0.57     -0.24
   -5   16   14      0.53     -0.41
   -2    9   15      1.38     -1.30
   -1    9   15      0.58     -0.85
    0    9   15     -0.32     -0.38
   -5   10   15     -0.16     -1.48
   -4   10   15     -0.37     -1.72
   -3   10   15     -0.07     -2.33
   -2   10   15     -0.45     -1.03
   -1   10   15     -0.11     -0.23
    0   10   15     -0.09      0.32
   -5   11   15     -0.74      0.04
   -4   11   15     -0.39      0.08
   -3   11   15     -0.59      0.35
   -2   11   15     -0.45      0.38
   -1   11   15      0.18     -0.18
    0   11   15     -0.33      0.07
   -6   12   15      0.07      1.32
   -5   12   15     -0.22      0.87
   -4   12   15      0.89      0.08
   -3   12   15      0.45     -0.01
   -2   12   15      0.15      0.33
   -1   12   15     -0.74      0.01
    0   12   15     -0.73     -0.05
   -6   13   15     -0.31      0.61
   -5   13   15      0.52     -0.76
   -4   13   15      0.67     -0.78
   -3   13   15      0.17      0.03
   -2   13   15      0.10      0.27
   -1   13   15     -0.24      0.20
   -7   14   15     -0.35     -1.28
   -6   14   15     -0.21     -0.62
   -5   14   15      0.02      0.24
   -4   14   15     -0.52      0.26
   -1    5   16     -0.96     -0.61
    0    5   16     -1.24      0.31
   -3    6   16     -1.13     -0.13
   -2    6   16     -1.04     -1.05
   -1    6   16     -0.80     -0.33
    0    6   16      1.93      0.42
   -3    7   16     -0.05      0.46
   -2    7   16      0.27      1.00
   -1    7   16      0.90      0.38
    0    7   16      0.42     -0.22
   -4    8   16     -0.53     -0.01
   -3    8   16      0.60      0.66
   -2    8   16      0.19      0.51
   -1    8   16     -0.96     -0.14
    0    8   16     -1.19     -0.02
   -4    9   16     -0.34     -0.03
   -3    9   16     -0.61     -0.07
   -2    9   16      0.25     -0.77
   -1    9   16      0.22     -0.72
    0    9   16     -0.61      0.09
   -5   10   16      0.42     -0.02
   -4   10   16      0.32     -0.05
   -3   10   16      0.30     -0.13
   -2   10   16      0.19     -0.28
   -1   10   16     -0.05     -0.47
    0   10   16     -0.22     -0.01
   -5   11   16      0.41     -0.24
   -4   11   16      0.44      0.18
   -3   11   16      0.15      0.39
   -2   11   16     -0.03      0.77
   -1   11   16      0.08     -0.02
   -6   12   16     -0.36     -0.18
   -5   12   16     -0.35      0.02
   -4   12   16     -0.15      0.04
    0    0    0      0.00      0.00
# SQUEEZE RESULTS (Version =  71116)
# Note: Data are Listed for all Voids in the P1 Unit Cell
# i.e. Centre of Gravity, Solvent Accessible Volume,
# Recovered number of Electrons in the Void and
# Details about the Squeezed Material
loop_
  _platon_squeeze_void_nr
  _platon_squeeze_void_average_x
  _platon_squeeze_void_average_y
  _platon_squeeze_void_average_z
  _platon_squeeze_void_volume
  _platon_squeeze_void_count_electrons
  _platon_squeeze_void_content
   1  0.000  0.000 -0.012      1918       848 ' '
   2  0.667  0.333  0.250        13         0 ' '
   3  0.333  0.667  0.750        13         0 ' '
# Missing Reflections Below sin(th)/lambda = 0.25
loop_
  _platon_missing_refln_index_h
  _platon_missing_refln_index_k
  _platon_missing_refln_index_l
  _platon_missing_refln_theta
    0    0    2     2.923
_platon_squeeze_void_probe_radius                  1.20
_platon_squeeze_details
 Some residual electron densities, which should be considered 
 as peaks from heavily disordered solvent molecules and 
 counterions, did not give a chemical meaningful result after 
 a careful refinement. Therefore, the contributions of the 
 disordered solvent molecules and counterions were removed 
 from the diffraction data using the SQUEEZE routine of PLATON 
 software and then final refinements were carried out. The 
 final platon.sqf file was attached to the CIF file and the 
 electron numbers in the void obtained from the platon.sqf 
 file has been used to calculate the guest solvent molecules 
 crystallizing in the pore.These molecules are further 
 estimated by TGA analysis combining with element analysis, 
 which showed that there are 4 NO3- anions and 12 free water 
 molecules in the unit cell. Since these anions and solvent 
 moleculars are absent from the model, the calculated 
 molecular formula would be incorrect.Finally,the results 
 were introduced to the formula unit directly which 
 consequently generates significant A-level and B-level 
 errors (e.g. density, chemical formula, density) in the 
 final CIF output.
)
TITL OO in P6(3)22
CELL   19.6030   19.6030   13.9390     90.00     90.00    120.00
SPGR P6322
# Solvent Accessible Volume =      1943
# Electrons Found in S.A.V. =       846
# Note: Atoms in Void as Cxxx and Qxxx all others
C101 0.313 0.154 0.326 !       1.52 eA-3
C102 0.641 0.825 0.780 !       1.43 eA-3
C103 0.591 0.781 0.759 !       1.39 eA-3
C104 0.961 0.968 0.421 !       1.36 eA-3
C105 0.896 0.925 0.402 !       1.28 eA-3
C106 0.873 0.908 0.325 !       1.24 eA-3
C107 0.188 0.108 0.807 !       1.20 eA-3
C108 0.895 0.906 0.695 !       1.19 eA-3
C109 0.011 0.235 0.895 !       1.18 eA-3
C110 0.908 0.847 0.717 !       1.17 eA-3
C111 0.858 0.890 0.634 !       1.17 eA-3
C112 0.789 0.137 0.185 !       1.17 eA-3
C113 0.215 0.047 0.018 !       1.17 eA-3
C114 1.000 1.007 0.568 !       1.16 eA-3
C115 0.969 0.982 0.130 !       1.16 eA-3
C116 0.898 0.938 0.268 !       1.15 eA-3
C117 0.850 0.909 0.889 !       1.15 eA-3
C118 0.010 0.906 0.794 !       1.15 eA-3
C119 0.870 0.890 0.512 !       1.14 eA-3
C120 0.892 0.983 0.803 !       1.14 eA-3
C121 0.936 0.894 0.136 !       1.13 eA-3
C122 0.898 0.060 0.783 !       1.13 eA-3
C123 0.979 0.936 0.459 !       1.12 eA-3
C124 0.850 0.110 0.452 !       1.11 eA-3
C125 0.956 0.941 0.186 !       1.10 eA-3
C126 0.101 0.251 0.138 !       1.10 eA-3
C127 0.907 0.973 0.771 !       1.10 eA-3
C128 0.263 0.111 0.225 !       1.09 eA-3
C129 0.781 0.030 0.650 !       1.08 eA-3
C130 0.089 0.213 0.033 !       1.08 eA-3
C131 0.919 0.911 0.451 !       1.07 eA-3
C132 0.053 0.172 0.826 !       1.07 eA-3
C133 0.076 0.943 0.202 !       1.07 eA-3
C134 0.845 0.128 0.385 !       1.06 eA-3
C135 0.837 0.829 0.525 !       1.06 eA-3
C136 0.233 0.061 0.061 !       1.05 eA-3
C137 0.050 0.170 0.035 !       1.04 eA-3
C138 0.985 0.932 0.776 !       1.03 eA-3
C139 0.093 0.231 0.576 !       1.03 eA-3
C140 0.104 0.234 0.164 !       1.02 eA-3
C141 0.960 0.939 0.120 !       1.02 eA-3
C142 0.864 0.826 0.709 !       1.01 eA-3
C143 0.084 0.223 0.099 !       1.01 eA-3
C144 0.112 0.154 0.910 !       1.00 eA-3
C145 0.775 0.721 0.883 !       1.00 eA-3
C146 0.876 0.875 0.067 !       1.00 eA-3
C147 0.203 0.079 0.473 !       0.99 eA-3
C148 0.112 0.269 0.659 !       0.99 eA-3
Q149 0.017 0.188 0.574 !       0.99 eA-3
C150 0.115 0.217 0.949 !       0.99 eA-3
C151 0.203 0.081 0.197 !       0.99 eA-3
Q152 0.817 0.829 0.582 !       0.99 eA-3
C153 0.998 1.000 0.203 !       0.98 eA-3
C154 0.025 0.778 0.661 !       0.97 eA-3
Q155 0.091 0.753 0.879 !       0.97 eA-3
C156 0.081 0.205 0.517 !       0.97 eA-3
C157 0.087 0.798 0.397 !       0.97 eA-3
C158 0.190 0.059 0.764 !       0.95 eA-3
C159 0.763 0.625 0.387 !       0.94 eA-3
C160 0.598 0.735 0.599 !       0.94 eA-3
C161 0.768 0.575 0.330 !       0.93 eA-3
C162 0.225 1.000 0.038 !       0.92 eA-3
C163 0.021 0.967 0.582 !       0.92 eA-3
C164 0.065 0.239 0.759 !       0.92 eA-3
C165 0.790 0.060 0.443 !       0.92 eA-3
C166 0.969 0.970 0.501 !       0.91 eA-3
Q167 0.061 0.218 0.345 !       0.91 eA-3
C168 0.050 0.222 0.790 !       0.90 eA-3
C169 0.919 0.914 0.873 !       0.90 eA-3
C170 0.762 0.814 0.093 !       0.89 eA-3
C171 0.131 0.864 0.922 !       0.89 eA-3
C172 0.641 0.798 0.526 !       0.88 eA-3
C173 0.809 0.780 0.159 !       0.88 eA-3
C174 0.175 0.094 0.909 !       0.87 eA-3
C175 0.231 0.047 0.146 !       0.87 eA-3
Q176 0.171 0.171 0.909 !       0.87 eA-3
C177 0.880 0.080 0.973 !       0.85 eA-3
C178 0.170 0.142 0.036 !       0.84 eA-3
C179 0.840 0.831 0.223 !       0.83 eA-3
Q180 0.214 0.043 0.578 !       0.83 eA-3
C181 0.145 0.015 0.888 !       0.82 eA-3
C182 0.308 0.163 0.084 !       0.82 eA-3
Q183 0.053 0.206 0.390 !       0.82 eA-3
C184 0.989 0.855 0.345 !       0.81 eA-3
C185 0.887 0.938 0.951 !       0.81 eA-3
C186 0.952 0.889 0.641 !       0.81 eA-3
Q187 0.243 0.109 0.585 !       0.80 eA-3
Q188 0.766 0.642 0.805 !       0.80 eA-3
C189 0.070 0.801 0.332 !       0.80 eA-3
C190 0.810 0.825 0.872 !       0.80 eA-3
C191 0.924 0.813 0.451 !       0.80 eA-3
Q192 0.782 0.061 0.226 !       0.79 eA-3
C193 0.791 0.092 0.330 !       0.79 eA-3
Q194 0.071 0.782 0.782 !       0.78 eA-3
C195 0.063 0.174 0.988 !       0.78 eA-3
C196 0.103 0.220 0.878 !       0.78 eA-3
C197 0.846 0.811 0.093 !       0.78 eA-3
C198 0.202 0.075 0.266 !       0.76 eA-3
C199 0.039 0.201 0.258 !       0.76 eA-3
)
;
_shelx_fab_checksum              30040
loop_
_space_group_symop_operation_xyz
'x, y, z'
'-x, -y, z+1/2'
'-y, x-y, z'
'-x+y, -x, z'
'x-y, x, z+1/2'
'y, -x+y, z+1/2'
'x-y, -y, -z'
'-x, -x+y, -z'
'y, x, -z'
'-y, -x, -z+1/2'
'x, x-y, -z+1/2'
'-x+y, y, -z+1/2'
loop_
_atom_site_label
_atom_site_type_symbol
_atom_site_fract_x
_atom_site_fract_y
_atom_site_fract_z
_atom_site_U_iso_or_equiv
_atom_site_adp_type
_atom_site_occupancy
_atom_site_site_symmetry_order
_atom_site_calc_flag
_atom_site_refinement_flags_posn
_atom_site_refinement_flags_adp
_atom_site_refinement_flags_occupancy
Cu1 Cu 0.666667 0.333333 0.60138(9) 0.0599(4) Uani 1 3 d S T P
Cu2 Cu 0.73834(3) 0.26166(3) 0.750000 0.0625(4) Uani 1 2 d S T P
Cu3 Cu 1.000000 0.45958(9) 0.500000 0.0936(6) Uani 1 2 d S T P
N2 N 0.8075(3) 0.3328(4) 0.6611(4) 0.0624(15) Uani 1 1 d . . .
N1 N 0.7796(3) 0.3703(3) 0.6010(4) 0.0649(17) Uani 1 1 d . . .
N3 N 0.9033(4) 0.4090(4) 0.5641(5) 0.0783(18) Uani 1 1 d . . .
C1 C 0.8377(4) 0.4157(7) 0.5443(5) 0.079(2) Uani 1 1 d . . .
C2 C 0.8816(5) 0.3567(5) 0.6366(5) 0.073(2) Uani 1 1 d . . .
C3 C 0.9295(5) 0.3339(7) 0.6885(8) 0.121(4) Uani 1 1 d D U .
H3 H 0.894626 0.295523 0.736116 0.145 Uiso 1 1 calc R U .
C4 C 0.8232(7) 0.4649(6) 0.4730(5) 0.146(5) Uani 1 1 d D U .
H4 H 0.769656 0.455807 0.481890 0.175 Uiso 1 1 calc R U .
C5 C 0.8318(8) 0.4428(7) 0.3711(7) 0.175(6) Uani 1 1 d D U .
H5A H 0.796883 0.387416 0.361658 0.263 Uiso 1 1 calc R U .
H5B H 0.818795 0.471969 0.326677 0.263 Uiso 1 1 calc R U .
H5C H 0.885142 0.455053 0.360690 0.263 Uiso 1 1 calc R U .
C8 C 1.0016(8) 0.3934(7) 0.7440(10) 0.213(6) Uani 1 1 d D U .
H8A H 1.026150 0.367130 0.774042 0.320 Uiso 1 1 calc R U .
H8B H 1.038232 0.432919 0.700750 0.320 Uiso 1 1 calc R U .
H8C H 0.985979 0.417890 0.792155 0.320 Uiso 1 1 calc R U .
C6 C 0.8812(8) 0.5528(6) 0.4768(8) 0.173(5) Uani 1 1 d D U .
H6A H 0.879984 0.572558 0.539436 0.260 Uiso 1 1 calc R U .
H6B H 0.933287 0.562308 0.463666 0.260 Uiso 1 1 calc R U .
H6C H 0.866940 0.579224 0.429652 0.260 Uiso 1 1 calc R U .
C7 C 0.9609(7) 0.2909(8) 0.6283(10) 0.215(7) Uani 1 1 d D U .
H7A H 0.992518 0.277449 0.667790 0.323 Uiso 1 1 calc R U .
H7B H 0.917534 0.243800 0.602372 0.323 Uiso 1 1 calc R U .
H7C H 0.992350 0.324433 0.576866 0.323 Uiso 1 1 calc R U .
loop_
_atom_site_aniso_label
_atom_site_aniso_U_11
_atom_site_aniso_U_22
_atom_site_aniso_U_33
_atom_site_aniso_U_23
_atom_site_aniso_U_13
_atom_site_aniso_U_12
Cu1 0.0656(5) 0.0656(5) 0.0485(7) 0.000 0.000 0.0328(3)
Cu2 0.0664(5) 0.0664(5) 0.0543(7) 0.0147(7) 0.0147(7) 0.0329(5)
Cu3 0.0686(9) 0.1202(10) 0.0748(9) 0.0161(4) 0.0322(8) 0.0343(4)
N2 0.057(4) 0.069(4) 0.056(3) 0.007(3) 0.010(3) 0.027(3)
N1 0.062(3) 0.071(4) 0.054(3) 0.020(3) 0.007(3) 0.027(3)
N3 0.067(4) 0.100(5) 0.065(4) 0.019(4) 0.019(3) 0.040(4)
C1 0.073(5) 0.093(7) 0.059(4) 0.010(5) 0.021(4) 0.031(6)
C2 0.061(5) 0.091(6) 0.060(5) -0.002(4) 0.004(4) 0.032(4)
C3 0.090(7) 0.159(10) 0.152(9) -0.009(7) -0.020(6) 0.090(7)
C4 0.195(12) 0.169(9) 0.067(6) 0.074(6) 0.026(7) 0.085(9)
C5 0.265(15) 0.218(14) 0.088(7) 0.004(9) -0.005(10) 0.155(12)
C8 0.237(14) 0.196(13) 0.196(12) -0.041(13) -0.098(14) 0.101(12)
C6 0.252(15) 0.154(10) 0.136(10) 0.019(10) -0.001(11) 0.118(10)
C7 0.195(14) 0.260(17) 0.243(16) -0.067(13) -0.028(12) 0.154(13)
loop_
_atom_type_symbol
_atom_type_description
_atom_type_scat_dispersion_real
_atom_type_scat_dispersion_imag
_atom_type_scat_source
C C 0.0033 0.0016 'International Tables Vol C Tables 4.2.6.8 and 6.1.1.4'
N N 0.0061 0.0033 'International Tables Vol C Tables 4.2.6.8 and 6.1.1.4'
Cu Cu 0.3201 1.2651 'International Tables Vol C Tables 4.2.6.8 and 6.1.1.4'
H H 0.0000 0.0000 'International Tables Vol C Tables 4.2.6.8 and 6.1.1.4'
O O 0.0106 0.0060 'International Tables Vol C Tables 4.2.6.8 and 6.1.1.4'
loop_
_geom_angle_atom_site_label_1
_geom_angle_atom_site_label_2
_geom_angle_atom_site_label_3
_geom_angle
_geom_angle_site_symmetry_1
_geom_angle_site_symmetry_3
N1 Cu1 N1 119.998(2) . 4_665
N1 Cu1 N1 120.001(4) . 3_655
N1 Cu1 N1 119.999(3) 4_665 3_655
N2 Cu2 N2 177.9(4) . 10_666
N3 Cu3 N3 177.3(5) . 8_766
C2 N2 N1 107.9(6) . .
C2 N2 Cu2 134.2(6) . .
N1 N2 Cu2 117.8(4) . .
C1 N1 N2 106.6(6) . .
C1 N1 Cu1 134.0(5) . .
N2 N1 Cu1 118.3(4) . .
C2 N3 C1 105.5(6) . .
C2 N3 Cu3 127.7(6) . .
C1 N3 Cu3 126.7(5) . .
N1 C1 N3 110.4(8) . .
N1 C1 C4 117.2(8) . .
N3 C1 C4 132.4(7) . .
N2 C2 N3 109.5(7) . .
N2 C2 C3 122.4(8) . .
N3 C2 C3 127.8(8) . .
C2 C3 C8 121.6(10) . .
C2 C3 C7 114.0(10) . .
C8 C3 C7 103.18(13) . .
C2 C3 H3 105.6 . .
C8 C3 H3 105.6 . .
C7 C3 H3 105.6 . .
C5 C4 C6 103.25(13) . .
C5 C4 C1 110.5(9) . .
C6 C4 C1 115.4(10) . .
C5 C4 H4 109.1 . .
C6 C4 H4 109.1 . .
C1 C4 H4 109.1 . .
C4 C5 H5A 109.5 . .
C4 C5 H5B 109.5 . .
H5A C5 H5B 109.5 . .
C4 C5 H5C 109.5 . .
H5A C5 H5C 109.5 . .
H5B C5 H5C 109.5 . .
C3 C8 H8A 109.5 . .
C3 C8 H8B 109.5 . .
H8A C8 H8B 109.5 . .
C3 C8 H8C 109.5 . .
H8A C8 H8C 109.5 . .
H8B C8 H8C 109.5 . .
C4 C6 H6A 109.5 . .
C4 C6 H6B 109.5 . .
H6A C6 H6B 109.5 . .
C4 C6 H6C 109.5 . .
H6A C6 H6C 109.5 . .
H6B C6 H6C 109.5 . .
C3 C7 H7A 109.5 . .
C3 C7 H7B 109.5 . .
H7A C7 H7B 109.5 . .
C3 C7 H7C 109.5 . .
H7A C7 H7C 109.5 . .
H7B C7 H7C 109.5 . .
loop_
_geom_bond_atom_site_label_1
_geom_bond_atom_site_label_2
_geom_bond_distance
_geom_bond_site_symmetry_2
Cu1 N1 1.956(6) .
Cu1 N1 1.956(6) 4_665
Cu1 N1 1.956(6) 3_655
Cu2 N2 1.852(6) .
Cu2 N2 1.852(5) 10_666
Cu3 N3 1.870(6) .
Cu3 N3 1.870(6) 8_766
N2 C2 1.328(9) .
N2 N1 1.393(8) .
N1 C1 1.304(9) .
N3 C2 1.348(9) .
N3 C1 1.383(10) .
C1 C4 1.507(13) .
C2 C3 1.423(12) .
C3 C8 1.5193(14) .
C3 C7 1.5189(14) .
C3 H3 0.9800 .
C4 C5 1.5184(15) .
C4 C6 1.5190(14) .
C4 H4 0.9800 .
C5 H5A 0.9600 .
C5 H5B 0.9600 .
C5 H5C 0.9600 .
C8 H8A 0.9600 .
C8 H8B 0.9600 .
C8 H8C 0.9600 .
C6 H6A 0.9600 .
C6 H6B 0.9600 .
C6 H6C 0.9600 .
C7 H7A 0.9600 .
C7 H7B 0.9600 .
C7 H7C 0.9600 .
loop_
_geom_torsion_atom_site_label_1
_geom_torsion_atom_site_label_2
_geom_torsion_atom_site_label_3
_geom_torsion_atom_site_label_4
_geom_torsion
C2 N2 N1 C1 -1.0(8)
Cu2 N2 N1 C1 -178.8(6)
C2 N2 N1 Cu1 168.5(5)
Cu2 N2 N1 Cu1 -9.3(7)
N2 N1 C1 N3 0.7(10)
Cu1 N1 C1 N3 -166.5(5)
N2 N1 C1 C4 -178.6(8)
Cu1 N1 C1 C4 14.3(14)
C2 N3 C1 N1 -0.1(11)
Cu3 N3 C1 N1 177.9(6)
C2 N3 C1 C4 179.0(10)
Cu3 N3 C1 C4 -3.0(16)
N1 N2 C2 N3 1.0(8)
Cu2 N2 C2 N3 178.2(5)
N1 N2 C2 C3 175.4(8)
Cu2 N2 C2 C3 -7.4(12)
C1 N3 C2 N2 -0.5(10)
Cu3 N3 C2 N2 -178.5(5)
C1 N3 C2 C3 -174.6(9)
Cu3 N3 C2 C3 7.4(13)
N2 C2 C3 C8 -113.9(11)
N3 C2 C3 C8 59.4(14)
N2 C2 C3 C7 121.5(10)
N3 C2 C3 C7 -65.2(13)
N1 C1 C4 C5 -118.3(10)
N3 C1 C4 C5 62.6(14)
N1 C1 C4 C6 125.0(10)
N3 C1 C4 C6 -54.1(15)
