#------------------------------------------------------------------------------
#$Date: 2017-02-04 15:25:49 +0200 (Sat, 04 Feb 2017) $
#$Revision: 191487 $
#$URL: file:///home/coder/svn-repositories/cod/cif/7/11/92/7119277.cif $
#------------------------------------------------------------------------------
#
# This file is available in the Crystallography Open Database (COD),
# http://www.crystallography.net/
#
# All data on this site have been placed in the public domain by the
# contributors.
#
data_7119277
loop_
_publ_author_name
'Song, Bai-Qiao'
'Chen, Da-Qin'
'Ji, Zhenguo'
'Tang, Junhong'
'Wang, Xin-Long'
'Zang, Hong-Ying'
'Su, Zhong-Min'
_publ_section_title
;
 Control of bulk homochirality and proton conductivity in isostructural
 chiral metal-organic frameworks.
;
_journal_issue                   11
_journal_name_full
'Chemical communications (Cambridge, England)'
_journal_page_first              1892
_journal_page_last               1895
_journal_paper_doi               10.1039/c6cc07729c
_journal_volume                  53
_journal_year                    2017
_chemical_absolute_configuration known
_chemical_formula_moiety         'C18 H30 Cu4 N9 O6, NO3, 3H2O'
_chemical_formula_sum            'C18 H30 Cu4 N10 O12'
_chemical_formula_weight         832.68
_space_group_crystal_system      hexagonal
_space_group_IT_number           182
_space_group_name_Hall           'P 6c 2c'
_space_group_name_H-M_alt        'P 63 2 2'
_symmetry_space_group_name_Hall  'P 6c 2c'
_symmetry_space_group_name_H-M   'P 63 2 2'
_atom_sites_solution_hydrogens   geom
_atom_sites_solution_primary     direct
_atom_sites_solution_secondary   difmap
_audit_creation_method           SHELXL-2016/6
_audit_update_record
;
2016-12-22 deposited with the CCDC.
2017-01-03 downloaded from the CCDC.
;
_cell_angle_alpha                90
_cell_angle_beta                 90
_cell_angle_gamma                120
_cell_formula_units_Z            4
_cell_length_a                   19.6977(13)
_cell_length_b                   19.6977(13)
_cell_length_c                   13.8757(10)
_cell_measurement_reflns_used    3172
_cell_measurement_temperature    293(2)
_cell_measurement_theta_max      37.014
_cell_measurement_theta_min      4.776
_cell_volume                     4662.5(5)
_computing_cell_refinement       SMART
_computing_data_collection       'SMART (Bruker, 1997)'
_computing_data_reduction        'SAINT (Bruker, 1999)'
_computing_molecular_graphics    'Diamond (Brandenburg and Putz, 2008)'
_computing_publication_material  'SHELXL-2016/6 (Sheldrick, 2016)'
_computing_structure_refinement  'SHELXL-2016/6 (Sheldrick, 2016)'
_computing_structure_solution    'SHELXS-2016/6 (Sheldrick, 2016)'
_diffrn_ambient_temperature      293(2)
_diffrn_measured_fraction_theta_full 0.997
_diffrn_measured_fraction_theta_max 0.997
_diffrn_measurement_device_type  'Bruker APEX CCD area-detector'
_diffrn_measurement_method       '\w scans'
_diffrn_radiation_type           MoK\a
_diffrn_radiation_wavelength     0.71073
_diffrn_reflns_av_R_equivalents  0.0758
_diffrn_reflns_av_unetI/netI     0.0463
_diffrn_reflns_Laue_measured_fraction_full 0.997
_diffrn_reflns_Laue_measured_fraction_max 0.997
_diffrn_reflns_limit_h_max       23
_diffrn_reflns_limit_h_min       -23
_diffrn_reflns_limit_k_max       21
_diffrn_reflns_limit_k_min       -23
_diffrn_reflns_limit_l_max       16
_diffrn_reflns_limit_l_min       -16
_diffrn_reflns_number            27099
_diffrn_reflns_point_group_measured_fraction_full 0.998
_diffrn_reflns_point_group_measured_fraction_max 0.998
_diffrn_reflns_theta_full        25.067
_diffrn_reflns_theta_max         25.067
_diffrn_reflns_theta_min         1.194
_diffrn_source                   'fine-focus sealed tube'
_exptl_absorpt_coefficient_mu    1.847
_exptl_absorpt_correction_T_max  0.7321
_exptl_absorpt_correction_T_min  0.6653
_exptl_absorpt_correction_type   multi-scan
_exptl_crystal_colour            colorless
_exptl_crystal_density_diffrn    1.186
_exptl_crystal_description       block
_exptl_crystal_F_000             1680
_exptl_crystal_size_max          0.240
_exptl_crystal_size_mid          0.180
_exptl_crystal_size_min          0.180
_refine_diff_density_max         0.592
_refine_diff_density_min         -0.321
_refine_diff_density_rms         0.072
_refine_ls_abs_structure_details
;
 Flack x determined using 542 quotients [(I+)-(I-)]/[(I+)+(I-)]
 (Parsons, Flack and Wagner, Acta Cryst. B69 (2013) 249-259).
;
_refine_ls_abs_structure_Flack   0.06(2)
_refine_ls_extinction_method     none
_refine_ls_goodness_of_fit_ref   1.006
_refine_ls_hydrogen_treatment    constr
_refine_ls_matrix_type           full
_refine_ls_number_parameters     113
_refine_ls_number_reflns         2785
_refine_ls_number_restraints     90
_refine_ls_restrained_S_all      1.049
_refine_ls_R_factor_all          0.0782
_refine_ls_R_factor_gt           0.0566
_refine_ls_shift/su_max          0.000
_refine_ls_shift/su_mean         0.000
_refine_ls_structure_factor_coef Fsqd
_refine_ls_weighting_details
'w=1/[\s^2^(Fo^2^)+(0.0856P)^2^] where P=(Fo^2^+2Fc^2^)/3'
_refine_ls_weighting_scheme      calc
_refine_ls_wR_factor_gt          0.1424
_refine_ls_wR_factor_ref         0.1507
_reflns_Friedel_coverage         0.680
_reflns_Friedel_fraction_full    0.999
_reflns_Friedel_fraction_max     0.999
_reflns_number_gt                1841
_reflns_number_total             2785
_reflns_threshold_expression     'I > 2\s(I)'
_cod_data_source_file            c6cc07729c2.cif
_cod_data_source_block           2M
_cod_depositor_comments
'Adding full bibliography for 7119274--7119277.cif.'
_cod_original_cell_volume        4662.5(7)
_cod_database_code               7119277
_shelx_shelxl_version_number     2016/6
_shelx_space_group_comment
;
The symmetry employed for this shelxl refinement is uniquely defined
by the following loop, which should always be used as a source of
symmetry information in preference to the above space-group names.
They are only intended as comments.
;
_shelx_estimated_absorpt_t_min   0.665
_shelx_estimated_absorpt_t_max   0.732
_shelx_res_file
;
TITL OO in P6(3)22
    OO.res
    created by SHELXL-2016/6 at 18:04:58 on 22-Dec-2016
CELL  0.71073  19.6977  19.6977  13.8757   90.000   90.000  120.000
ZERR     4.00   0.0013   0.0013   0.0010    0.000    0.000    0.000
LATT  -1
SYMM  - X, - Y, 1/2 + Z
SYMM  - Y,   X - Y,   Z
SYMM  - X + Y, - X,   Z
SYMM    X - Y,   X, 1/2 + Z
SYMM    Y, - X + Y, 1/2 + Z
SYMM    X - Y, - Y, - Z
SYMM  - X, - X + Y, - Z
SYMM    Y,   X, - Z
SYMM  - Y, - X, 1/2 - Z
SYMM    X,   X - Y, 1/2 - Z
SYMM  - X + Y,   Y, 1/2 - Z
SFAC  C    N    CU   O    H
UNIT  72 40 16 48 120
MERG   2
ABIN
SIMU 0.01 0.03 3.8 C3 C5 O2
DELU 0.01 0.03  C3 C5 O2
SIMU 0.01 0.03 3.8 C4 C6 O1
DELU 0.01 0.03  C4 C6 O1
SIMU 0.01 0.03 3.8 C1 N3
DFIX 1.52 0.001 C4 C6 C3 C5
DFIX 1.42 0.001 C4 O1 C3 O2
DFIX 2.38 0.001 C6 O1 C5 O2
ISOR 0.02 0.05 O1 C4 C6
ISOR 0.02 0.05 O2 C3 C5
OMIT 0 4 3
OMIT 0 3 2
OMIT -2 4 4
OMIT 0 0 2
OMIT 0 2 1
FMAP   2
PLAN   10
SIZE     0.180   0.180   0.240
ACTA
BOND   $H
CONF
L.S.   60    0   12
WGHT    0.085600
FVAR       1.40589
C1    1    0.839063    0.431191    0.538064    11.00000    0.07630    0.11957 =
         0.08026    0.00285    0.01824    0.05610
C2    1    0.876790    0.521383    0.635927    11.00000    0.08283    0.07705 =
         0.06667   -0.00180    0.01359    0.02571
C4    1    0.830529    0.373776    0.459463    11.00000    0.19375    0.21891 =
         0.17207   -0.05387    0.08594    0.09990
AFIX  13
H4    5    0.775776    0.331790    0.454263    11.00000   -1.20000
AFIX   0
O1    4    0.880358    0.341585    0.471487    11.00000    0.32780    0.28349 =
         0.24824   -0.06154    0.05670    0.19722
AFIX  83
H1    5    0.912508    0.356598    0.427580    11.00000   -1.50000
AFIX   0
N1    2    0.805413    0.474767    0.656366    11.00000    0.04750    0.05538 =
         0.06097    0.00044    0.01983    0.01062
N2    2    0.778226    0.413321    0.593505    11.00000    0.06057    0.07148 =
         0.06700   -0.00558    0.01668    0.03136
N3    2    0.902576    0.497712    0.561946    11.00000    0.07165    0.08640 =
         0.07404   -0.00762    0.01786    0.02991
CU1   3    0.739393    0.478787    0.750000    10.50000    0.07278    0.06959 =
         0.07327    0.00000    0.02055    0.03479
CU2   3    0.666667    0.333333    0.591780    10.33333    0.06890    0.06890 =
         0.06150    0.00000    0.00000    0.03445
CU3   3    1.000000    0.543655    0.500000    10.50000    0.06955    0.12943 =
         0.08479    0.01707    0.03414    0.03478
PART    2
C6    1    0.855451    0.423313    0.368459    11.00000    0.37907    0.24756 =
         0.13020   -0.07112    0.02671    0.13880
AFIX  33
H6A   5    0.822419    0.445684    0.358964    11.00000   -1.50000
H6B   5    0.908943    0.464539    0.374738    11.00000   -1.50000
H6C   5    0.850738    0.391016    0.314176    11.00000   -1.50000
AFIX   0
PART    0
C3    1    0.932105    0.600120    0.686006    11.00000    0.12935    0.16183 =
         0.12946   -0.06986   -0.04044    0.03994
AFIX  13
H3    5    0.965345    0.639341    0.638164    11.00000   -1.20000
AFIX   0
O2    4    0.979154    0.593560    0.758846    11.00000    0.25184    0.24094 =
         0.23969    0.02721   -0.07928    0.04799
AFIX  83
H2    5    0.965575    0.601139    0.811739    11.00000   -1.50000
AFIX   0
C5    1    0.878045    0.624357    0.733772    11.00000    0.22320    0.22175 =
         0.23991   -0.08321    0.02148    0.07583
AFIX  33
H5A   5    0.845617    0.629154    0.685734    11.00000   -1.50000
H5B   5    0.845535    0.585398    0.780145    11.00000   -1.50000
H5C   5    0.908834    0.673829    0.765610    11.00000   -1.50000
AFIX   0
HKLF    4




REM  OO in P6(3)22
REM R1 =  0.0566 for    1841 Fo > 4sig(Fo)  and  0.0782 for all    2785 data
REM    113 parameters refined using     90 restraints

END

WGHT      0.0965      0.0000

REM Highest difference peak  0.592,  deepest hole -0.321,  1-sigma level  0.072
Q1    1   0.7755  0.3941  0.3838  11.00000  0.05    0.31
Q2    1   0.7412  0.3691  0.6302  11.00000  0.05    0.30
Q3    1   0.9122  0.6421  0.6184  11.00000  0.05    0.30
Q4    1   0.7615  0.4147  0.4088  11.00000  0.05    0.29
Q5    1   0.9517  0.5331  0.5389  11.00000  0.05    0.27
Q6    1   0.7689  0.3600  0.3987  11.00000  0.05    0.27
Q7    1   0.7834  0.3926  0.5508  11.00000  0.05    0.25
Q8    1   1.0571  0.5948  0.5349  11.00000  0.05    0.23
Q9    1   0.6860  0.3105  0.5487  11.00000  0.05    0.23
Q10   1   0.7832  0.5087  0.6794  11.00000  0.05    0.23
;
_shelx_res_checksum              17762
_shelx_hkl_file
;
   0   0  -2   25559     794
   0   0  -4   41142    1356
   0   0  -6   15238     612
   0   0  -8   35054    1376
   0   0   8   34346    1401
   0   0 -10     141     188
   0   0  10      57     181
   0   0 -12   10397     556
   0   0  12   10731     598
   0   0 -14     216     260
   0   0  14     314     242
   0   0 -16      67     272
   0   0  16       1     278
  -1   1  16     127     304
   1  -1 -16      24     263
  -1   1  15      12     247
   1  -1 -15      12     219
  -1   1  14       7     239
   1  -1 -14     228     237
  -1   1  13    2446     330
   1  -1 -13    2985     332
  -1   1  12    1832     255
  -1   1  12    1454     292
   1  -1 -12    1689     284
  -1   1  11    3620     347
  -1   1  11    3761     306
   1  -1 -11    3100     335
  -1   1  10      16     187
  -1   1  10      16     163
   1  -1 -10      16     177
  -1   1   9      20     178
   1  -1  -9       9     157
  -1   1   8    3819     280
   1  -1  -8    3890     266
  -1   1   7   23897     869
   1  -1  -7   25048     844
  -1   1   6    4895     301
   1  -1  -6    4782     285
  -1   1   5   20193     647
   1  -1  -5   17802     614
  -1   1   4    1779     169
  -1   1   3     142     109
  -1   1   2    8610     233
  -1   1   2    8474     214
  -1   1   1  145642    2999
  -1   1   1  144900    2985
  -1   1   0  330908       8
  -1   1   0  329334       3
   1  -1   0  330450       8
  -1   1  -1  154477    3206
  -1   1  -1  153376    3296
  -1   1  -2    8077     211
  -1   1  -3     214     108
  -1   1  -4    2044     172
  -1   1  -5   20067     667
  -1   1  -6    4985     298
  -1   1  -7   23851     831
  -1   1  -8    4020     280
  -1   1  -9      12     142
  -1   1 -10     277     213
   1  -1  10      28     173
  -1   1 -11    3286     334
   1  -1  11    3071     322
  -1   1 -12    1241     275
   1  -1  12    1489     281
  -1   1 -13    2615     331
   1  -1  13    2709     323
  -1   1 -14       6     247
   1  -1  14       6     240
  -1   1 -15      13     222
   1  -1  15     192     273
  -1   1 -16      24     256
   1  -1  16      24     231
  -2   2  16     107     303
   2  -2 -16     104     105
  -2   2  15     145     293
   2  -2 -15     267     171
  -2   2  14     932     288
   2  -2 -14     448     214
  -2   2  13    1350     293
   2  -2 -13    1421     265
  -2   2  12     256     237
   2  -2 -12     108     226
  -2   2  11     132     180
  -2   2  11     175     227
   2  -2 -11       0     188
  -2   2  10    1619     216
  -2   2  10    1660     262
   2  -2 -10     996     219
  -2   2   9    2058     197
  -2   2   9    1654     235
   2  -2  -9    1881     214
  -2   2   8    2310     181
  -2   2   8    2145     224
   2  -2  -8    1795     189
  -2   2   7    6498     266
  -2   2   7    6372     324
  -2   2   6   44583    1516
  -2   2   6   46455    1487
  -2   2   5    3233     198
  -2   2   5    3083     251
  -2   2   4   30958    1181
  -2   2   4   31357    1151
  -2   2   3   24347     586
  -2   2   3   24367     555
  -2   2   2   73835    2415
  -2   2   2   74736    2420
  -2   2   1    2030     396
  -2   2   1    1972     407
  -2   2   0   39918     280
   2  -2   0   39353     277
  -2   2  -1    2355     415
   2  -2   1    2097     401
  -2   2  -2   76850    2482
  -2   2  -3   25485     605
  -2   2  -4   30864    1146
  -2   2  -5    3209     230
  -2   2  -6   45744    1491
  -2   2  -7    6790     322
  -2   2  -8    1847     217
  -2   2  -9    1937     247
  -2   2 -10    1957     275
  -2   2 -11     182     229
   2  -2  11       0     185
  -2   2 -12     308     243
   2  -2  12      30     203
  -2   2 -13    1735     308
   2  -2  13    1416     282
  -2   2 -14    1237     297
   2  -2  14    1105     278
  -2   2 -15      21     253
   2  -2  15      21     249
  -2   2 -16       4     255
   2  -2  16     201     276
  -3   3  16     540     313
  -3   3  15       0     271
   3  -3 -15       0     134
  -3   3  14       9     259
   3  -3 -14     103      95
  -3   3  13       7     260
   3  -3 -13     191      60
  -3   3  12     672     264
  -3   3  11     225     242
  -3   3  11     420     178
   3  -3 -11      85      65
  -3   3  10    4741     311
  -3   3  10    5785     426
  -3   3   9    4038     313
  -3   3   9    3782     250
  -3   3   8     525     169
  -3   3   8     364     125
  -3   3   7    7576     318
  -3   3   7    8057     391
  -3   3   6    9589     422
  -3   3   6    9171     472
  -3   3   5    1036     178
  -3   3   5    1232     131
  -3   3   4   18195     607
  -3   3   4   17425     652
  -3   3   3   26195     877
  -3   3   3   24995     837
  -3   3   2     454      94
  -3   3   2     588     108
  -3   3   1   21640     195
  -3   3   1   21830     211
   3  -3  -1   22243     211
  -3   3   0    5855      61
  -3   3   0    7614      37
   3  -3   0    6287      60
  -3   3  -1   21386     202
   3  -3   1   20977     196
  -3   3  -2     549     114
  -3   3  -2     471     111
  -3   3  -3   25582     850
  -3   3  -4   17913     636
  -3   3  -5     860     157
  -3   3  -6    9895     474
  -3   3  -7    7485     354
  -3   3  -8     438     186
  -3   3  -9    4234     339
  -3   3 -10    6131     423
  -3   3 -11     440     219
  -3   3 -12    1061     279
   3  -3  12     519     202
  -3   3 -13     359     249
   3  -3  13     485     227
  -3   3 -14      24     257
   3  -3  14      55     237
  -3   3 -15       0     279
   3  -3  15       0     243
  -3   3 -16     333     291
  -4   4  16       0     316
  -4   4  15      24     274
   4  -4 -15     101     257
  -4   4  14      27     243
   4  -4 -14       1     228
  -4   4  13      11     242
   4  -4 -13     114     190
  -4   4  12    3154     369
   4  -4 -12    2310     278
  -4   4  11     275     259
   4  -4 -11     132     158
  -4   4  10    2178     296
  -4   4  10    2124     203
   4  -4 -10     979     187
  -4   4   9    2665     300
  -4   4   9    2126     201
  -4   4   8   21746     891
  -4   4   8   22081     807
  -4   4   7    6403     244
  -4   4   7    6748     312
  -4   4   6     155      97
  -4   4   6       5     146
   4  -4  -6       0      89
  -4   4   5     740     153
  -4   4   5     836     113
  -4   4   4   86292    3058
  -4   4   4   85912    3084
  -4   4   3    4851     120
  -4   4   3    4822     164
  -4   4   2   17874     645
  -4   4   2   17154     614
   4  -4  -2   15237     624
  -4   4   1   23131    1162
  -4   4   1   22339    1153
   4  -4  -1   22642    1146
  -4   4   0     460     138
  -4   4   0     650     158
   4  -4   0     271     177
  -4   4  -1   21621    1143
   4  -4   1   22048    1115
  -4   4  -2   17132     674
   4  -4   2   18140     662
  -4   4  -3    4481     148
  -4   4  -3    4902     176
  -4   4  -4   86593    3039
  -4   4  -5     855     171
  -4   4  -6     159     133
  -4   4  -7    6942     332
  -4   4  -8   21639     849
  -4   4  -9    2092     289
  -4   4 -10    1959     298
  -4   4 -11       7     241
  -4   4 -12    3991     399
  -4   4 -13     140     264
   4  -4  13      51     198
  -4   4 -14      26     268
   4  -4  14     183     243
  -4   4 -15     109     273
  -4   4 -16     784     317
  -5   5  16       0     293
  -5   5  15     425     302
  -5   5  14       5     258
   5  -5 -14     556     242
  -5   5  13     369     262
   5  -5 -13     398     241
  -5   5  12     398     254
   5  -5 -12     523     219
  -5   5  11    2393     347
   5  -5 -11    2258     297
  -5   5  10     943     268
   5  -5 -10     937     235
  -5   5   9    8169     461
  -5   5   9    8051     361
   5  -5  -9    7760     414
  -5   5   8     187     126
  -5   5   8     132     206
   5  -5  -8     277     179
  -5   5   7     922     198
  -5   5   7    1052     144
   5  -5  -7     788     174
  -5   5   6    6518     257
  -5   5   6    6327     330
   5  -5  -6    4395     271
  -5   5   5   22038     752
  -5   5   5   21777     684
  -5   5   4     169     131
  -5   5   4       0      82
   5  -5  -4      55      30
  -5   5   3   55919    2125
  -5   5   3   58157    2104
  -5   5   2    8277     361
  -5   5   2    8284     322
   5  -5  -2    8500     363
  -5   5   1    6746     304
  -5   5   1    7030     333
   5  -5  -1    7318     347
  -5   5   0     482     121
  -5   5   0     435     131
   5  -5   0     738     136
  -5   5  -1    6661     317
  -5   5  -1    6634     314
   5  -5   1    7071     332
  -5   5  -2    8329     366
   5  -5   2    8180     353
  -5   5  -3   58569    2184
   5  -5   3   56380    2119
  -5   5  -4       8     113
  -5   5  -5   22044     734
  -5   5  -6    6392     336
  -5   5  -7    1236     234
  -5   5  -8     335     214
  -5   5  -9    8378     475
  -5   5 -10     770     235
  -5   5 -11    2592     345
  -5   5 -12       8     211
  -5   5 -13       0     263
  -5   5 -14       4     267
  -5   5 -15    1176     347
  -6   6  15     123     289
  -6   6  14      11     281
   6  -6 -14     279     244
  -6   6  13      11     248
   6  -6 -13     430     229
  -6   6  12     109     254
   6  -6 -12     259     206
  -6   6  11     450     268
   6  -6 -11    1169     259
  -6   6  10    3468     379
   6  -6 -10    4101     357
  -6   6   9    2678     227
  -6   6   9    2195     310
   6  -6  -9    2804     306
  -6   6   8       1     202
  -6   6   8      31     124
   6  -6  -8     224     180
  -6   6   7     345     116
  -6   6   7     335     190
   6  -6  -7     490     167
  -6   6   6    3047     282
  -6   6   6    3556     214
   6  -6  -6    1994     226
  -6   6   5    7423     445
  -6   6   5    7627     363
  -6   6   4   12378     506
  -6   6   4   13087     571
  -6   6   3   12393     561
  -6   6   3   12444     521
   6  -6  -3   12888     561
  -6   6   2   20492     781
  -6   6   2   20102     755
   6  -6  -2   21837     788
  -6   6   1    4077     277
  -6   6   1    4219     304
   6  -6  -1    3961     313
  -6   6   0   13740     629
  -6   6   0   12732     621
   6  -6   0   13205     631
  -6   6  -1    3458     275
  -6   6  -1    4288     287
   6  -6   1    3744     293
  -6   6  -2   20987     822
   6  -6   2   22606     811
  -6   6  -3   12148     569
   6  -6   3   12592     544
   6  -6   4   12995     575
  -6   6  -5    7941     441
   6  -6   5    7670     435
  -6   6  -6    3790     300
  -6   6  -7     335     178
  -6   6  -8       0     220
  -6   6  -9    2197     290
  -6   6 -10    3233     354
  -6   6 -11    1083     268
  -6   6 -12       0     266
  -6   6 -13     121     274
  -6   6 -14     183     298
  -6   6 -15     173     293
  -7   7  15       5     301
  -7   7  14       2     266
  -7   7  13       0     261
   7  -7 -13     611     257
  -7   7  12      46     251
   7  -7 -12       5     197
  -7   7  11      44     255
   7  -7 -11      88     203
  -7   7  10       0     211
   7  -7 -10     313     214
  -7   7   9    3690     377
   7  -7  -9    3449     332
  -7   7   8    3631     357
  -7   7   8    3469     231
   7  -7  -8    3871     330
  -7   7   7       2     173
  -7   7   7      67     119
   7  -7  -7     142     186
  -7   7   6    3245     309
  -7   7   6    3422     222
  -7   7   5    5445     260
  -7   7   5    5662     353
  -7   7   4   28949     988
  -7   7   4   27246     919
   7  -7  -4   25540     945
  -7   7   3    4772     400
  -7   7   3    4767     341
   7  -7  -3    4642     401
  -7   7   2    4344     226
  -7   7   2    4220     272
   7  -7  -2    4218     284
  -7   7   1    1174     166
  -7   7   1     729     132
   7  -7  -1    1054     159
  -7   7   0     203     153
  -7   7   0     126     133
   7  -7   0     142     162
  -7   7  -1     924     129
  -7   7  -1    1026     142
   7  -7   1     948     164
  -7   7  -2    4220     250
   7  -7   2    4375     265
  -7   7  -3    4644     400
   7  -7   3    4731     378
   7  -7   4   28779    1003
   7  -7   5    5565     347
   7  -7   6    3238     284
  -7   7  -7      48     181
   7  -7   7      39     158
  -7   7  -8    3111     315
  -7   7  -9    2702     318
  -7   7 -10     109     227
  -7   7 -11      66     269
  -7   7 -12       4     267
  -7   7 -13      89     233
  -7   7 -14       2     279
  -7   7 -15     501     327
  -8   8  15      63     300
  -8   8  14       2     266
  -8   8  13     117     279
   8  -8 -13     977     255
  -8   8  12      92     265
   8  -8 -12     356     222
  -8   8  11      21     220
   8  -8 -11      66     204
  -8   8  10    2624     325
   8  -8 -10    2829     330
  -8   8   9    1663     298
   8  -8  -9    1364     262
  -8   8   8    5146     272
  -8   8   8    4783     401
   8  -8  -8    5067     373
  -8   8   7     267     129
  -8   8   7     187     188
   8  -8  -7     408     198
  -8   8   6    4425     343
  -8   8   6    4707     263
  -8   8   5     347     136
  -8   8   5     355     206
   8  -8  -5     171     124
  -8   8   4   10960     506
  -8   8   4   11676     451
   8  -8  -4   10915     511
  -8   8   3    6865     371
  -8   8   3    7604     308
   8  -8  -3    6931     376
  -8   8   2   12517     557
  -8   8   2   12598     597
   8  -8  -2   12875     608
  -8   8   1    7284     377
  -8   8   1    7955     419
   8  -8  -1    7865     431
  -8   8   0    6721     430
  -8   8   0    6757     402
   8  -8   0    6484     407
  -8   8  -1    5596     361
  -8   8  -1    7421     384
   8  -8   1    7440     377
  -8   8  -2   12758     608
   8  -8   2   13104     603
  -8   8  -3    8103     389
   8  -8   3    7254     370
   8  -8   4   11474     510
   8  -8   5     298     181
   8  -8   6    5530     391
   8  -8   7     330     201
   8  -8   8    4907     377
  -8   8  -9    1278     264
   8  -8   9    1176     256
  -8   8 -10    2599     348
   8  -8  10    2987     357
  -8   8 -11       1     262
  -8   8 -12      23     273
  -8   8 -13    1075     326
  -8   8 -14     227     308
   8  -8  14     469     275
  -8   8 -15     462     343
   8  -8  15     114     275
  -9   9  14     428     325
  -9   9  13     199     290
  -9   9  12     237     244
   9  -9 -12     759     261
  -9   9  11     935     299
   9  -9 -11    1618     290
  -9   9  10    5353     457
   9  -9 -10    6092     443
  -9   9   9    1547     314
   9  -9  -9    1513     301
  -9   9   8     247     253
   9  -9  -8     299     222
  -9   9   7    7460     491
  -9   9   7    6996     337
  -9   9   6    2537     314
  -9   9   6    2906     231
  -9   9   5    4173     259
  -9   9   5    4068     341
   9  -9  -5    4176     320
  -9   9   4    3291     244
  -9   9   4    2817     287
   9  -9  -4    3189     322
  -9   9   3   16274     751
  -9   9   3   15812     693
   9  -9  -3   16088     753
  -9   9   2   29530    1139
  -9   9   2   28059    1098
   9  -9  -2   28735    1132
  -9   9   1   11277     521
  -9   9   1   10813     484
   9  -9  -1   12005     541
  -9   9   0   14038     699
  -9   9   0   15183     730
   9  -9   0   14600     718
  -9   9  -1    8208     450
  -9   9  -1   11154     482
   9  -9   1   10613     471
  -9   9  -2   29727    1170
   9  -9   2   29706    1150
  -9   9  -3   15081     723
   9  -9   3   15699     719
  -9   9  -4    3191     312
   9  -9   4    3441     333
   9  -9   5    4665     363
   9  -9   6    2235     278
   9  -9   7    7310     442
   9  -9   8     105     253
   9  -9   9    1534     299
   9  -9  10    6998     538
   9  -9  11    1233     316
   9  -9  12    1013     320
   9  -9  13      53     280
   9  -9  14     403     312
 -10  10  14      14     293
 -10  10  13     117     299
 -10  10  12      40     288
  10 -10 -12     644     252
 -10  10  11     205     276
  10 -10 -11     698     234
 -10  10  10      10     265
  10 -10 -10     246     222
 -10  10   9    3726     398
  10 -10  -9    4001     387
 -10  10   8     770     292
  10 -10  -8     895     277
 -10  10   7       3     139
 -10  10   7      73     212
  10 -10  -7       3     121
 -10  10   6    1534     306
 -10  10   6    1611     207
 -10  10   5    2869     234
 -10  10   5    2420     309
  10 -10  -5    2479     321
 -10  10   4    1097     186
 -10  10   4    1313     257
  10 -10  -4    1001     269
 -10  10   3   20676     791
 -10  10   3   21564     852
  10 -10  -3   22762     863
 -10  10   2     687     211
 -10  10   2     166     147
  10 -10  -2     724     238
 -10  10   1    1301     215
 -10  10   1     830     220
  10 -10  -1    1123     269
 -10  10   0    3505     290
 -10  10   0    3695     327
  10 -10   0    3821     314
 -10  10  -1     423     183
 -10  10  -1    1262     232
  10 -10   1     788     218
 -10  10  -2     775     180
  10 -10   2     592     213
 -10  10  -3   21784     861
  10 -10   3   21205     828
  10 -10   4     733     213
  10 -10   5    2565     329
  10 -10   6    2137     335
  10 -10   7       8     205
  10 -10   8     735     299
  10 -10   9    3960     390
  10 -10  10     127     235
  10 -10  11     248     237
  10 -10  12     272     288
  10 -10  13     116     253
  10 -10  14      14     300
 -11  11  13     324     308
 -11  11  12     383     315
 -11  11  11       0     273
  11 -11 -11      37     221
 -11  11  10     100     276
  11 -11 -10      83     218
 -11  11   9     167     270
  11 -11  -9     720     272
 -11  11   8    3156     397
  11 -11  -8    2859     356
 -11  11   7     596     286
  11 -11  -7     205      78
 -11  11   6    2264     329
 -11  11   6    3374     251
  11 -11  -6    2505     336
 -11  11   5     774     190
 -11  11   5     736     270
  11 -11  -5     663     302
 -11  11   4   12578     536
 -11  11   4   11385     616
  11 -11  -4   12499     630
 -11  11   3    1118     209
 -11  11   3     834     258
  11 -11  -3    1227     303
 -11  11   2     696     196
 -11  11   2      77     227
  11 -11  -2     247     228
 -11  11   1    1845     286
 -11  11   1    1309     232
  11 -11  -1    1508     287
 -11  11   0    3927     312
 -11  11   0    3690     336
  11 -11   0    4262     361
 -11  11  -1    1424     264
  11 -11   1    1116     286
 -11  11  -2     726     232
  11 -11   2     379     239
 -11  11  -3     894     252
  11 -11   3     845     239
  11 -11   4   13642     661
  11 -11   5    1001     286
  11 -11   6    3205     341
  11 -11   7     752     266
  11 -11   8    3627     421
  11 -11   9     688     285
  11 -11  10     156     279
  11 -11  11      25     273
  11 -11  12     359     305
  11 -11  13     392     271
 -12  12  13       4     276
 -12  12  12       1     307
 -12  12  11       0     289
  12 -12 -11     757     277
 -12  12  10      11     276
  12 -12 -10     148     260
 -12  12   9      54     281
  12 -12  -9      34     223
 -12  12   8      94     286
  12 -12  -8      61     192
 -12  12   7     408     277
  12 -12  -7     304      81
 -12  12   6    4464     335
 -12  12   6    4238     434
  12 -12  -6    4275     443
 -12  12   5      46     187
 -12  12   5       4     266
  12 -12  -5       4     285
 -12  12   4      75     179
 -12  12   4     121     227
  12 -12  -4      10     288
 -12  12   3     740     279
 -12  12   3     332     202
  12 -12  -3     339     302
 -12  12   2       1     226
 -12  12   2     189     201
  12 -12  -2     138     285
 -12  12   1     283     250
 -12  12   1       0     205
  12 -12  -1     662     306
 -12  12   0   11787     616
 -12  12   0   11940     587
  12 -12   0   12021     639
 -12  12  -1     291     223
  12 -12   1     495     235
 -12  12  -2       1     225
  12 -12   2     405     234
 -12  12  -3     521     257
  12 -12   3     394     240
  12 -12   4      97     266
  12 -12   5       3     258
  12 -12   6    4249     450
  12 -12   7     387     251
  12 -12   8      61     212
  12 -12   9      35     225
  12 -12  10      22     248
  12 -12  11     118     292
  12 -12  12    1469     380
  12 -12  13     160     290
 -13  13  12       5     304
 -13  13  11     245     324
 -13  13  10     394     318
  13 -13 -10     787     308
 -13  13   9      13     271
  13 -13  -9     423     269
 -13  13   8       6     260
  13 -13  -8     155     183
 -13  13   7    1321     321
  13 -13  -7     578     220
 -13  13   6    4021     444
  13 -13  -6    5000     475
 -13  13   5    3453     303
 -13  13   5    2937     388
  13 -13  -5    2935     415
 -13  13   4    1518     250
 -13  13   4    1067     313
  13 -13  -4    1062     351
 -13  13   3      84     276
 -13  13   3       0     201
  13 -13  -3       0     306
 -13  13   2    4452     362
 -13  13   2    4460     413
  13 -13  -2    4764     463
 -13  13   1    5010     451
 -13  13   1    5324     398
  13 -13  -1    5735     484
 -13  13   0      80     226
 -13  13   0      14     245
  13 -13   0     357     272
 -13  13  -1    4549     399
  13 -13   1    4850     449
 -13  13  -2    4429     398
  13 -13   2    4209     396
 -13  13  -3     288     261
  13 -13   3     287     246
  13 -13   4    1411     341
  13 -13   5    3789     420
  13 -13   6    4492     463
  13 -13   7    1148     318
  13 -13   8       2     236
  13 -13   9      78     262
  13 -13  10     405     291
  13 -13  11     382     351
  13 -13  12       5     303
 -14  14  11       4     252
 -14  14  10      52     299
  14 -14 -10    1042     298
 -14  14   9     437     311
  14 -14  -9     709     276
 -14  14   8       0     243
  14 -14  -8     291     110
 -14  14   7     679     301
  14 -14  -7     793     286
 -14  14   6     493     306
  14 -14  -6     428     303
 -14  14   5    2003     276
 -14  14   5    1258     346
  14 -14  -5    1591     392
 -14  14   4     129     203
 -14  14   4      10     288
  14 -14  -4     228     334
 -14  14   3       0     274
 -14  14   3      48     222
  14 -14  -3       0     320
 -14  14   2     884     334
 -14  14   2     737     258
  14 -14  -2    1195     357
 -14  14   1    6476     486
 -14  14   1    6021     528
  14 -14  -1    7165     565
 -14  14   0    1361     346
 -14  14   0    1926     302
  14 -14   0    1958     386
 -14  14  -1    5821     466
  14 -14   1    6031     530
 -14  14  -2     744     287
  14 -14   2     976     328
  14 -14   3     159     295
  14 -14   4     342     272
  14 -14   5    1941     378
  14 -14   6     428     309
  14 -14   7     613     309
  14 -14   8     519     263
  14 -14   9     495     274
  14 -14  10     607     283
  14 -14  11     299     334
 -15  15  11      11     335
 -15  15  10     111     299
 -15  15   9     188     310
  15 -15  -9     232     283
 -15  15   8    1093     365
 -15  15   7     402     322
  15 -15  -7      41     309
 -15  15   6      50     302
  15 -15  -6      82     305
 -15  15   5       1     293
  15 -15  -5       1     301
 -15  15   4     650     248
 -15  15   4     528     294
  15 -15  -4     155     335
 -15  15   3       0     215
 -15  15   3     380     301
  15 -15  -3     113     330
 -15  15   2     170     297
 -15  15   2      61     214
  15 -15  -2     227     335
 -15  15   1       2     305
 -15  15   1     119     225
  15 -15  -1       2     321
 -15  15   0    8673     636
 -15  15   0    8235     547
  15 -15   0    9094     649
 -15  15  -1       1     252
  15 -15   1     230     280
 -15  15  -2      75     242
  15 -15   2       0     287
  15 -15   3     286     302
  15 -15   4     225     302
  15 -15   5     121     248
  15 -15   6      85     257
  15 -15   7       8     260
  15 -15   8    1112     330
  15 -15   9     130     271
  15 -15  10     112     310
  15 -15  11      44     284
 -16  16  10       5     325
 -16  16   9      20     319
  16 -16  -9      42     271
 -16  16   8     191     336
 -16  16   7     602     341
  16 -16  -7     655     323
 -16  16   6      13     304
  16 -16  -6     448     361
 -16  16   5      36     290
  16 -16  -5      36     315
 -16  16   4     862     250
 -16  16   4       6     288
  16 -16  -4    1111     370
 -16  16   3       6     215
 -16  16   3       6     316
  16 -16  -3      24     332
 -16  16   2       0     200
 -16  16   2       0     291
  16 -16  -2       0     281
 -16  16   1     455     303
 -16  16   1     214     237
  16 -16  -1     631     351
 -16  16   0     186     247
  16 -16   0      12     308
 -16  16  -1      49     238
  16 -16   1     242     329
  16 -16   2      16     263
  16 -16   3      70     305
  16 -16   4     640     333
  16 -16   5      46     263
  16 -16   6     374     336
  16 -16   7     724     346
  16 -16   8     148     336
  16 -16   9     224     345
  16 -16  10       5     343
 -17  17   9       2     351
 -17  17   8      41     325
  17 -17  -8     233     149
 -17  17   7      10     301
  17 -17  -7      10     324
 -17  17   6     505     348
  17 -17  -6     874     375
 -17  17   5     122     314
  17 -17  -5      68     325
 -17  17   4       4     341
  17 -17  -4       0     338
 -17  17   3    1032     280
 -17  17   3    1415     381
  17 -17  -3    1230     369
 -17  17   2     357     323
 -17  17   2     714     281
  17 -17  -2     234     348
 -17  17   1     328     266
 -17  17   1       0     302
  17 -17  -1     206     303
 -17  17   0      21     230
  17 -17   0      17     291
  17 -17   1     458     361
  17 -17   2     607     359
  17 -17   3     912     330
  17 -17   4       0     324
  17 -17   5      44     318
  17 -17   6     491     310
  17 -17   7       4     281
  17 -17   8      39     281
  17 -17   9      98     306
 -18  18   7      76     320
  18 -18  -7      12     294
 -18  18   6      12     309
  18 -18  -6      12     331
 -18  18   5     600     352
  18 -18  -5     203     345
 -18  18   4       1     327
  18 -18  -4       1     346
 -18  18   3      18     328
 -18  18   3     560     278
  18 -18  -3      18     354
 -18  18   2     419     346
 -18  18   2     536     266
  18 -18  -2     830     400
 -18  18   1     600     275
  18 -18  -1     531     378
  18 -18   0       5     356
  18 -18   1     149     380
  18 -18   2     315     325
  18 -18   3      69     299
  18 -18   4       2     326
  18 -18   5    1011     378
  18 -18   6     156     350
  18 -18   7      12     338
 -19  19   5       1     337
  19 -19  -5       1     388
 -19  19   4     406     357
  19 -19  -4       3     361
 -19  19   3     300     356
  19 -19  -3     119     390
 -19  19   2     250     327
  19 -19  -2      15     359
  19 -19  -1      59     327
  19 -19   0     460     396
  19 -19   1       4     363
  19 -19   2      74     364
  19 -19   3      19     363
  19 -19   4     707     380
  19 -19   5       1     348
 -20  20   3       8     334
  20 -20  -2       1     319
  20 -20  -1     178     393
  20 -20   0      16     372
  20 -20   1      79     383
  20 -20   2     237     387
  19 -20   4       2     312
  19 -20   3      97     383
  19 -20   2      25     314
  19 -20   1     136     321
  19 -20   0       1     370
  19 -20  -1       0     383
  19 -20  -2      25     365
  19 -20  -3      11     351
 -19  20   3      11     370
  19 -20  -4     476     396
 -19  20   4      88     356
  18 -19   6       7     349
  18 -19   5     218     345
  18 -19   4       3     345
  18 -19   3     486     328
  18 -19   2     294     396
  18 -19   1       1     303
  18 -19   0    1155     371
  18 -19  -1     192     388
  18 -19  -2      39     378
 -18  19   2      12     344
  18 -19  -3     722     406
 -18  19   3    1061     392
  18 -19  -4     281     362
 -18  19   4     192     337
  18 -19  -5      10     339
 -18  19   5      10     358
  18 -19  -6     219     354
 -18  19   6       8     345
  17 -18   8      12     344
  17 -18   7      19     301
  17 -18   6       2     332
  17 -18   5     234     285
  17 -18   4     449     307
  17 -18   3     731     376
  17 -18   2     947     391
  17 -18   1      23     284
  17 -18   0      70     359
  17 -18  -1      23     291
  17 -18  -2     644     381
 -17  18   2     728     373
  17 -18  -3      87     314
 -17  18   3     254     335
  17 -18  -4     410     368
 -17  18   4      82     320
  17 -18  -5      41     357
 -17  18   5     306     335
  17 -18  -6     436     341
 -17  18   6     806     358
  17 -18  -7     118     329
 -17  18   7      21     320
  17 -18  -8      97     317
 -17  18   8      54     350
  16 -17   9      11     328
  16 -17   8      17     314
  16 -17   7     172     337
  16 -17   6     582     350
  16 -17   5     395     309
  16 -17   4     384     292
  16 -17   3     583     305
  16 -17   2      16     275
  16 -17   1     193     338
  16 -17   0      11     320
  16 -17  -1     334     303
 -16  17   1      12     305
  16 -17  -2      23     319
 -16  17   2      23     306
  16 -17  -3     567     366
 -16  17   3     417     328
 -16  17   3     309     236
  16 -17  -4    1226     397
 -16  17   4    1023     371
  16 -17  -5      66     337
 -16  17   5      74     307
  16 -17  -6     556     353
 -16  17   6     280     317
  16 -17  -7       5     311
 -16  17   7     333     339
  16 -17  -8      17     271
 -16  17   8     171     344
  16 -17  -9      11     276
 -16  17   9      11     338
  15 -16  10     385     376
  15 -16   9      96     280
  15 -16   8     270     279
  15 -16   7     514     334
  15 -16   6       8     295
  15 -16   5     410     281
  15 -16   4     667     323
  15 -16   3      54     296
  15 -16   2       4     247
  15 -16   1    1425     385
  15 -16   0     653     352
  15 -16  -1     579     310
 -15  16   1     686     338
 -15  16   1    1045     276
  15 -16  -2      23     322
 -15  16   2      77     227
 -15  16   2     163     297
  15 -16  -3     317     333
 -15  16   3     245     226
 -15  16   3     661     325
  15 -16  -4     129     327
 -15  16   4       4     276
 -15  16   4       4     211
  15 -16  -5       2     315
 -15  16   5      88     291
  15 -16  -6       8     309
 -15  16   6       8     298
  15 -16  -7     675     336
 -15  16   7     261     334
  15 -16  -8     339     308
 -15  16   8     576     342
  15 -16  -9       4     297
 -15  16   9     170     345
 -15  16  10     312     362
  14 -15  11     390     352
  14 -15  10      61     249
  14 -15   9     437     329
  14 -15   8     726     348
  14 -15   7     628     286
  14 -15   6     120     247
  14 -15   5     704     285
  14 -15   4     476     318
  14 -15   3       2     283
  14 -15   2       4     296
  14 -15   1    2878     440
  14 -15   0    3367     422
 -14  15   0    3063     353
  14 -15  -1    2756     407
 -14  15   1    3039     356
 -14  15   1    2184     389
  14 -15  -2       2     332
 -14  15   2       2     220
 -14  15   2       2     297
  14 -15  -3       2     282
 -14  15   3       9     205
 -14  15   3     233     299
  14 -15  -4      73     320
 -14  15   4     251     290
 -14  15   4     575     224
  14 -15  -5     799     340
 -14  15   5     475     314
  14 -15  -6     183     302
 -14  15   6     222     309
  14 -15  -7     334     305
 -14  15   7     623     332
  14 -15  -8     395     301
 -14  15   8     523     333
  14 -15  -9     467     274
 -14  15   9     189     322
 -14  15  10     260     343
 -14  15  11     134     339
  13 -14  12       0     327
  13 -14  11      11     280
  13 -14  10     672     340
  13 -14   9      11     223
  13 -14   8      89     280
  13 -14   7     572     277
  13 -14   6    3806     459
  13 -14   5       6     277
  13 -14   4      78     254
  13 -14   3      27     258
  13 -14   2    2793     361
  13 -14   1     126     317
 -13  14  -1      34     233
  13 -14   0    5277     509
 -13  14   0    5485     421
 -13  14   0    5875     504
  13 -14  -1     104     332
 -13  14   1      27     202
 -13  14   1     125     280
  13 -14  -2    2134     404
 -13  14   2    2130     370
 -13  14   2    2497     291
  13 -14  -3     248     335
 -13  14   3       4     278
 -13  14   3     273     214
  13 -14  -4      10     273
 -13  14   4       2     200
 -13  14   4       2     282
  13 -14  -5       6     306
 -13  14   5       6     188
 -13  14   5       6     286
  13 -14  -6    4405     489
 -13  14   6    3739     455
  13 -14  -7     252     286
 -13  14   7     150     292
  13 -14  -8     739     291
 -13  14   8       9     285
  13 -14  -9     276     246
 -13  14   9      10     252
 -13  14  10       5     302
  13 -14 -11     283     286
 -13  14  11      12     286
 -13  14  12      83     326
  12 -13  12       3     275
  12 -13  11     721     300
  12 -13  10       2     295
  12 -13   9     360     265
  12 -13   8     152     236
  12 -13   7    1121     322
  12 -13   6     477     263
  12 -13   5    1829     304
  12 -13   4    1205     291
  12 -13   3     370     250
  12 -13   2     346     246
  12 -13   1    3796     421
 -12  13  -1    3350     352
  12 -13   0    6192     493
 -12  13   0    5707     425
 -12  13   0    5972     472
  12 -13  -1    3629     419
 -12  13   1    3428     327
 -12  13   1    3394     401
  12 -13  -2     497     278
 -12  13   2     245     194
 -12  13   2     804     294
  12 -13  -3     260     315
 -12  13   3     282     201
 -12  13   3     250     269
  12 -13  -4    1260     356
 -12  13   4    1192     327
 -12  13   4    1463     245
  12 -13  -5    2234     368
 -12  13   5    1796     234
 -12  13   5    2125     358
  12 -13  -6      33     326
 -12  13   6       1     285
  12 -13  -7    1187     355
 -12  13   7    1509     329
  12 -13  -8      72     253
 -12  13   8      22     231
  12 -13  -9     179     189
 -12  13   9       6     275
 -12  13  10      56     251
  12 -13 -11     559     274
 -12  13  11     497     285
 -12  13  12      69     316
 -12  13  13     400     348
  11 -12  13     359     320
  11 -12  12     218     273
  11 -12  11      90     260
  11 -12  10       9     274
  11 -12   9     405     262
  11 -12   8      56     243
  11 -12   7      14     266
  11 -12   6     253     240
  11 -12   5    1276     288
  11 -12   4     950     304
  11 -12   3    2736     336
  11 -12   2     511     249
  11 -12   1    1071     291
 -11  12  -1     765     244
  11 -12   0    6330     426
 -11  12   0    5824     428
 -11  12   0    5467     366
  11 -12  -1     855     298
 -11  12   1     736     274
 -11  12   1     840     228
  11 -12  -2     592     308
 -11  12   2     561     210
 -11  12   2     655     278
  11 -12  -3    3405     386
 -11  12   3    3154     293
 -11  12   3    2986     369
  11 -12  -4     952     325
 -11  12   4    1003     205
 -11  12   4    1233     311
  11 -12  -5    1340     319
 -11  12   5    1318     312
 -11  12   5    1433     206
  11 -12  -6     392     304
 -11  12   6      72     235
 -11  12   6     292     166
  11 -12  -7     236     268
 -11  12   7      15     271
  11 -12  -8     381     263
 -11  12   8     109     277
  11 -12  -9     344     164
 -11  12   9      44     269
 -11  12  10      80     278
  11 -12 -11     703     260
 -11  12  11       5     285
  11 -12 -12     679     282
 -11  12  12     421     319
 -11  12  13     264     318
  10 -11  14     133     313
  10 -11  13     116     304
  10 -11  12     137     255
  10 -11  11     165     236
  10 -11  10    1043     301
  10 -11   9     145     269
  10 -11   8    1153     324
  10 -11   7     848     267
  10 -11   6    3283     374
  10 -11   5    1028     249
  10 -11   4    8157     467
  10 -11   3    4318     397
  10 -11   2     596     255
 -10  11  -2     770     229
  10 -11   1     940     264
 -10  11  -1     559     208
  10 -11   0      65     194
 -10  11   0      65     158
 -10  11   0      65     200
  10 -11  -1     774     265
 -10  11   1     830     200
 -10  11   1     885     255
  10 -11  -2     754     282
 -10  11   2     752     196
 -10  11   2     947     251
  10 -11  -3    3505     364
 -10  11   3    3898     376
 -10  11   3    3493     279
  10 -11  -4    7522     487
 -10  11   4    7421     374
 -10  11   4    7476     457
  10 -11  -5     533     279
 -10  11   5    1043     184
 -10  11   5     642     239
  10 -11  -6    3241     378
 -10  11   6    3804     269
 -10  11   6    3938     388
  10 -11  -7     938     278
 -10  11   7     584     291
  10 -11  -8    1209     301
 -10  11   8     977     304
  10 -11  -9     212     128
 -10  11   9     133     273
  10 -11 -10     260      74
 -10  11  10     650     293
  10 -11 -11     122     221
 -10  11  11     258     289
  10 -11 -12      64     261
 -10  11  12      12     282
 -10  11  13     221     320
 -10  11  14      14     317
   9 -10  14      85     253
   9 -10  13      10     278
   9 -10  12      56     235
   9 -10  11       0     251
   9 -10  10    3187     380
   9 -10   9    1273     286
   9 -10   8     571     249
   9 -10   7    4191     392
   9 -10   6    2947     327
   9 -10   5     123     190
   9 -10   4    8422     492
   9 -10   3    3554     307
   9 -10   2   22629     874
  -9  10  -2   21898     874
   9 -10   1    2910     313
  -9  10  -1    2571     272
   9 -10   0      44     184
  -9  10   0      10     198
  -9  10   0     255     160
   9 -10  -1    2359     311
  -9  10   1    2307     295
  -9  10   1    2328     248
   9 -10  -2   21273     870
  -9  10   2   22863     889
  -9  10   2   22074     829
   9 -10  -3    4383     365
  -9  10   3    4041     254
  -9  10   3    4153     335
   9 -10  -4    9008     511
  -9  10   4    7874     505
  -9  10   4    8283     408
   9 -10  -5     340     242
  -9  10   5      16     190
  -9  10   5      67     133
   9 -10  -6    2820     342
  -9  10   6    2772     221
  -9  10   6    2467     324
   9 -10  -7    3367     358
  -9  10   7    3249     358
   9 -10  -8     542     260
  -9  10   8     906     260
   9 -10  -9     751     162
  -9  10   9    1528     290
  -9  10  10    2541     374
   9 -10 -11     150     208
  -9  10  11       0     266
   9 -10 -12     419     238
  -9  10  12     273     257
   9 -10 -13     588     285
  -9  10  13       9     288
  -9  10  14     209     316
   8  -9  14      46     245
   8  -9  13      40     269
   8  -9  12    1082     320
   8  -9  11     799     290
   8  -9  10     443     278
   8  -9   9    5067     448
   8  -9   8    2434     315
   8  -9   7     726     253
   8  -9   6    2345     280
   8  -9   5    2604     298
   8  -9   4    1789     236
   8  -9   3   26085    1019
   8  -9   2     194     197
  -8   9  -2     295     182
   8  -9   1    3129     287
  -8   9  -1    2569     246
   8  -9   0   20609     773
  -8   9   0   20594     784
  -8   9   0   21028     764
   8  -9  -1    2588     265
  -8   9   1    2330     214
  -8   9   1    2726     269
   8  -9  -2     467     203
  -8   9   2     452     146
  -8   9   2     468     203
   8  -9  -3   25571    1034
  -8   9   3   26653     980
  -8   9   3   25381    1027
   8  -9  -4    1818     271
  -8   9   4    1720     233
  -8   9   4    1895     178
   8  -9  -5    3270     338
  -8   9   5    2198     296
  -8   9   5    2909     219
   8  -9  -6    2321     292
  -8   9   6    2286     278
  -8   9   6    2431     193
   8  -9  -7    1066     250
  -8   9   7    1198     275
  -8   9   7    1270     141
   8  -9  -8    2479     307
  -8   9   8    2252     304
   8  -9  -9    1612     211
  -8   9   9    4140     393
  -8   9  10       3     251
   8  -9 -11     220     132
  -8   9  11     725     278
   8  -9 -12    1610     296
  -8   9  12     992     308
   8  -9 -13     594     263
  -8   9  13     189     293
  -8   9  14      37     272
  -8   9  15     166     316
   7  -8  15       5     229
   7  -8  14     252     234
  -7   8 -14     167     260
   7  -8  13     329     266
  -7   8 -13     390     300
   7  -8  12     475     257
  -7   8 -12     483     278
   7  -8  11     600     261
  -7   8 -11     271     269
   7  -8  10     414     268
   7  -8   9    2111     291
   7  -8   8    3887     386
   7  -8   7    4040     347
   7  -8   6    4069     330
   7  -8   5    3266     283
   7  -8   4   18734     718
   7  -8   3    1572     231
   7  -8   2     746     184
  -7   8  -2     902     200
   7  -8   1   10814     558
  -7   8  -1   12256     566
   7  -8   0     646     185
  -7   8   0     389     173
  -7   8   0     609     144
   7  -8  -1   12510     595
  -7   8   1   11149     543
  -7   8   1   11256     580
   7  -8  -2     861     220
  -7   8   2     742     149
  -7   8   2     852     211
   7  -8  -3    1724     255
  -7   8   3    1585     171
  -7   8   3    1475     211
   7  -8  -4   19214     717
  -7   8   4   18000     722
  -7   8   4   17715     639
   7  -8  -5    3053     281
  -7   8   5    3207     278
  -7   8   5    2773     178
   7  -8  -6    3161     288
  -7   8   6    3490     194
  -7   8   6    3298     307
   7  -8  -7    3941     339
  -7   8   7    4489     362
  -7   8   7    3999     211
   7  -8  -8    3800     342
  -7   8   8    3378     353
   7  -8  -9    1107     191
  -7   8   9    2488     322
   7  -8 -10     251      80
  -7   8  10     633     288
  -7   8  11     524     266
   7  -8 -12     442     170
  -7   8  12     452     271
   7  -8 -13     354     221
  -7   8  13     150     274
   7  -8 -14     168     233
  -7   8  14      11     278
  -7   8  15      29     271
  -6   7 -15     108     289
  -6   7 -14     118     285
  -6   7 -13     330     276
  -6   7 -12       6     264
  -6   7 -11     709     278
  -6   7 -10      47     251
  -6   7  -9    3245     352
   6  -7   8     461     200
  -6   7  -8     656     214
   6  -7   7    3328     306
   6  -7   6     377     193
   6  -7   5    7478     396
   6  -7   4    2731     269
   6  -7   3   20516     719
   6  -7   2     409     143
  -6   7  -2      36     133
   6  -7   1    7625     303
  -6   7  -1    8505     313
   6  -7   0   10601     481
  -6   7   0   11367     479
  -6   7   0   11391     497
   6  -7  -1    8100     334
  -6   7   1    7791     269
  -6   7   1    7757     322
   6  -7  -2      89     167
  -6   7   2     469     158
  -6   7   2     402     119
   6  -7  -3   19811     697
  -6   7   3   19465     704
  -6   7   3   18748     639
   6  -7  -4    3110     273
  -6   7   4    2685     263
  -6   7   4    2491     180
   6  -7  -5    6812     387
  -6   7   5    7734     309
  -6   7   5    8091     418
   6  -7  -6     339     178
  -6   7   6     164      89
  -6   7   6      51     170
   6  -7  -7    3004     307
  -6   7   7    3397     206
  -6   7   7    3493     352
   6  -7  -8    1001     219
  -6   7   8    1008     249
  -6   7   8     897     119
   6  -7  -9    2765     298
  -6   7   9    3765     368
   6  -7 -10     228     133
  -6   7  10     144     255
   6  -7 -11     284      69
  -6   7  11     532     264
  -6   7  12     718     285
   6  -7 -13     247     114
  -6   7  13       1     257
   6  -7 -14      95     220
  -6   7  14     123     274
  -6   7  15      15     267
  -5   6 -15     149     292
  -5   6 -14     657     298
  -5   6 -13     121     266
  -5   6 -12     108     259
  -5   6 -11     862     287
  -5   6 -10    7410     488
  -5   6  -9    2573     322
  -5   6  -8       5     198
  -5   6  -7    7235     402
  -5   6  -6    9321     475
   5  -6   5    8767     388
   5  -6   4    9941     432
   5  -6   3   28763     829
   5  -6   2   56811    1942
   5  -6   1   11379     433
  -5   6  -1   11090     424
   5  -6   0     606     166
  -5   6   0     773     135
  -5   6   0     699     159
   5  -6  -1   11473     452
  -5   6   1   11595     422
  -5   6   1   10899     447
   5  -6  -2   56298    2032
  -5   6   2   61924    2045
  -5   6   2   60154    2070
   5  -6  -3   29054     850
  -5   6   3   29398     809
  -5   6   3   29893     868
   5  -6  -4   10719     428
  -5   6   4    9669     446
  -5   6   4    9823     366
   5  -6  -5    7146     343
  -5   6   5    7441     349
  -5   6   5    8030     268
   5  -6  -6    8948     456
  -5   6   6    9267     380
  -5   6   6    9545     494
   5  -6  -7    5942     354
  -5   6   7    6322     266
  -5   6   7    6962     403
   5  -6  -8     600     191
  -5   6   8     257     108
  -5   6   8     270     179
   5  -6  -9    2081     267
  -5   6   9    2142     277
   5  -6 -10    6796     431
  -5   6  10    6657     490
   5  -6 -11     356     179
  -5   6  11     457     261
   5  -6 -12     309     146
  -5   6  12     260     252
   5  -6 -13     255      91
  -5   6  13     293     270
   5  -6 -14     170      65
  -5   6  14     206     277
   5  -6 -15      87     131
  -5   6  15       2     276
  -4   5 -16     314     326
  -4   5 -15     152     288
  -4   5 -14     130     280
  -4   5 -13     363     267
  -4   5 -12     276     253
  -4   5 -11    3155     360
  -4   5 -10    2648     317
  -4   5  -9    4198     318
  -4   5  -8    5990     355
  -4   5  -7    7261     399
  -4   5  -6    1680     200
  -4   5  -5   13060     500
   4  -5   4   25964     977
   4  -5   3   39725    1368
   4  -5   2   16751     650
   4  -5   1   22249     946
  -4   5  -1   24212     963
   4  -5   0      99     142
  -4   5   0     118     121
  -4   5   0     128     149
   4  -5  -1   23960     953
  -4   5   1   23332     942
  -4   5   1   23234     968
   4  -5  -2   16482     659
  -4   5   2   17262     622
  -4   5   2   17240     669
   4  -5  -3   42228    1411
  -4   5   3   40563    1390
  -4   5   3   40335    1436
   4  -5  -4   27265     964
  -4   5   4   24875     919
  -4   5   4   24743     982
   4  -5  -5   13229     507
  -4   5   5   13666     533
  -4   5   5   13464     443
   4  -5  -6    1828     209
  -4   5   6    1697     198
  -4   5   6    1390     126
   4  -5  -7    7754     420
  -4   5   7    8022     346
  -4   5   7    8248     456
   4  -5  -8    5278     311
  -4   5   8    5105     348
  -4   5   8    4779     220
   4  -5  -9    4972     338
  -4   5   9    4457     362
  -4   5   9    4140     237
   4  -5 -10    2784     305
  -4   5  10    2652     326
   4  -5 -11    2515     308
  -4   5  11    2152     330
   4  -5 -12     214     235
  -4   5  12      45     246
   4  -5 -13     290     240
  -4   5  13      82     259
   4  -5 -14      61     179
  -4   5  14     244     281
   4  -5 -15     170     141
  -4   5  15     128     282
  -4   5  16       2     270
  -3   4 -16       1     288
   3  -4  15     228     247
  -3   4 -15     592     288
   3  -4  14       4     214
  -3   4 -14      97     265
  -3   4 -13     267     254
  -3   4 -12    2783     344
  -3   4 -11    1868     307
  -3   4 -10    1665     250
  -3   4  -9   12816     578
  -3   4  -8    5739     365
  -3   4  -7    2945     263
  -3   4  -6    1057     175
  -3   4  -5    8228     354
  -3   4  -4   20208     805
   3  -4   3   78052    2604
   3  -4   2   19593    1204
   3  -4   1   20664     601
   3  -4   0    1348     130
  -3   4   0     820     118
  -3   4   0     652     129
   3  -4  -1   19954     600
  -3   4   1   20357     606
  -3   4   1   21072     584
   3  -4  -2   17380    1144
  -3   4   2   18543    1135
  -3   4   2   18826    1172
   3  -4  -3   78519    2512
  -3   4   3   72479    2526
  -3   4   3   74293    2558
   3  -4  -4   19845     822
  -3   4   4   20837     851
  -3   4   4   21232     787
   3  -4  -5    8196     370
  -3   4   5    9141     396
  -3   4   5    8823     313
   3  -4  -6    1149     173
  -3   4   6    1100     163
  -3   4   6    1282     109
   3  -4  -7    2631     243
  -3   4   7    2828     249
  -3   4   7    2647     169
   3  -4  -8    5697     345
  -3   4   8    5482     271
  -3   4   8    5179     371
   3  -4  -9   12389     563
  -3   4   9   12394     491
  -3   4   9   12105     599
   3  -4 -10    1773     259
  -3   4  10    1899     190
  -3   4  10    1877     289
   3  -4 -11    2510     303
  -3   4  11    2195     315
   3  -4 -12    2450     316
  -3   4  12    2226     338
   3  -4 -13     584     236
  -3   4  13     374     259
   3  -4 -14     155     237
  -3   4  14       5     262
   3  -4 -15     381     255
  -3   4  15     136     279
   3  -4 -16       1     199
  -3   4  16       1     279
   2  -3  16     125     267
  -2   3 -16     137     286
   2  -3  15      97     253
  -2   3 -15     306     286
   2  -3  14      42     214
  -2   3 -14     185     266
   2  -3  13    1339     272
  -2   3 -13    1340     280
  -2   3 -12     250     234
  -2   3 -11     361     237
  -2   3 -10    2635     288
  -2   3  -9    1175     233
  -2   3  -8    1084     201
  -2   3  -7    9926     440
  -2   3  -6     275     140
  -2   3  -5    2820     196
  -2   3  -4    3246     224
  -2   3  -3    9723     438
   2  -3   2   63597    1658
   2  -3   1    8750     459
   2  -3   0    5952     379
  -2   3   0    5962     384
   2  -3  -1    9513     494
  -2   3   1    8981     477
  -2   3   1    8416     496
   2  -3  -2   67868    1670
  -2   3   2   61518    1672
  -2   3   2   60629    1696
   2  -3  -3    9944     487
  -2   3   3   11002     499
  -2   3   3   10874     445
   2  -3  -4    3673     238
  -2   3   4    3711     250
  -2   3   4    3677     173
   2  -3  -5    2783     193
  -2   3   5    2780     189
  -2   3   5    2772     129
   2  -3  -6     218     109
  -2   3   6     275     138
  -2   3   6     220      81
   2  -3  -7    9087     402
  -2   3   7    9702     438
  -2   3   7    9127     362
   2  -3  -8     954     192
  -2   3   8    1023     138
  -2   3   8     988     201
   2  -3  -9    1571     241
  -2   3   9    1378     174
  -2   3   9    1215     236
   2  -3 -10    2355     289
  -2   3  10    2430     309
  -2   3  10    2600     232
   2  -3 -11     757     243
  -2   3  11      58     225
  -2   3  11     432     194
   2  -3 -12      62     216
  -2   3  12     412     238
   2  -3 -13    1367     273
  -2   3  13    1039     297
   2  -3 -14       2     232
  -2   3  14      28     241
   2  -3 -15       2     224
  -2   3  15     107     270
   2  -3 -16      16     249
  -2   3  16       2     304
   1  -2  16     125     283
  -1   2 -16     199     272
   1  -2  15       4     229
  -1   2 -15      89     248
   1  -2  14     460     253
  -1   2 -14     791     278
   1  -2  13     232     215
  -1   2 -13       3     221
   1  -2  12    1699     277
  -1   2 -12    1549     284
  -1   2 -11       1     212
  -1   2 -10     228     198
  -1   2  -9     361     178
  -1   2  -8      16     144
  -1   2  -7    2691     237
  -1   2  -6   52323    1865
  -1   2  -5    1089     151
  -1   2  -4   22889     701
  -1   2  -3    6377     241
  -1   2  -2     225     108
   1  -2   1   27165     755
   1  -2   0   29795    1663
  -1   2   0   30909    1693
   1  -2  -1   26665     743
  -1   2   1   27023     757
   1  -2  -2     250     121
  -1   2   2     233     124
   1  -2  -3    6281     238
  -1   2   3    6609     256
   1  -2  -4   22403     704
  -1   2   4   23449     724
   1  -2  -5    1167     148
  -1   2   5    1242     160
   1  -2  -6   51582    1847
  -1   2   6   51736    1885
   1  -2  -7    2869     245
  -1   2   7    2854     252
   1  -2  -8      16     148
  -1   2   8      16     143
   1  -2  -9     191     181
  -1   2   9     362     176
   1  -2 -10     113     204
  -1   2  10      17     151
  -1   2  10       0     186
   1  -2 -11     348     224
  -1   2  11     187     168
  -1   2  11     444     246
   1  -2 -12    1481     300
  -1   2  12    1213     271
   1  -2 -13     377     240
  -1   2  13       3     243
   1  -2 -14     857     266
  -1   2  14     508     289
   1  -2 -15      66     281
  -1   2  15       4     273
   1  -2 -16     680     305
  -1   2  16     412     312
   0  -1  16      24     248
   0   1 -16     239     261
   0  -1  15      13     270
   0   1 -15     152     263
   0  -1  14     151     230
   0   1 -14      44     229
   0  -1  13    3271     328
   0  -1  13    3243     355
   0   1 -13    2854     340
   0  -1  12    1011     256
   0   1 -12    1927     283
   0  -1  11    3013     317
   0   1 -11    3195     319
   0   1 -10      16     178
   0   1  -9     243     188
   0   1  -8    3731     259
   0   1  -7   23471     807
   0   1  -6    4642     272
   0   1  -5   11657     396
   0   1  -4     144      45
   0   1  -3     337      14
   0  -1   1  149391    3072
   0  -1   0  329492       8
   0  -1  -1  144462    2977
   0   1   1  147723    3031
   0  -1  -2    8862     231
   0   1   2    8554     229
   0  -1  -3     147     117
   0   1   3     148     106
   0  -1  -4    1681     151
   0   1   4    1702     160
   0  -1  -5   21178     689
   0   1   5   20518     695
   0  -1  -6    5271     298
   0   1   6    5084     314
   0  -1  -7   23717     848
   0   1   7   25219     868
   0  -1  -8    3793     281
   0   1   8    4066     278
   0  -1  -9      36     172
   0   1   9      22     158
   0  -1 -10      16     179
   0   1  10      16     194
   0  -1 -11    2598     309
   0   1  11    3003     332
   0  -1 -12    1523     285
   0   1  12    1393     274
   0  -1 -13    3020     344
   0   1  13    2711     345
   0  -1 -14     333     261
   0   1  14       7     260
   0  -1 -15      14     244
   0   1  15     195     267
   0  -1 -16     260     276
   0   1  16      24     291
  -1   0  16       1     296
   1   0 -16       0      80
  -1   0  15      48     280
   1   0 -15      23      88
  -1   0  14      94     246
   1   0 -14      77     124
  -1   0  13    2744     311
  -1   0  13    2834     340
  -1   0  12    1755     262
  -1   0  12    1420     299
   1   0 -12     874     186
  -1   0  11    3231     308
  -1   0  11    3903     364
  -1   0  10      16     169
  -1   0  10      16     196
   1   0 -10       2     101
  -1   0   9      41     161
   1   0  -9      15      61
   1   0  -8     151      42
   1   0  -7      48      35
   1   0  -5   11832     397
   1   0  -4    1871     143
   1   0  -3     205      95
  -1   0   2    8513     225
   1   0  -2    8502     209
  -1   0   1  146531    3077
  -1   0  -1  142105    2907
   1   0   1  145640    2952
  -1   0  -2    7951     219
   1   0   2    8142     211
  -1   0  -3     243     116
  -1   0  -4    2047     179
  -1   0  -5   20037     667
   1   0   5   20263     666
  -1   0  -6    5069     307
   1   0   6    4945     290
  -1   0  -7   24802     854
   1   0   7   24200     854
  -1   0  -8    4160     287
   1   0   8    3974     279
  -1   0  -9      12     174
   1   0   9      30     165
  -1   0 -10      11     201
   1   0  10      26     175
  -1   0 -11    3424     336
   1   0  11    3102     310
  -1   0 -12    1508     283
   1   0  12    1039     273
  -1   0 -13    2323     329
   1   0  13    2829     337
  -1   0 -14     235     256
   1   0  14       7     225
  -1   0 -15      13     246
   1   0  15     118     280
  -1   0 -16       4     264
   1   0  16     145     294
  -2   1  16      51     277
  -2   1  15      40     269
   2  -1 -15       3     220
  -2   1  14     977     310
   2  -1 -14     431     230
  -2   1  13      61     235
   2  -1 -13      57     169
  -2   1  12    1841     268
  -2   1  12    1828     319
  -2   1  11     174     188
  -2   1  11     226     227
   2  -1 -11     184     141
  -2   1  10     133     175
  -2   1  10       1     188
   2  -1 -10     135     137
  -2   1   9      94     173
  -2   1   9     353     157
   2  -1  -9     287     139
  -2   1   8      89     133
  -2   1   8      15     144
   2  -1  -8      15     125
  -2   1   7    3258     233
  -2   1   7    3171     264
   2  -1  -7    2959     223
  -2   1   6   53627    1918
   2  -1  -6   52189    1872
  -2   1   5    1310     146
   2  -1  -5    1438     147
  -2   1   4   23919     718
   2  -1  -4   22790     698
  -2   1   3    6445     229
   2  -1  -3    6026     221
  -2   1   2     148      98
   2  -1  -2     193      86
  -2   1   1   27213     764
  -2   1   1   27004     760
   2  -1  -1   27073     737
  -2   1   0   25417    1577
  -2   1   0   31915    1605
  -2   1  -1   26926     752
  -2   1  -1   25800     727
  -2   1  -2     212     115
  -2   1  -2     239     115
  -2   1  -3    6293     234
  -2   1  -3    5926     237
  -2   1  -4   23508     730
  -2   1  -5    1325     160
  -2   1  -6   53252    1907
  -2   1  -7    2951     258
  -2   1  -8      16     162
  -2   1  -9     131     188
   2  -1   9      96     155
  -2   1 -10       1     204
   2  -1  10      17     178
  -2   1 -11     324     234
   2  -1  11     312     200
  -2   1 -12    1498     301
   2  -1  12    1425     262
  -2   1 -13     229     248
   2  -1  13      64     212
  -2   1 -14     957     296
   2  -1  14     392     261
  -2   1 -15      99     264
   2  -1  15     327     259
  -2   1 -16     660     297
  -3   2  16       2     261
  -3   2  15     256     277
   3  -2 -15     162     232
  -3   2  14      77     253
   3  -2 -14      66     218
  -3   2  13    1241     304
   3  -2 -13    1523     272
  -3   2  12       8     224
   3  -2 -12     104     201
  -3   2  11     264     185
  -3   2  11     476     239
   3  -2 -11     549     224
  -3   2  10    2822     327
  -3   2  10    2893     269
   3  -2 -10    2644     290
  -3   2   9    1449     195
  -3   2   9    1087     232
   3  -2  -9     873     199
  -3   2   8     942     156
  -3   2   8     826     197
   3  -2  -8     815     166
  -3   2   7    9553     450
  -3   2   7    9358     396
   3  -2  -7    9794     409
  -3   2   6     297     125
  -3   2   6     521     119
   3  -2  -6     346     116
  -3   2   5    2536     197
  -3   2   5    2609     157
   3  -2  -5    2634     167
  -3   2   4    3465     230
  -3   2   4    3403     202
   3  -2  -4    3532     207
  -3   2   3    9952     483
  -3   2   3   10178     459
   3  -2  -3   11030     454
  -3   2   2   68100    1758
  -3   2   2   67025    1756
   3  -2  -2   63712    1709
  -3   2   1    9996     509
  -3   2   1   10129     508
   3  -2  -1    8762     493
  -3   2   0    5081     345
  -3   2   0    6057     362
  -3   2  -1    9120     496
  -3   2  -1    9394     478
  -3   2  -2   63973    1674
  -3   2  -2   63311    1724
  -3   2  -3   11320     525
  -3   2  -3   11045     509
  -3   2  -4    3443     238
  -3   2  -5    3071     212
  -3   2  -6     225     132
  -3   2  -7    9636     428
  -3   2  -8    1002     208
  -3   2  -9    1073     217
  -3   2 -10    2425     316
   3  -2  10    2915     287
  -3   2 -11     530     218
   3  -2  11     285     205
  -3   2 -12     258     244
   3  -2  12     629     226
  -3   2 -13    1369     277
   3  -2  13    1669     265
  -3   2 -14       8     258
   3  -2  14     143     239
  -3   2 -15      12     262
   3  -2  15     446     260
  -3   2 -16      88     274
  -4   3  16      75     294
  -4   3  15     238     291
  -4   3  14      25     245
   4  -3 -14      82     237
  -4   3  13     331     256
   4  -3 -13     163     217
  -4   3  12    2898     362
   4  -3 -12    3073     328
  -4   3  11    1551     305
  -4   3  11    2045     245
   4  -3 -11    2524     277
  -4   3  10    2114     303
  -4   3  10    2184     234
   4  -3 -10    2364     269
  -4   3   9   12697     618
  -4   3   9   13010     539
   4  -3  -9   12427     548
  -4   3   8    5221     371
  -4   3   8    5145     290
   4  -3  -8    5399     311
  -4   3   7    2891     202
  -4   3   7    3245     281
   4  -3  -7    2473     214
  -4   3   6    1468     145
  -4   3   6     706     165
   4  -3  -6    1237     158
  -4   3   5    8861     347
  -4   3   5    8626     385
   4  -3  -5    9213     358
  -4   3   4   21394     851
  -4   3   4   19852     810
   4  -3  -4   21112     805
  -4   3   3   77180    2635
  -4   3   3   79247    2644
   4  -3  -3   76114    2575
  -4   3   2   17868    1147
  -4   3   2   17238    1152
   4  -3  -2   19358    1131
  -4   3   1   19730     581
  -4   3   1   19960     580
  -4   3   0     612     125
  -4   3   0     439      95
   4  -3   0    1143     113
  -4   3  -1   19787     571
  -4   3  -1   20515     604
   4  -3   1   19616     581
  -4   3  -2   18364    1159
  -4   3  -2   19720    1203
  -4   3  -3   75792    2602
  -4   3  -3   75450    2525
  -4   3  -4   21363     878
  -4   3  -4   21044     848
  -4   3  -5    8779     376
  -4   3  -6     943     181
  -4   3  -7    2640     252
  -4   3  -8    5903     383
  -4   3  -9   12113     563
  -4   3 -10    1622     257
  -4   3 -11    2046     314
   4  -3  11    2032     260
  -4   3 -12    2953     363
   4  -3  12    2939     311
  -4   3 -13       7     252
   4  -3  13     386     227
  -4   3 -14     196     279
   4  -3  14      72     231
  -4   3 -15     319     295
  -4   3 -16       1     294
  -5   4  16       2     300
  -5   4  15     794     306
  -5   4  14     133     274
   5  -4 -14      14     222
  -5   4  13     389     259
   5  -4 -13     409     227
  -5   4  12     272     247
   5  -4 -12     144     221
  -5   4  11    2558     337
   5  -4 -11    2944     309
  -5   4  10    3237     348
  -5   4  10    2927     249
   5  -4 -10    2565     270
  -5   4   9    4616     288
  -5   4   9    4144     341
   5  -4  -9    4445     298
  -5   4   8    5598     363
  -5   4   8    5245     267
   5  -4  -8    4711     296
  -5   4   7    7671     377
  -5   4   7    7877     454
   5  -4  -7    8182     407
  -5   4   6    1741     203
  -5   4   6    1825     163
   5  -4  -6    1860     180
  -5   4   5   12679     459
  -5   4   5   12964     512
   5  -4  -5   13150     465
  -5   4   4   28130     999
  -5   4   4   27328    1031
   5  -4  -4   25489     987
  -5   4   3   42435    1451
  -5   4   3   42628    1471
   5  -4  -3   40222    1426
  -5   4   2   15382     595
  -5   4   2   15774     584
   5  -4  -2   14773     579
  -5   4   1   23942     969
  -5   4   1   24637     968
  -5   4   0     128     134
  -5   4   0     225     103
   5  -4   0     126     135
  -5   4  -1   22091     934
  -5   4  -1   22685     966
   5  -4   1   24181     934
  -5   4  -2   16357     629
   5  -4   2   15136     601
  -5   4  -3   41639    1415
  -5   4  -3   40837    1462
  -5   4  -4   24889     984
  -5   4  -4   25615     949
  -5   4  -5   13221     500
  -5   4  -6    1794     228
  -5   4  -7    8086     432
  -5   4  -8    4654     306
  -5   4  -9    5161     389
  -5   4 -10    2876     319
  -5   4 -11    2954     361
  -5   4 -12     187     224
   5  -4  12     174     199
  -5   4 -13     108     262
   5  -4  13     441     219
  -5   4 -14     229     290
  -5   4 -15      23     270
  -5   4 -16       2     292
  -6   5  15       2     308
  -6   5  14      46     272
  -6   5  13     366     272
   6  -5 -13     550     240
  -6   5  12      94     244
   6  -5 -12       3     186
  -6   5  11     633     267
   6  -5 -11     926     237
  -6   5  10    6426     359
  -6   5  10    6604     457
   6  -5 -10    6817     416
  -6   5   9    1930     299
  -6   5   9    2323     221
   6  -5  -9    2158     266
  -6   5   8     349     183
  -6   5   8     483     154
   6  -5  -8     666     172
  -6   5   7    6602     313
  -6   5   7    6288     400
   6  -5  -7    6287     342
  -6   5   6    9347     416
  -6   5   6    9155     476
   6  -5  -6    9371     437
  -6   5   5    7373     363
  -6   5   5    7266     298
   6  -5  -5    8320     324
  -6   5   4   10642     406
  -6   5   4   11488     459
   6  -5  -4    9492     425
  -6   5   3   29108     851
  -6   5   3   29551     830
   6  -5  -3   29451     834
  -6   5   2   57134    1963
  -6   5   2   55822    1960
  -6   5   1   11270     437
  -6   5   1   11682     441
   6  -5  -1   11386     429
  -6   5   0     770     144
  -6   5   0     254      99
   6  -5   0     804     133
  -6   5  -1   11568     450
  -6   5  -1   11300     424
   6  -5   1   11577     428
  -6   5  -2   57946    2031
   6  -5   2   57745    1970
  -6   5  -3   29875     874
   6  -5   3   28772     835
  -6   5  -4   10163     450
  -6   5  -4    9652     416
  -6   5  -5    8102     358
  -6   5  -6    9654     493
  -6   5  -7    6539     387
  -6   5  -8     657     229
  -6   5  -9    2040     312
  -6   5 -10    6462     467
  -6   5 -11     972     300
  -6   5 -12     108     258
  -6   5 -13     318     281
  -6   5 -14     256     289
  -6   5 -15       2     283
  -7   6  15     422     304
  -7   6  14      12     272
  -7   6  13     396     250
   7  -6 -13     512     228
  -7   6  12       5     251
   7  -6 -12     645     229
  -7   6  11     641     271
   7  -6 -11     625     229
  -7   6  10     269     265
   7  -6 -10     807     209
  -7   6   9    3558     275
  -7   6   9    3465     365
   7  -6  -9    3945     315
  -7   6   8     658     159
  -7   6   8     665     234
   7  -6  -8     860     210
  -7   6   7    3184     338
  -7   6   7    3273     252
   7  -6  -7    3349     301
  -7   6   6     349     193
  -7   6   6     223     132
   7  -6  -6     190     154
  -7   6   5    6974     392
  -7   6   5    6835     326
   7  -6  -5    7394     365
  -7   6   4    2666     257
  -7   6   4    2480     204
   7  -6  -4    2856     254
  -7   6   3   18831     669
  -7   6   3   19278     648
  -7   6   2     203     120
  -7   6   2     101     126
   7  -6  -2     203     122
  -7   6   1    8137     309
  -7   6   1    7769     303
   7  -6  -1    8048     315
  -7   6   0   10637     467
   7  -6   0   10954     468
  -7   6  -1    7976     290
  -7   6  -1    7742     305
   7  -6   1    8143     301
  -7   6  -2     329     153
   7  -6   2     164     120
  -7   6  -3   19248     718
   7  -6   3   20876     705
  -7   6  -4    2620     277
   7  -6   4    2774     263
  -7   6  -5    6839     365
  -7   6  -5    7462     412
  -7   6  -6     354     199
  -7   6  -7    3339     315
  -7   6  -8    1215     272
  -7   6  -9    4112     368
  -7   6 -10     271     281
  -7   6 -11     165     278
  -7   6 -12      57     272
  -7   6 -13       1     275
  -7   6 -14      12     246
  -7   6 -15     389     318
  -8   7  15     291     314
  -8   7  14      10     276
  -8   7  13      29     270
  -8   7  12     197     266
   8  -7 -12     311     214
  -8   7  11     708     276
   8  -7 -11     481     225
  -8   7  10     525     269
   8  -7 -10    1110     262
  -8   7   9    1870     284
   8  -7  -9    2955     289
  -8   7   8    4239     382
  -8   7   8    3522     270
   8  -7  -8    4015     319
  -8   7   7    4002     263
  -8   7   7    3636     318
   8  -7  -7    3996     321
  -8   7   6    3040     228
  -8   7   6    3073     297
   8  -7  -6    3992     294
  -8   7   5    3238     227
  -8   7   5    2955     271
   8  -7  -5    3617     272
  -8   7   4   17006     682
  -8   7   4   17526     636
   8  -7  -4   17462     673
  -8   7   3    1759     220
  -8   7   3    1556     184
  -8   7   2     755     164
  -8   7   2     563     176
   8  -7  -2     889     204
  -8   7   1   12470     569
  -8   7   1   11774     557
   8  -7  -1   10755     566
  -8   7   0     466     146
   8  -7   0     531     166
  -8   7  -1   11576     576
  -8   7  -1   11484     563
   8  -7   1   12333     578
  -8   7  -2     748     197
   8  -7   2     953     197
  -8   7  -3    1707     247
   8  -7   3    1725     230
  -8   7  -4   17786     715
   8  -7   4   17616     678
  -8   7  -5    2936     270
   8  -7   5    2929     276
  -8   7  -6    3426     311
   8  -7   6    4094     328
  -8   7  -7    3751     346
  -8   7  -8    3473     345
  -8   7  -9    2622     321
  -8   7 -10     662     271
  -8   7 -11     623     287
  -8   7 -12     180     236
  -8   7 -13      78     297
  -8   7 -14     215     307
  -8   7 -15     108     322
  -9   8  15     387     318
  -9   8  14      35     274
  -9   8  13      82     282
  -9   8  12    1375     328
   9  -8 -12    1697     280
  -9   8  11     603     284
   9  -8 -11     673     234
  -9   8  10     111     228
   9  -8 -10     183     226
  -9   8   9    5106     440
   9  -8  -9    5752     400
  -9   8   8    2030     323
  -9   8   8    2446     228
   9  -8  -8    2345     287
  -9   8   7    1161     181
  -9   8   7     963     256
   9  -8  -7    1138     252
  -9   8   6    2490     294
  -9   8   6    2568     220
   9  -8  -6    2469     285
  -9   8   5    2767     237
  -9   8   5    3454     319
   9  -8  -5    2471     284
  -9   8   4    1512     220
  -9   8   4    1554     187
  -9   8   3   23527     893
  -9   8   3   22717     917
   9  -8  -3   21526     900
  -9   8   2     389     159
  -9   8   2     275     173
   9  -8  -2     405     199
  -9   8   1    2240     238
  -9   8   1    2599     236
   9  -8  -1    2824     274
  -9   8   0   21071     775
   9  -8   0   20662     759
  -9   8  -1    2541     232
  -9   8  -1    2362     235
   9  -8   1    2622     243
  -9   8  -2     382     191
   9  -8   2     416     169
  -9   8  -3   27358    1072
   9  -8   3   25423    1031
  -9   8  -4    1615     229
   9  -8   4    1347     237
  -9   8  -5    2695     331
   9  -8   5    2963     297
   9  -8   6    2516     289
   9  -8   7    1373     255
  -9   8  -8    2088     300
   9  -8   8    2210     303
  -9   8  -9    4423     383
   9  -8   9    4455     397
  -9   8 -10     111     275
  -9   8 -11     638     252
  -9   8 -12    1470     334
  -9   8 -13       6     248
  -9   8 -14      37     287
 -10   9  14     534     324
 -10   9  13     104     291
 -10   9  12       7     271
 -10   9  11     126     224
  10  -9 -11      35     218
 -10   9  10    2831     379
  10  -9 -10    3423     356
 -10   9   9    1623     315
  10  -9  -9    2221     311
 -10   9   8     712     248
  10  -9  -8     666     236
 -10   9   7    3460     257
 -10   9   7    3068     332
  10  -9  -7    3534     337
 -10   9   6    2759     244
 -10   9   6    2273     294
  10  -9  -6    2890     328
 -10   9   5       4     152
 -10   9   5      51     183
  10  -9  -5       5     190
 -10   9   4    8197     416
 -10   9   4    8288     486
 -10   9   3    3628     305
 -10   9   3    4001     272
  10  -9  -3    4710     344
 -10   9   2   22303     850
 -10   9   2   21082     816
  10  -9  -2   21366     849
 -10   9   1    2821     263
 -10   9   1    2793     281
  10  -9  -1    2252     266
 -10   9   0     379     182
  10  -9   0     185     197
 -10   9  -1    1776     231
 -10   9  -1    2358     252
  10  -9   1    2837     289
 -10   9  -2   22426     887
  10  -9   2   22136     869
 -10   9  -3    4688     352
  10  -9   3    4039     313
 -10   9  -4    7810     489
  10  -9   4    8181     458
 -10   9  -5     193     194
  10  -9   5      40     183
  10  -9   6    2930     337
  10  -9   7    3967     383
  10  -9   8     690     293
  10  -9   9    1980     342
  10  -9  10    2988     395
  10  -9  11       0     246
  10  -9  12       7     263
  10  -9  13     643     326
  10  -9  14     911     302
 -11  10  14      14     312
 -11  10  13     333     316
 -11  10  12     166     252
 -11  10  11       0     248
  11 -10 -11     294     217
 -11  10  10     248     269
  11 -10 -10    1148     257
 -11  10   9     500     249
  11 -10  -9     418     245
 -11  10   8     936     302
  11 -10  -8    1538     295
 -11  10   7     474     184
 -11  10   7     591     274
  11 -10  -7     470     231
 -11  10   6    3012     331
 -11  10   6    3586     285
  11 -10  -6    3410     370
 -11  10   5     988     191
 -11  10   5     943     265
  11 -10  -5     123     143
 -11  10   4    7361     463
 -11  10   4    7036     380
  11 -10  -4    6659     439
 -11  10   3    3491     344
 -11  10   3    3265     300
  11 -10  -3    4113     381
 -11  10   2     776     243
 -11  10   2     902     202
  11 -10  -2    1097     275
 -11  10   1     481     194
 -11  10   1     619     219
  11 -10  -1     876     223
 -11  10   0       3     176
 -11  10   0       3      67
  11 -10   0      30     180
 -11  10  -1     942     204
 -11  10  -1     470     208
  11 -10   1     754     212
 -11  10  -2     821     213
  11 -10   2     888     223
 -11  10  -3    3097     348
  11 -10   3    3747     336
 -11  10  -4    7884     488
  11 -10   4    8046     475
 -11  10  -5     875     283
  11 -10   5     891     243
  11 -10   6    3536     353
  11 -10   7     859     246
  11 -10   8     937     272
  11 -10   9     710     287
  11 -10  10     703     305
  11 -10  11     408     298
  11 -10  12      11     230
  11 -10  13     374     325
  11 -10  14      21     264
 -12  11  13      13     287
 -12  11  12     157     299
 -12  11  11       4     270
 -12  11  10      10     226
  12 -11 -10     352     243
 -12  11   9     529     284
  12 -11  -9     620     252
 -12  11   8     355     271
  12 -11  -8     170     246
 -12  11   7     183     268
  12 -11  -7      16     261
 -12  11   6     382     189
 -12  11   6     294     270
  12 -11  -6     132     268
 -12  11   5    1471     298
 -12  11   5    1456     227
 -12  11   4    1013     281
 -12  11   4    1092     224
  12 -11  -4     776     302
 -12  11   3    3168     313
 -12  11   3    3431     357
  12 -11  -3    2758     364
 -12  11   2     785     220
 -12  11   2     469     256
  12 -11  -2    1254     305
 -12  11   1     834     226
 -12  11   1     956     265
  12 -11  -1     752     246
 -12  11   0    6077     394
  12 -11   0    6528     401
 -12  11  -1     646     215
 -12  11  -1     800     250
  12 -11   1     883     266
 -12  11  -2     766     261
  12 -11   2     614     278
 -12  11  -3    3416     380
  12 -11   3    3589     368
 -12  11  -4    1292     280
  12 -11   4     964     255
 -12  11  -5    1361     315
  12 -11   5    1126     264
  12 -11   6     573     259
  12 -11   7      80     228
  12 -11   8       2     254
  12 -11   9     367     248
  12 -11  10     498     246
  12 -11  11     299     264
  12 -11  12     488     278
  12 -11  13     916     340
 -13  12  13       5     253
 -13  12  12     355     324
 -13  12  11     731     322
 -13  12  10     185     284
  13 -12 -10     381     233
 -13  12   9     116     281
  13 -12  -9     105     257
 -13  12   8     489     249
  13 -12  -8     730     272
 -13  12   7    1152     326
  13 -12  -7     950     314
 -13  12   6      19     191
 -13  12   6     138     243
  13 -12  -6       2     184
 -13  12   5    1512     245
 -13  12   5    1812     322
  13 -12  -5     890     236
 -13  12   4    1523     315
 -13  12   4    1398     244
  13 -12  -4    1711     356
 -13  12   3     465     276
 -13  12   3     402     221
  13 -12  -3     378     296
 -13  12   2     782     226
 -13  12   2     509     269
  13 -12  -2     563     307
 -13  12   1    3805     373
 -13  12   1    3432     341
  13 -12  -1    3704     417
 -13  12   0    6177     421
  13 -12   0    6003     469
 -13  12  -1    2879     326
 -13  12  -1    3310     364
  13 -12   1    3404     354
 -13  12  -2     736     269
  13 -12   2     808     249
 -13  12  -3     357     271
  13 -12   3     153     238
 -13  12  -4    1154     314
  13 -12   4    1677     344
  13 -12   5    1788     325
  13 -12   6       1     272
  13 -12   7    1691     368
  13 -12   8     441     249
  13 -12   9      56     285
  13 -12  10     343     300
  13 -12  11     284     270
  13 -12  12     447     320
 -14  13  12     814     355
 -14  13  11      11     298
 -14  13  10     654     337
 -14  13   9     317     268
  14 -13  -9      10     261
 -14  13   8     112     244
  14 -13  -8       9     238
 -14  13   7       3     262
  14 -13  -7       3     275
 -14  13   6    3781     435
 -14  13   6    4512     397
 -14  13   5       0     199
 -14  13   5       6     278
  14 -13  -5     217     290
 -14  13   4       2     214
 -14  13   4      37     301
  14 -13  -4      48     311
 -14  13   3     410     292
 -14  13   3     150     204
  14 -13  -3     350     316
 -14  13   2    2721     357
 -14  13   2    2387     326
  14 -13  -2    2916     413
 -14  13   1      27     219
 -14  13   1      61     292
  14 -13  -1     272     322
 -14  13   0    6182     459
  14 -13   0    6818     530
 -14  13  -1      30     235
  14 -13   1      30     233
 -14  13  -2    2865     362
  14 -13   2    2893     390
 -14  13  -3     399     270
  14 -13   3      18     241
 -14  13  -4     176     272
  14 -13   4       2     271
  14 -13   5     115     293
  14 -13   6    3740     409
  14 -13   7       3     219
  14 -13   8     363     293
  14 -13   9      11     256
  14 -13  10     866     325
  14 -13  11     118     318
  14 -13  12     220     341
 -15  14  11      15     295
 -15  14  10      60     303
 -15  14   9     692     328
  15 -14  -9     449     303
 -15  14   8       2     287
  15 -14  -8    1103     321
 -15  14   7    1029     336
  15 -14  -7     671     312
 -15  14   6      25     276
  15 -14  -6     431     108
 -15  14   5     294     225
 -15  14   5     880     315
  15 -14  -5     350     310
 -15  14   4     493     234
 -15  14   4     464     319
  15 -14  -4      18     299
 -15  14   3     343     279
 -15  14   3       2     199
  15 -14  -3     218     323
 -15  14   2       4     268
 -15  14   2      73     216
  15 -14  -2       4     304
 -15  14   1    2657     387
 -15  14   1    2904     355
  15 -14  -1    2617     382
 -15  14   0    4132     405
  15 -14   0    4326     471
 -15  14  -1    2848     390
  15 -14   1    2552     406
 -15  14  -2       3     254
  15 -14   2     279     307
 -15  14  -3     121     221
  15 -14   3     604     306
 -15  14  -4     690     290
  15 -14   4      68     248
  15 -14   5     512     308
  15 -14   6     167     255
  15 -14   7     757     273
  15 -14   8     383     317
  15 -14   9     676     298
  15 -14  10      62     260
  15 -14  11     303     315
 -16  15  10      48     311
 -16  15   9       2     315
 -16  15   8     192     320
  16 -15  -8     722     328
 -16  15   7     528     328
  16 -15  -7     443     271
 -16  15   6       8     284
  16 -15  -6       8     211
 -16  15   5       2     291
  16 -15  -5       2     300
 -16  15   4     260     227
 -16  15   4       3     307
  16 -15  -4       3     317
 -16  15   3       2     274
 -16  15   3     171     228
  16 -15  -3     434     330
 -16  15   2     222     307
 -16  15   2      87     228
  16 -15  -2       5     308
 -16  15   1     731     301
 -16  15   1    1143     283
  16 -15  -1     919     353
 -16  15   0       2     189
 -16  15   0     686     267
  16 -15   0     652     334
 -16  15  -1    1287     306
  16 -15   1     935     303
 -16  15  -2       4     250
  16 -15   2      13     297
 -16  15  -3     487     286
  16 -15   3     311     297
  16 -15   4       3     288
  16 -15   5       2     275
  16 -15   6     309     312
  16 -15   7     104     271
  16 -15   8     529     349
  16 -15   9       2     247
  16 -15  10      10     321
 -17  16   9      11     310
 -17  16   8     289     341
 -17  16   7      21     319
  17 -16  -7     265     204
 -17  16   6     708     367
  17 -16  -6     606     316
 -17  16   5      75     316
  17 -16  -5     547     346
 -17  16   4     656     263
 -17  16   4     527     320
  17 -16  -4     515     362
 -17  16   3      50     324
 -17  16   3     550     259
  17 -16  -3     224     343
 -17  16   2     230     263
 -17  16   2      22     320
  17 -16  -2      22     314
 -17  16   1     247     245
 -17  16   1     188     291
  17 -16  -1     203     291
 -17  16   0     292     278
  17 -16   0      11     326
 -17  16  -1     346     286
  17 -16   1      13     315
 -17  16  -2      88     268
  17 -16   2      54     309
 -17  16  -3      30     273
  17 -16   3     526     320
  17 -16   4     923     313
  17 -16   5     136     270
  17 -16   6     438     339
  17 -16   7     399     346
  17 -16   8      97     325
  17 -16   9      11     339
 -18  17   8      13     334
 -18  17   7      21     326
  18 -17  -7     120     119
 -18  17   6     148     325
  18 -17  -6     375     328
 -18  17   5      20     284
  18 -17  -5     593     348
 -18  17   4     213     318
  18 -17  -4       2     332
 -18  17   3     251     333
 -18  17   3     601     281
  18 -17  -3     314     369
 -18  17   2    1086     313
 -18  17   2    1309     365
  18 -17  -2    1658     408
 -18  17   1      48     323
 -18  17   1      68     273
  18 -17  -1      46     363
 -18  17   0       1     239
  18 -17   0       1     327
 -18  17  -1     232     276
  18 -17   1      99     336
 -18  17  -2     923     305
  18 -17   2     308     301
  18 -17   3     149     333
  18 -17   4      22     275
  18 -17   5      21     322
  18 -17   6       2     265
  18 -17   7      19     281
  18 -17   8      12     265
 -19  18   6     220     342
  19 -18  -6     179     364
 -19  18   5      67     332
  19 -18  -5      10     363
 -19  18   4       3     339
  19 -18  -4       3     355
 -19  18   3     626     375
 -19  18   3     412     272
  19 -18  -3     545     381
 -19  18   2     103     258
 -19  18   2      38     345
  19 -18  -2     103     358
 -19  18   1     137     330
 -19  18   1     145     262
  19 -18  -1      64     365
 -19  18   0     458     285
  19 -18   0     404     374
 -19  18  -1     290     282
  19 -18   1       1     358
  19 -18   2     100     355
  19 -18   3      22     347
  19 -18   4     423     359
  19 -18   5     255     348
  19 -18   6       7     329
 -20  19   4     369     363
  20 -19  -4     286     366
 -20  19   3     507     364
  20 -19  -3      12     352
 -20  19   2      26     249
 -20  19   2      26     339
  20 -19  -2      26     352
 -20  19   1       4     286
  20 -19  -1       1     358
  20 -19   0       1     362
  20 -19   1       0     346
  20 -19   2       5     374
  20 -19   3     224     386
  20 -19   4       1     351
  19 -21   2       6     374
  19 -21   1       3     391
  19 -21   0      25     384
  19 -21  -1       4     392
  19 -21  -2     256     406
  18 -20   5       8     300
  18 -20   4       3     362
  18 -20   3      32     370
  18 -20   2      48     376
  18 -20   1     292     389
  18 -20   0      14     303
  18 -20  -1      12     346
  18 -20  -2     116     396
  18 -20  -3      30     379
 -18  20   3      30     329
  18 -20  -4     428     399
 -18  20   4       3     339
  18 -20  -5     162     374
 -18  20   5       8     338
  17 -19   7       8     332
  17 -19   6     165     306
  17 -19   5      10     323
  17 -19   4       1     284
  17 -19   3      18     364
  17 -19   2     102     377
  17 -19   1      11     355
  17 -19   0     137     376
  17 -19  -1     630     347
  17 -19  -2     485     341
 -17  19   2     409     357
  17 -19  -3     336     372
 -17  19   3      19     320
  17 -19  -4       1     350
 -17  19   4       1     357
  17 -19  -5      10     336
 -17  19   5      10     338
  17 -19  -6     112     356
 -17  19   6       1     334
  17 -19  -7     597     380
 -17  19   7       7     341
  16 -18   8       4     289
  16 -18   7     120     339
  16 -18   6      26     278
  16 -18   5      97     326
  16 -18   4       3     333
  16 -18   3     759     333
  16 -18   2      69     353
  16 -18   1      21     283
  16 -18   0      16     344
  16 -18  -1       0     297
  16 -18  -2      45     360
 -16  18   2     233     367
  16 -18  -3     475     329
 -16  18   3    1102     368
  16 -18  -4     151     342
 -16  18   4     445     339
  16 -18  -5     164     352
 -16  18   5      12     317
  16 -18  -6      26     334
 -16  18   6      26     321
  16 -18  -7       3     310
 -16  18   7       3     303
  16 -18  -8     132     317
 -16  18   8     580     345
  15 -17  10      45     352
  15 -17   9     257     304
  15 -17   8      57     282
  15 -17   7     111     322
  15 -17   6     851     361
  15 -17   5      67     268
  15 -17   4     388     278
  15 -17   3     814     307
  15 -17   2      20     313
  15 -17   1       6     341
  15 -17   0     378     298
  15 -17  -1       8     334
  15 -17  -2     199     295
 -15  17   2      63     298
  15 -17  -3     622     318
 -15  17   3     590     336
  15 -17  -4      80     339
 -15  17   4     448     335
  15 -17  -5      13     317
 -15  17   5      13     299
  15 -17  -6     203     333
 -15  17   6     106     324
  15 -17  -7       9     310
 -15  17   7     433     335
  15 -17  -8      88     310
 -15  17   8     115     337
  15 -17  -9     123     288
 -15  17   9     105     345
  15 -17 -10      45     287
 -15  17  10      73     361
  14 -16  11       4     346
  14 -16  10      69     315
  14 -16   9      40     330
  14 -16   8     195     328
  14 -16   7     220     275
  14 -16   6     193     300
  14 -16   5      63     253
  14 -16   4     273     312
  14 -16   3       4     302
  14 -16   2     217     326
  14 -16   1     429     341
  14 -16   0    1494     340
  14 -16  -1     429     356
 -14  16   1      84     300
  14 -16  -2      15     308
 -14  16   2      15     289
  14 -16  -3     465     345
 -14  16   3       5     319
  14 -16  -4      32     314
 -14  16   4      22     299
  14 -16  -5       4     322
 -14  16   5     398     302
  14 -16  -6      12     310
 -14  16   6     322     316
  14 -16  -7      91     314
 -14  16   7     606     335
  14 -16  -8     299     305
 -14  16   8     253     325
  14 -16  -9     204     301
 -14  16   9       4     320
  14 -16 -10      98     280
 -14  16  10      57     328
  14 -16 -11     661     313
 -14  16  11       2     327
  13 -15  11     176     286
  13 -15  10      73     270
  13 -15   9     393     338
  13 -15   8     316     316
  13 -15   7     504     280
  13 -15   6     708     271
  13 -15   5      19     249
  13 -15   4     801     325
  13 -15   3       4     263
  13 -15   2     800     343
  13 -15   1    2103     367
  13 -15   0     316     344
  13 -15  -1    1937     363
 -13  15   1    1723     355
  13 -15  -2     685     358
 -13  15   2     702     345
  13 -15  -3     239     296
 -13  15   3     259     308
  13 -15  -4     487     346
 -13  15   4     477     320
  13 -15  -5     295     271
 -13  15   5     325     294
  13 -15  -6     884     337
 -13  15   6    1206     345
  13 -15  -7     455     312
 -13  15   7     425     327
  13 -15  -8      10     283
 -13  15   8     109     311
  13 -15  -9      43     287
 -13  15   9      76     316
  13 -15 -10     150     272
 -13  15  10       4     304
  13 -15 -11     305     267
 -13  15  11       8     313
  12 -14  12      16     313
  12 -14  11     137     317
  12 -14  10      70     305
  12 -14   9     214     247
  12 -14   8      47     247
  12 -14   7    1189     347
  12 -14   6     165     248
  12 -14   5     473     264
  12 -14   4     479     272
  12 -14   3     174     299
  12 -14   2     200     254
  12 -14   1    2187     397
  12 -14   0       2     264
  12 -14  -1    1801     395
 -12  14   1    1510     357
  12 -14  -2     118     275
 -12  14   2     103     295
  12 -14  -3      82     333
 -12  14   3     131     201
 -12  14   3      19     292
  12 -14  -4     141     281
 -12  14   4     323     199
 -12  14   4      16     282
  12 -14  -5     557     336
 -12  14   5     648     289
 -12  14   5     506     193
  12 -14  -6     238     306
 -12  14   6     218     303
  12 -14  -7    1402     351
 -12  14   7    1468     355
  12 -14  -8     184     278
 -12  14   8      69     285
  12 -14  -9     247     286
 -12  14   9       5     292
  12 -14 -10     237     274
 -12  14  10      75     304
  12 -14 -11     701     292
 -12  14  11     145     318
  12 -14 -12     450     113
 -12  14  12     137     329
  11 -13  13      71     288
  11 -13  12    1068     373
  11 -13  11     322     282
  11 -13  10    1583     364
  11 -13   9      36     233
  11 -13   8     542     253
  11 -13   7     184     245
  11 -13   6     408     291
  11 -13   5     399     250
  11 -13   4     909     269
  11 -13   3     238     247
  11 -13   2    4514     415
  11 -13   1     952     275
  11 -13   0    8791     566
  11 -13  -1     432     316
 -11  13   1     996     293
  11 -13  -2    5099     485
 -11  13   2    4803     367
 -11  13   2    4502     453
  11 -13  -3     650     330
 -11  13   3     527     200
 -11  13   3     476     277
  11 -13  -4     448     279
 -11  13   4     695     299
 -11  13   4    1052     204
  11 -13  -5      35     253
 -11  13   5      35     276
 -11  13   5     213     173
  11 -13  -6      46     288
 -11  13   6     292     256
  11 -13  -7      13     265
 -11  13   7     405     258
  11 -13  -8     636     283
 -11  13   8     715     266
  11 -13  -9     183     263
 -11  13   9      36     279
  11 -13 -10    1335     340
 -11  13  10     818     332
  11 -13 -11       7     273
 -11  13  11       6     291
  11 -13 -12     749     190
 -11  13  12     609     343
 -11  13  13      29     313
  10 -12  13     615     340
  10 -12  12     235     259
  10 -12  11     977     321
  10 -12  10     453     269
  10 -12   9     501     301
  10 -12   8     210     282
  10 -12   7      64     226
  10 -12   6     141     268
  10 -12   5    2620     343
  10 -12   4     983     262
  10 -12   3    5137     428
  10 -12   2     963     237
  10 -12   1     316     257
  10 -12   0     706     253
 -10  12   0     117     235
  10 -12  -1     253     270
 -10  12   1     166     164
 -10  12   1     164     238
  10 -12  -2     679     289
 -10  12   2     762     184
 -10  12   2     553     226
  10 -12  -3    4756     419
 -10  12   3    4675     398
 -10  12   3    3864     295
  10 -12  -4     559     304
 -10  12   4     791     188
 -10  12   4     760     289
  10 -12  -5    1713     356
 -10  12   5    2382     229
 -10  12   5    2018     351
  10 -12  -6     246     292
 -10  12   6     395     289
  10 -12  -7       4     273
 -10  12   7     332     291
  10 -12  -8      20     263
 -10  12   8     177     285
  10 -12  -9     656     277
 -10  12   9     716     306
  10 -12 -10     547     292
 -10  12  10     566     300
  10 -12 -11     342     257
 -10  12  11     113     298
  10 -12 -12     970     230
 -10  12  12       6     258
 -10  12  13     388     326
   9 -11  14     709     327
   9 -11  13     128     282
   9 -11  12      26     265
   9 -11  11     224     271
   9 -11  10      76     218
   9 -11   9    2288     334
   9 -11   8    2086     316
   9 -11   7     543     244
   9 -11   6    6419     433
   9 -11   5      17     234
   9 -11   4    3467     359
   9 -11   3   10206     549
   9 -11   2    2056     277
   9 -11   1    1332     265
   9 -11   0    1749     291
  -9  11   0    1582     258
   9 -11  -1    1393     283
  -9  11   1    1607     292
  -9  11   1    1232     222
   9 -11  -2    1913     302
  -9  11   2    1928     285
  -9  11   2    1704     211
   9 -11  -3    9052     537
  -9  11   3    8327     523
  -9  11   3    9033     425
   9 -11  -4    4565     406
  -9  11   4    3653     377
  -9  11   4    3482     264
   9 -11  -5     239     262
  -9  11   5     192     138
  -9  11   5     617     258
   9 -11  -6    6227     472
  -9  11   6    6419     316
  -9  11   6    6624     490
   9 -11  -7     456     258
  -9  11   7      12     258
   9 -11  -8    1986     331
  -9  11   8    1710     328
   9 -11  -9    1975     331
  -9  11   9    1815     315
   9 -11 -10     251     245
  -9  11  10      24     268
   9 -11 -11     271     258
  -9  11  11     157     288
   9 -11 -12     373     239
  -9  11  12      25     283
   9 -11 -13     428     109
  -9  11  13      19     297
  -9  11  14     162     332
   8 -10  14     168     249
   8 -10  13      23     268
   8 -10  12     162     264
   8 -10  11     595     254
   8 -10  10     866     291
   8 -10   9     496     266
   8 -10   8     583     274
   8 -10   7    2411     334
   8 -10   6    4711     425
   8 -10   5     689     256
   8 -10   4    6764     423
   8 -10   3    4902     387
   8 -10   2    4286     366
   8 -10   1    1906     259
   8 -10   0    4200     348
  -8  10   0    3661     298
   8 -10  -1    2102     278
  -8  10   1    2306     278
  -8  10   1    2139     224
   8 -10  -2    4209     383
  -8  10   2    3759     268
  -8  10   2    3838     359
   8 -10  -3    4169     363
  -8  10   3    4331     281
  -8  10   3    4493     395
   8 -10  -4    6056     445
  -8  10   4    6398     332
  -8  10   4    6772     455
   8 -10  -5     480     262
  -8  10   5     842     262
  -8  10   5     842     152
   8 -10  -6    4050     384
  -8  10   6    3894     234
  -8  10   6    3889     387
   8 -10  -7    1698     297
  -8  10   7    1739     306
   8 -10  -8     700     262
  -8  10   8     628     283
   8 -10  -9     888     271
  -8  10   9     295     278
   8 -10 -10    1269     285
  -8  10  10     953     300
   8 -10 -11    1160     302
  -8  10  11    1015     319
   8 -10 -12     277     256
  -8  10  12     319     288
   8 -10 -13     356     209
  -8  10  13      12     277
  -8  10  14     130     302
   7  -9  15     566     311
   7  -9  14      78     282
   7  -9  13     413     284
   7  -9  12     480     248
   7  -9  11     262     266
   7  -9  10     135     215
   7  -9   9     127     208
   7  -9   8    3967     360
   7  -9   7    3654     331
   7  -9   6    3752     334
   7  -9   5    2814     269
   7  -9   4   12265     549
   7  -9   3    6253     349
   7  -9   2     464     168
   7  -9   1    8653     470
   7  -9   0    4934     338
  -7   9   0    4495     309
   7  -9  -1    8102     482
  -7   9   1    9024     483
  -7   9   1    8592     418
   7  -9  -2      58     205
  -7   9   2     168     117
  -7   9   2     305     186
   7  -9  -3    6574     394
  -7   9   3    6487     396
  -7   9   3    5972     286
   7  -9  -4   11939     551
  -7   9   4   12344     580
  -7   9   4   12331     478
   7  -9  -5    2890     273
  -7   9   5    3033     270
  -7   9   5    2746     172
   7  -9  -6    2626     312
  -7   9   6    3442     186
  -7   9   6    3514     313
   7  -9  -7    3406     343
  -7   9   7    2939     158
  -7   9   7    2766     299
   7  -9  -8    3696     386
  -7   9   8    3701     387
   7  -9  -9     438     251
  -7   9   9     478     265
   7  -9 -10     118     238
  -7   9  10     129     219
   7  -9 -11     150     237
  -7   9  11      48     264
   7  -9 -12     688     266
  -7   9  12     233     279
   7  -9 -13    1210     304
  -7   9  13     138     288
   7  -9 -14     130     208
  -7   9  14      35     298
  -7   9  15       2     302
   6  -8  15      80     264
   6  -8  14     195     260
   6  -8  13     565     279
   6  -8  12     649     268
   6  -8  11     397     215
   6  -8  10     215     245
   6  -8   9    1733     275
   6  -8   8     175     195
   6  -8   7    4187     372
   6  -8   6    6070     383
   6  -8   5    1170     195
   6  -8   4    1171     194
   6  -8   3    1118     196
   6  -8   2    1074     194
   6  -8   1    5920     291
   6  -8   0    4032     313
  -6   8   0    4414     321
   6  -8  -1    6436     314
  -6   8   1    6410     329
  -6   8   1    6315     259
   6  -8  -2    1347     235
  -6   8   2    1016     212
  -6   8   2    1161     149
   6  -8  -3    1161     224
  -6   8   3    1032     134
  -6   8   3     878     189
   6  -8  -4    1224     198
  -6   8   4     951     184
  -6   8   4    1294     129
   6  -8  -5    1115     213
  -6   8   5    1170     212
  -6   8   5    1582     116
   6  -8  -6    6394     389
  -6   8   6    5695     380
  -6   8   6    6205     252
   6  -8  -7    3859     340
  -6   8   7    3259     343
   6  -8  -8      21     222
  -6   8   8      23     216
   6  -8  -9    2139     299
  -6   8   9    1858     317
   6  -8 -10       5     227
  -6   8  10      25     253
   6  -8 -11     101     229
  -6   8  11     447     251
   6  -8 -12     184     229
  -6   8  12     449     274
   6  -8 -13       4     222
  -6   8  13     595     296
   6  -8 -14     130     237
  -6   8  14      58     282
   6  -8 -15       4     199
  -6   8  15      34     296
   5  -7  15     160     257
  -5   7 -15      13     268
  -5   7 -14      93     276
  -5   7 -13       4     257
  -5   7 -12     555     232
  -5   7 -11      19     247
  -5   7 -10    1137     255
   5  -7   9    1851     283
  -5   7  -9    1256     272
   5  -7   8     887     235
   5  -7   7     396     167
   5  -7   6    3088     267
   5  -7   5    1759     208
   5  -7   4    2056     217
   5  -7   3    3653     223
   5  -7   2    7640     426
   5  -7   1    3622     275
   5  -7   0   35205    1356
  -5   7   0   35706    1374
   5  -7  -1    3360     315
  -5   7   1    3470     245
  -5   7   1    3254     303
   5  -7  -2    7037     458
  -5   7   2    8496     468
  -5   7   2    8510     398
   5  -7  -3    4209     275
  -5   7   3    3891     265
  -5   7   3    3844     180
   5  -7  -4    2139     238
  -5   7   4    1735     205
  -5   7   4    1899     131
   5  -7  -5    1891     213
  -5   7   5    1385     183
  -5   7   5    1689     102
   5  -7  -6    3348     293
  -5   7   6    2707     273
   5  -7  -7     443     193
  -5   7   7     410     175
   5  -7  -8    1107     233
  -5   7   8    1188     249
   5  -7  -9    1503     274
  -5   7   9    1275     262
   5  -7 -10     893     258
  -5   7  10    1006     273
   5  -7 -11     309     227
  -5   7  11      40     237
   5  -7 -12    1157     266
  -5   7  12     888     276
   5  -7 -13       4     223
  -5   7  13       4     251
   5  -7 -14       6     222
  -5   7  14       6     258
   5  -7 -15      89     249
  -5   7  15      14     280
  -4   6 -15      78     276
  -4   6 -14     597     291
  -4   6 -13     150     259
  -4   6 -12      22     225
  -4   6 -11     660     240
  -4   6 -10    1523     287
  -4   6  -9    4369     364
  -4   6  -8      75     165
  -4   6  -7    1513     219
   4  -6   6   14871     593
   4  -6   5     845     157
   4  -6   4     949     146
   4  -6   3   26181     882
   4  -6   2   16493     654
   4  -6   1    2655     217
   4  -6   0    1960     203
  -4   6   0    1940     197
   4  -6  -1    2524     237
  -4   6   1    2952     253
   4  -6  -2   19511     730
  -4   6   2   17012     718
  -4   6   2   17747     671
   4  -6  -3   26222     894
  -4   6   3   25394     906
  -4   6   3   26662     842
   4  -6  -4    1430     184
  -4   6   4     901     175
  -4   6   4    1224      86
   4  -6  -5     938     172
  -4   6   5     686     179
   4  -6  -6   14235     576
  -4   6   6   14025     590
   4  -6  -7    1630     213
  -4   6   7    1261     214
   4  -6  -8     207     167
  -4   6   8      11     191
   4  -6  -9    3755     330
  -4   6   9    3490     324
   4  -6 -10    1262     260
  -4   6  10    1482     288
   4  -6 -11     503     248
  -4   6  11     844     287
   4  -6 -12     264     250
  -4   6  12      65     245
   4  -6 -13     183     240
  -4   6  13      73     257
   4  -6 -14      10     233
  -4   6  14      87     267
   4  -6 -15     451     253
  -4   6  15     142     280
  -3   5 -16       1     255
   3  -5  15      92     241
  -3   5 -15      68     275
  -3   5 -14     628     288
  -3   5 -13     146     254
  -3   5 -12      15     235
  -3   5 -11     172     243
  -3   5 -10    2395     311
  -3   5  -9    4682     359
  -3   5  -8    2747     266
  -3   5  -7    3177     237
  -3   5  -6     378     165
   3  -5   5    1568     206
   3  -5   4   14688     584
   3  -5   3   19006     712
   3  -5   2   25685    1047
   3  -5   1    7480     221
   3  -5   0     978     278
  -3   5   0     943     289
   3  -5  -1    8395     226
  -3   5   1    7090     233
   3  -5  -2   27406    1083
  -3   5   2   25916    1094
   3  -5  -3   18721     725
  -3   5   3   19229     737
   3  -5  -4   13260     557
  -3   5   4   14434     580
   3  -5  -5    1437     213
  -3   5   5    1736     219
   3  -5  -6     362     168
  -3   5   6     571     175
   3  -5  -7    3618     275
  -3   5   7    3453     255
  -3   5   7    3214     145
   3  -5  -8    2656     284
  -3   5   8    2780     272
  -3   5   8    2902     174
   3  -5  -9    4607     349
  -3   5   9    4197     342
  -3   5   9    3919     212
   3  -5 -10    2235     291
  -3   5  10    2024     300
   3  -5 -11       1     221
  -3   5  11     139     236
   3  -5 -12      70     228
  -3   5  12     318     241
   3  -5 -13      61     232
  -3   5  13     306     262
   3  -5 -14     547     272
  -3   5  14      19     274
   3  -5 -15      84     238
  -3   5  15     110     289
   3  -5 -16     586     304
  -3   5  16       8     283
   2  -4  16       1     248
  -2   4 -16      18     277
   2  -4  15       2     223
  -2   4 -15      25     289
  -2   4 -14     161     254
  -2   4 -13     102     232
  -2   4 -12    2065     317
  -2   4 -11      83     229
  -2   4 -10   13538     618
  -2   4  -9     879     224
  -2   4  -8     514     183
  -2   4  -7     614     157
  -2   4  -6       7     137
  -2   4  -5    1829     132
   2  -4   4    1398     128
   2  -4   3   13148     702
   2  -4   2   50429    2046
   2  -4   1    1992      88
   2  -4   0     101     242
   2  -4  -1    2253     103
  -2   4   1    1963      89
   2  -4  -2   47777    1959
  -2   4   2   47223    1994
   2  -4  -3   11894     658
  -2   4   3   11990     679
   2  -4  -4    1410     150
  -2   4   4    1307     120
   2  -4  -5    1977     158
  -2   4   5    2381     164
   2  -4  -6      28     148
  -2   4   6       5      66
  -2   4   6       5     140
   2  -4  -7     565     160
  -2   4   7     256      77
  -2   4   7     239     147
   2  -4  -8     680     173
  -2   4   8     507     109
  -2   4   8     531     183
   2  -4  -9     556     217
  -2   4   9    1086     235
  -2   4   9     825     141
   2  -4 -10   13629     629
  -2   4  10   13556     650
  -2   4  10   13525     534
   2  -4 -11      14     223
  -2   4  11     264     235
   2  -4 -12    2181     323
  -2   4  12    2229     343
   2  -4 -13     321     253
  -2   4  13       1     233
   2  -4 -14     178     244
  -2   4  14     114     255
   2  -4 -15       0     240
  -2   4  15      26     284
   2  -4 -16     400     255
  -2   4  16       1     270
   1  -3  16      21     267
  -1   3 -16       2     250
   1  -3  15     224     267
  -1   3 -15     168     246
   1  -3  14      40     237
  -1   3 -14      57     261
  -1   3 -13    1357     285
  -1   3 -12     355     232
  -1   3 -11     330     225
  -1   3 -10    2859     319
  -1   3  -9    1296     228
  -1   3  -8     977     188
  -1   3  -7    9628     419
  -1   3  -6     195     128
  -1   3  -5    2569     174
  -1   3  -4    3671     224
   1  -3   3    9546     427
   1  -3   2   68132    1774
   1  -3   1    9410     497
   1  -3   0    5811     376
   1  -3  -1    9074     482
  -1   3   1    9485     491
   1  -3  -2   60627    1651
  -1   3   2   66152    1685
   1  -3  -3   10444     468
  -1   3   3    9846     470
   1  -3  -4    3549     245
  -1   3   4    3831     249
   1  -3  -5    3060     206
  -1   3   5    2400     181
   1  -3  -6     298     128
  -1   3   6     252     132
   1  -3  -7    9000     404
  -1   3   7    9072     424
   1  -3  -8    1002     205
  -1   3   8    1169     205
   1  -3  -9    1212     238
  -1   3   9    1328     236
   1  -3 -10    2601     320
  -1   3  10    2705     320
  -1   3  10    2957     239
   1  -3 -11     517     248
  -1   3  11     341     224
   1  -3 -12     460     234
  -1   3  12     326     234
   1  -3 -13    1646     299
  -1   3  13    1421     292
   1  -3 -14     253     279
  -1   3  14      48     271
   1  -3 -15     459     265
  -1   3  15      81     268
   1  -3 -16     481     289
  -1   3  16       5     264
   0  -2  16     607     279
   0   2 -16       4     109
   0  -2  15     301     270
   0   2 -15      20      68
   0  -2  14    1397     286
   0  -2  14    1506     297
   0  -2  13    1142     284
   0  -2  13    1437     277
   0   2 -12       0     117
   0   2 -11      96     130
   0   2 -10     521     128
   0   2  -9     320      84
   0   2  -8     125      43
   0   2  -7      45      26
   0   2  -3   17596     390
   0  -2   2   74564    2368
   0  -2   1    1881     377
   0  -2   0   39836     277
   0  -2  -1    1938     387
   0  -2  -1    1962     378
   0   2   1    2007     396
   0  -2  -2   75106    2384
   0  -2  -2   71644    2414
   0   2   2   73704    2423
   0  -2  -3   25767     602
   0   2   3   25051     600
   0  -2  -4   31301    1150
   0   2   4   30451    1160
   0  -2  -5    3228     247
   0   2   5    3289     238
   0  -2  -6   47942    1551
   0   2   6   47082    1569
   0  -2  -7    7041     328
   0   2   7    6503     311
   0  -2  -8    1897     205
   0   2   8    2030     214
   0  -2  -9    1526     240
   0   2   9    1741     219
   0  -2 -10    1601     269
   0   2  10    1410     252
   0  -2 -11       1     212
   0   2  11     191     216
   0  -2 -12       0     227
   0   2  12      18     217
   0  -2 -13    1145     288
   0   2  13     942     279
   0  -2 -14    1004     272
   0   2  14    1196     288
   0  -2 -15     218     256
   0   2  15     154     260
   0  -2 -16     287     278
   0   2  16       4     267
  -1  -1  16     362     299
  -1  -1  15       2     216
   1   1 -15      55     233
  -1  -1  14     942     279
   1   1 -14     537     254
  -1  -1  13     142     223
  -1  -1  13      73     217
   1   1 -13     319     206
  -1  -1  12    1247     272
  -1  -1  12    1838     283
   1   1 -12    1089     235
  -1  -1  11     427     220
   1   1 -11     366     185
  -1  -1  10       1     186
   1   1 -10     118     168
   1   1  -9     310     165
   1   1  -8      59     148
   1   1  -7    2763     217
   1   1  -6   51840    1833
   1   1  -5    1342     142
   1   1  -4   23365     699
   1   1  -3    6743     230
  -1  -1   2     207     107
   1   1  -2     196      85
  -1  -1   1   27341     767
  -1  -1   1   26439     729
  -1  -1   0   31459    1742
  -1  -1   0   31908    1690
  -1  -1  -1   26739     727
   1   1   1   26359     733
  -1  -1  -2     169      95
  -1  -1  -2     162     112
   1   1   2     184     102
  -1  -1  -3    6508     230
  -1  -1  -3    6402     248
   1   1   3    6517     239
  -1  -1  -4   23216     730
   1   1   4   23832     725
  -1  -1  -5    1207     172
   1   1   5    1222     142
  -1  -1  -6   49675    1838
   1   1   6   52892    1860
  -1  -1  -7    3162     262
   1   1   7    2781     231
  -1  -1  -8      16     141
   1   1   8      92     136
  -1  -1  -9     237     191
   1   1   9      32     152
  -1  -1 -10       1     167
   1   1  10     201     185
  -1  -1 -11     558     247
   1   1  11     357     218
  -1  -1 -12    1475     297
   1   1  12    1291     269
  -1  -1 -13       2     222
   1   1  13       2     228
  -1  -1 -14    1067     300
   1   1  14     522     275
  -1  -1 -15      53     260
   1   1  15     399     280
  -1  -1 -16       4     290
   1   1  16     287     296
  -2   0  16     480     291
  -2   0  15      20     256
   2   0 -15      20     237
  -2   0  14     833     267
   2   0 -14    1186     270
  -2   0  13    1650     268
  -2   0  13    1238     288
   2   0 -13    1170     265
  -2   0  12      68     221
  -2   0  12     232     228
   2   0 -12       1     207
  -2   0  11     161     220
  -2   0  11       1     189
   2   0 -11     113     206
  -2   0  10    1345     244
  -2   0  10    1717     238
   2   0 -10    1467     234
  -2   0   9    2117     235
   2   0  -9    2094     224
  -2   0   8    2111     208
   2   0  -8    2065     190
  -2   0   7    6696     305
   2   0  -7    6652     289
  -2   0   6   46208    1524
   2   0  -6   45834    1471
  -2   0   5    3142     231
   2   0  -5    3118     203
  -2   0   4   32093    1200
   2   0  -4   31512    1148
  -2   0   3   25678     608
   2   0  -3   25374     568
  -2   0   2   75044    2472
   2   0  -2   75116    2380
  -2   0   1    2017     395
  -2   0   0   40057     288
  -2   0   0   39960     266
  -2   0  -1    1972     411
  -2   0  -1    2163     398
  -2   0  -2   74200    2360
   2   0   2   73463    2378
  -2   0  -3   25334     605
   2   0   3   24966     582
  -2   0  -4   30893    1174
  -2   0  -4   30751    1160
   2   0   4   31750    1153
  -2   0  -5    3521     261
   2   0   5    3425     230
  -2   0  -6   45607    1530
   2   0   6   47976    1534
  -2   0  -7    6437     322
   2   0   7    6648     297
  -2   0  -8    2025     214
   2   0   8    2258     206
  -2   0  -9    1935     258
   2   0   9    2070     217
  -2   0 -10    1217     236
   2   0  10    1418     235
  -2   0 -11      36     232
   2   0  11       0     197
  -2   0 -12       0     195
   2   0  12     161     222
  -2   0 -13    1381     292
   2   0  13    1672     287
  -2   0 -14    1465     312
   2   0  14    1258     291
  -2   0 -15     769     281
   2   0  15     616     264
  -2   0 -16       4     275
  -3   1  16     292     288
  -3   1  15       3     254
  -3   1  14      26     240
   3  -1 -14      66     221
  -3   1  13    1467     297
   3  -1 -13    1220     258
  -3   1  12      10     218
  -3   1  12      10     204
   3  -1 -12     180     219
  -3   1  11     464     211
  -3   1  11       6     217
   3  -1 -11      94     199
  -3   1  10    2430     278
  -3   1  10    2680     324
   3  -1 -10    2937     289
  -3   1   9    1063     200
  -3   1   9    1047     231
   3  -1  -9    1521     212
  -3   1   8    1161     176
  -3   1   8     547     183
   3  -1  -8    1042     170
  -3   1   7    9725     414
   3  -1  -7    9665     403
  -3   1   6     279     123
   3  -1  -6     289     110
  -3   1   5    2821     176
   3  -1  -5    2823     154
  -3   1   4    3732     220
   3  -1  -4    3390     188
  -3   1   3   10704     465
   3  -1  -3    9750     425
  -3   1   2   63164    1728
   3  -1  -2   66905    1659
  -3   1   1    9046     491
   3  -1  -1   10010     459
  -3   1   0    6599     374
  -3   1   0    6497     402
  -3   1  -1    9392     500
  -3   1  -1    8975     519
  -3   1  -2   67919    1749
  -3   1  -2   66843    1799
  -3   1  -3    9513     446
  -3   1  -3    9733     433
  -3   1  -4    3517     222
  -3   1  -4    3326     222
  -3   1  -5    2306     194
  -3   1  -6     221     128
   3  -1   6     264      99
  -3   1  -7   10519     460
   3  -1   7    9576     411
  -3   1  -8     906     209
   3  -1   8     772     163
  -3   1  -9    1288     228
   3  -1   9    1406     211
  -3   1 -10    2896     341
   3  -1  10    2519     277
  -3   1 -11     297     244
   3  -1  11     268     206
  -3   1 -12       9     234
   3  -1  12       9     203
  -3   1 -13    1286     299
   3  -1  13    1581     278
  -3   1 -14     135     268
   3  -1  14      80     230
  -3   1 -15     348     242
  -3   1 -16     304     302
  -4   2  16       1     278
  -4   2  15      43     277
  -4   2  14     317     262
   4  -2 -14     688     239
  -4   2  13       1     234
   4  -2 -13     252     212
  -4   2  12    2246     292
  -4   2  12    2443     350
   4  -2 -12    2198     297
  -4   2  11       3     186
  -4   2  11     104     234
   4  -2 -11       3     196
  -4   2  10   14351     680
  -4   2  10   14253     609
   4  -2 -10   13602     600
  -4   2   9     741     189
  -4   2   9     484     220
   4  -2  -9     980     199
  -4   2   8     506     158
  -4   2   8     541     172
   4  -2  -8     485     153
  -4   2   7     379     132
  -4   2   7     179     150
   4  -2  -7     367     124
  -4   2   6      60     126
  -4   2   6      30     121
   4  -2  -6      14     106
  -4   2   5    2118     131
  -4   2   5    1846     140
   4  -2  -5    2193     126
  -4   2   4    1326     136
  -4   2   3   12556     686
  -4   2   3   12296     672
   4  -2  -3   12051     636
  -4   2   2   49758    2064
  -4   2   2   49260    2075
   4  -2  -2   50393    2009
  -4   2   1    2219      60
  -4   2   1    1994      92
   4  -2  -1    1187      69
  -4   2   0     134     240
  -4   2   0     127     206
  -4   2  -1    2465      51
  -4   2  -1    2248      98
  -4   2  -1    1730      79
  -4   2  -2   50912    2018
  -4   2  -2   48500    2078
  -4   2  -3   12433     672
  -4   2  -3   12186     695
  -4   2  -4    1123     137
  -4   2  -4    1151     142
  -4   2  -5    2160     156
  -4   2  -5    1808     144
  -4   2  -6      21     137
  -4   2  -7     318     147
  -4   2  -8     445     176
  -4   2  -9     804     221
   4  -2   9    1093     186
  -4   2 -10   14588     657
   4  -2  10   14605     636
  -4   2 -11       3     197
   4  -2  11     111     191
  -4   2 -12    1957     338
   4  -2  12    2020     292
  -4   2 -13       1     243
   4  -2  13       1     206
  -4   2 -14     649     290
   4  -2  14     253     231
  -4   2 -15     134     294
  -4   2 -16     342     297
  -5   3  16       1     285
  -5   3  15     111     261
  -5   3  14     513     280
  -5   3  13     221     252
   5  -3 -13     166     192
  -5   3  12     134     239
   5  -3 -12     424     212
  -5   3  11     114     243
  -5   3  11      35     199
   5  -3 -11     441     206
  -5   3  10    1947     277
  -5   3  10    2339     249
   5  -3 -10    2428     260
  -5   3   9    3817     328
  -5   3   9    4386     287
   5  -3  -9    4128     286
  -5   3   8    2840     245
  -5   3   8    2680     296
   5  -3  -8    2897     242
  -5   3   7    3282     266
  -5   3   7    3289     222
   5  -3  -7    3254     213
  -5   3   6     349     138
  -5   3   6     334     168
   5  -3  -6     447     131
  -5   3   5    1302     173
  -5   3   5    1452     213
   5  -3  -5    1437     170
  -5   3   4   13659     534
  -5   3   4   13164     553
   5  -3  -4   14210     517
  -5   3   3   17657     685
  -5   3   3   17485     694
   5  -3  -3   19210     661
  -5   3   2   26731    1070
  -5   3   2   26753    1077
   5  -3  -2   26416    1045
  -5   3   1    7072     162
  -5   3   1    7691     200
   5  -3  -1    7385     181
  -5   3   0     862     245
  -5   3   0     925     228
  -5   3  -1    7173     162
  -5   3  -1    7311     171
  -5   3  -1    6968     214
   5  -3   1    8135     175
  -5   3  -2   25896    1088
  -5   3  -2   25889    1048
  -5   3  -3   18907     722
  -5   3  -3   18388     686
  -5   3  -4   14677     607
  -5   3  -4   14615     587
  -5   3  -5    1758     209
  -5   3  -5    1928     233
  -5   3  -6     351     159
  -5   3  -7    4075     299
  -5   3  -8    3229     318
  -5   3  -9    4312     333
  -5   3 -10    2276     298
   5  -3  10    2480     252
  -5   3 -11       1     258
   5  -3  11      99     181
  -5   3 -12     108     256
   5  -3  12      17     182
  -5   3 -13     174     264
   5  -3  13     287     212
  -5   3 -14     134     268
  -5   3 -15     325     305
  -5   3 -16     235     275
  -6   4  15     188     301
  -6   4  14      41     274
  -6   4  13     168     255
   6  -4 -13     160     206
  -6   4  12      21     236
   6  -4 -12      76     196
  -6   4  11    1165     297
   6  -4 -11    1034     234
  -6   4  10    1813     227
  -6   4  10    1556     263
   6  -4 -10    1726     239
  -6   4   9    3881     288
  -6   4   9    3688     354
   6  -4  -9    4186     295
  -6   4   8      10     189
  -6   4   8     134     153
   6  -4  -8      76     152
  -6   4   7    1440     205
  -6   4   7    1487     175
   6  -4  -7    1255     173
  -6   4   6   14116     592
  -6   4   6   13743     536
   6  -4  -6   14377     532
  -6   4   5     935     180
  -6   4   5    1176     155
   6  -4  -5     943     146
  -6   4   4    1591     153
  -6   4   4    1429     159
   6  -4  -4    1173     147
  -6   4   3   27000     898
  -6   4   3   26383     882
   6  -4  -3   25605     862
  -6   4   2   18492     713
  -6   4   2   18698     713
   6  -4  -2   17545     697
  -6   4   1    2478     198
  -6   4   1    1688     155
   6  -4  -1    1878     167
  -6   4   0    1711     172
  -6   4   0    1865     169
   6  -4   0    1749     148
  -6   4  -1    2970     190
  -6   4  -1    2679     209
   6  -4   1    2472     197
  -6   4  -2   16791     696
  -6   4  -2   17738     665
  -6   4  -3   26177     916
  -6   4  -3   26455     881
  -6   4  -4    1080     152
  -6   4  -4    1187     180
  -6   4  -5     669     160
  -6   4  -5     996     172
  -6   4  -6   15459     615
  -6   4  -6   14993     626
  -6   4  -7    1632     239
  -6   4  -8     247     216
  -6   4  -9    4064     369
  -6   4 -10    1885     315
  -6   4 -11    1165     317
   6  -4  11     626     196
  -6   4 -12      19     219
   6  -4  12      23     168
  -6   4 -13       9     268
  -6   4 -14       5     288
  -6   4 -15     230     307
  -7   5  15      14     282
  -7   5  14     115     271
  -7   5  13       4     246
  -7   5  12    1035     289
   7  -5 -12    1421     242
  -7   5  11     155     246
   7  -5 -11     558     206
  -7   5  10    1110     221
  -7   5  10    1217     283
   7  -5 -10    1295     230
  -7   5   9    1672     215
  -7   5   9    1221     245
   7  -5  -9    1568     227
  -7   5   8    1046     186
  -7   5   8    1025     243
   7  -5  -8    1346     204
  -7   5   7     390     190
  -7   5   7     463     149
   7  -5  -7     627     159
  -7   5   6    2831     222
  -7   5   6    2866     265
   7  -5  -6    2846     221
  -7   5   5    1518     199
  -7   5   5    2020     171
   7  -5  -5    2067     176
  -7   5   4    1743     192
  -7   5   4    1974     187
   7  -5  -4    2387     201
  -7   5   3    3843     233
  -7   5   3    3552     200
   7  -5  -3    3723     231
  -7   5   2    7433     409
  -7   5   2    7520     417
   7  -5  -2    8223     414
  -7   5   1    2214     205
  -7   5   1    2890     239
  -7   5   0   34344    1378
  -7   5   0   35661    1349
   7  -5   0   36885    1343
  -7   5  -1    3462     283
  -7   5  -1    3674     246
   7  -5   1    3075     261
  -7   5  -2    8481     442
   7  -5   2    7197     409
  -7   5  -3    3691     253
  -7   5  -3    3824     217
   7  -5   3    3648     211
  -7   5  -4    1739     228
  -7   5  -4    1936     200
  -7   5  -5    1505     196
  -7   5  -5    1821     216
  -7   5  -6    2963     275
  -7   5  -6    2771     265
  -7   5  -7     509     204
  -7   5  -8    1098     235
  -7   5  -9     928     247
  -7   5 -10    1007     270
  -7   5 -11     413     281
  -7   5 -12    1200     308
  -7   5 -13     167     282
  -7   5 -14      75     292
  -7   5 -15     314     315
  -8   6  15     176     311
  -8   6  14      10     272
  -8   6  13     437     293
  -8   6  12     349     271
   8  -6 -12     699     225
  -8   6  11      46     251
   8  -6 -11     376     196
  -8   6  10     117     255
   8  -6 -10     106     201
  -8   6   9    2013     235
  -8   6   9    1560     277
   8  -6  -9    2767     276
  -8   6   8      99     173
  -8   6   8     116     194
   8  -6  -8     263     184
  -8   6   7    3133     278
  -8   6   7    4006     357
   8  -6  -7    3656     303
  -8   6   6    6709     412
  -8   6   6    6604     337
   8  -6  -6    5939     346
  -8   6   5    1187     185
  -8   6   5    1326     164
   8  -6  -5    1344     178
  -8   6   4    1373     176
  -8   6   4    1433     186
   8  -6  -4    1286     195
  -8   6   3    1298     181
  -8   6   3    1315     183
   8  -6  -3    1036     189
  -8   6   2    1149     176
  -8   6   2    1235     171
   8  -6  -2     760     166
  -8   6   1    5700     260
  -8   6   1    5199     243
   8  -6  -1    5890     254
  -8   6   0    4485     306
  -8   6   0    3994     287
   8  -6   0    4421     295
  -8   6  -1    5894     282
  -8   6  -1    6321     274
   8  -6   1    6668     284
  -8   6  -2     991     184
   8  -6   2    1417     193
  -8   6  -3     999     209
   8  -6   3    1176     183
  -8   6  -4    1231     192
  -8   6  -4    1442     227
   8  -6   4    1156     183
  -8   6  -5    1191     205
  -8   6  -5    1396     199
  -8   6  -6    5948     378
  -8   6  -6    6013     367
  -8   6  -7    3433     331
  -8   6  -8      22     202
  -8   6  -9    2053     334
  -8   6 -10       5     226
  -8   6 -11     524     250
  -8   6 -12     249     285
  -8   6 -13      53     301
  -8   6 -14      10     299
  -8   6 -15      32     308
  -9   7  15      89     313
  -9   7  14      36     287
  -9   7  13       4     232
  -9   7  12     135     265
  -9   7  11      28     253
   9  -7 -11     131     199
  -9   7  10     350     224
   9  -7 -10      30     198
  -9   7   9     644     229
  -9   7   9     424     191
   9  -7  -9     862     219
  -9   7   8    4219     406
  -9   7   8    4560     323
   9  -7  -8    4250     349
  -9   7   7    3269     257
  -9   7   7    3564     340
   9  -7  -7    2858     284
  -9   7   6    2772     309
  -9   7   6    3323     262
   9  -7  -6    3634     290
  -9   7   5    3275     287
  -9   7   5    3282     242
   9  -7  -5    3342     272
  -9   7   4   11609     497
  -9   7   4   12290     542
   9  -7  -4   11858     530
  -9   7   3    5931     308
  -9   7   3    6322     340
   9  -7  -3    6050     338
  -9   7   2     147     148
  -9   7   2     269     151
  -9   7   1    6882     391
  -9   7   1    8449     424
   9  -7  -1    9078     428
  -9   7   0    4501     284
  -9   7   0    4820     284
   9  -7   0    4570     278
  -9   7  -1    8858     460
  -9   7  -1    8337     431
   9  -7   1    8543     436
  -9   7  -2     184     149
   9  -7   2     467     156
  -9   7  -3    6152     370
   9  -7   3    6363     326
  -9   7  -4   11885     572
   9  -7   4   12192     532
  -9   7  -5    2743     276
   9  -7   5    3285     271
  -9   7  -6    3783     361
  -9   7  -6    3909     344
  -9   7  -7    3268     313
  -9   7  -8    4790     428
  -9   7  -9     680     251
  -9   7 -10     211     245
  -9   7 -11     169     281
  -9   7 -12     341     299
  -9   7 -13     181     303
  -9   7 -14      16     294
  -9   7 -15      15     322
 -10   8  14      55     298
 -10   8  13     150     296
 -10   8  12     215     281
 -10   8  11     844     300
  10  -8 -11     995     296
 -10   8  10     938     290
  10  -8 -10    1371     253
 -10   8   9     388     262
  10  -8  -9     224     206
 -10   8   8     678     274
 -10   8   8    1010     204
  10  -8  -8     969     239
 -10   8   7    1933     277
 -10   8   7    2085     238
  10  -8  -7    2705     275
 -10   8   6    4426     383
 -10   8   6    4222     312
  10  -8  -6    3982     328
 -10   8   5     821     195
 -10   8   5     582     228
  10  -8  -5     843     223
 -10   8   4    5882     353
 -10   8   4    5953     405
  10  -8  -4    5862     390
 -10   8   3    4088     337
 -10   8   3    4508     310
  10  -8  -3    3547     338
 -10   8   2    3569     299
 -10   8   2    3898     327
  10  -8  -2    3135     277
 -10   8   1    1623     207
 -10   8   1    2303     239
  10  -8  -1    2036     249
 -10   8   0    3342     260
 -10   8   0    3764     278
  10  -8   0    3454     276
 -10   8  -1    2207     264
 -10   8  -1    2287     238
  10  -8   1    2423     260
 -10   8  -2    3910     308
  10  -8   2    3231     280
 -10   8  -3    4365     371
  10  -8   3    4812     358
 -10   8  -4    7347     461
  10  -8   4    6083     394
 -10   8  -5     854     263
  10  -8   5     405     207
 -10   8  -6    4057     399
  10  -8   6    4249     354
  10  -8   7    2383     298
 -10   8  -8     934     289
  10  -8   8     978     284
 -10   8  -9     719     294
 -10   8 -10    1256     311
 -10   8 -11     909     320
 -10   8 -12     290     305
 -10   8 -13     195     266
 -10   8 -14      17     310
 -11   9  14       4     301
 -11   9  13      21     244
 -11   9  12      22     269
 -11   9  11     237     278
 -11   9  10     240     266
  11  -9 -10     304     214
 -11   9   9    1773     327
  11  -9  -9    2370     304
 -11   9   8    2087     236
 -11   9   8    1837     319
  11  -9  -8    2179     292
 -11   9   7     617     185
 -11   9   7     151     245
  11  -9  -7     655     237
 -11   9   6    6198     361
 -11   9   6    6200     448
  11  -9  -6    5864     422
 -11   9   5     219     223
 -11   9   5     264     170
  11  -9  -5      16     208
 -11   9   4    4309     318
 -11   9   4    4459     371
  11  -9  -4    3844     367
 -11   9   3    8634     475
 -11   9   3    8204     428
 -11   9   2    1957     245
 -11   9   2    1790     235
  11  -9  -2    1491     255
 -11   9   1    1641     252
 -11   9   1    1084     230
  11  -9  -1    1787     275
 -11   9   0    1884     245
 -11   9   0    1714     232
  11  -9   0    2383     263
 -11   9  -1    1360     263
 -11   9  -1    1324     239
  11  -9   1    1337     240
 -11   9  -2    1470     237
  11  -9   2    2168     267
 -11   9  -3    9185     514
  11  -9   3    8894     489
 -11   9  -4    3950     383
  11  -9   4    4287     342
 -11   9  -5     659     253
  11  -9   5      17     183
 -11   9  -6    7244     493
  11  -9   6    6271     427
  11  -9   7     275     224
  11  -9   8    2443     323
  11  -9   9    1879     319
  11  -9  10     304     280
  11  -9  11       3     269
  11  -9  12      93     277
  11  -9  13     277     295
  11  -9  14     428     274
 -12  10  13     569     324
 -12  10  12       5     264
 -12  10  11       8     269
 -12  10  10     217     233
 -12  10   9     417     274
  12 -10  -9     964     261
 -12  10   8     198     226
  12 -10  -8      12     229
 -12  10   7     264     191
 -12  10   7     114     259
  12 -10  -7     837     244
 -12  10   6     433     231
 -12  10   6     227     200
  12 -10  -6     120     263
 -12  10   5    1917     308
 -12  10   5    2383     278
  12 -10  -5    1901     315
 -12  10   4     923     221
 -12  10   4     875     256
  12 -10  -4    1135     278
 -12  10   3    4321     317
 -12  10   3    4669     378
  12 -10  -3    2552     294
 -12  10   2     629     199
 -12  10   2     612     223
  12 -10  -2     874     250
 -12  10   1     463     197
 -12  10   1     498     216
  12 -10  -1     578     236
 -12  10   0     301     218
 -12  10   0     152     198
  12 -10   0     573     236
 -12  10  -1      13     168
 -12  10  -1      13     195
  12 -10   1     473     192
 -12  10  -2     716     211
  12 -10   2     497     207
 -12  10  -3    4626     373
  12 -10   3    4926     399
 -12  10  -4     694     249
  12 -10   4     739     239
 -12  10  -5    1651     298
  12 -10   5    2153     313
 -12  10  -6     123     240
  12 -10   6     128     250
  12 -10   7      31     261
  12 -10   8       4     261
  12 -10   9     632     258
  12 -10  10      73     276
  12 -10  11     664     305
  12 -10  12     310     307
  12 -10  13     588     347
 -13  11  13     105     315
 -13  11  12     575     332
 -13  11  11     109     291
 -13  11  10     810     280
 -13  11   9      35     219
  13 -11  -9     607     244
 -13  11   8     696     292
  13 -11  -8     459     226
 -13  11   7     344     266
 -13  11   7     369     206
  13 -11  -7     667     282
 -13  11   6     375     210
 -13  11   6     327     267
  13 -11  -6     109     262
 -13  11   5     359     225
 -13  11   5      33     205
  13 -11  -5     196     287
 -13  11   4     713     224
 -13  11   4     863     272
  13 -11  -4     115     133
 -13  11   3     276     222
 -13  11   3     632     261
  13 -11  -3     327     274
 -13  11   2    4897     413
 -13  11   2    5440     470
  13 -11  -2    5131     457
 -13  11   1     139     231
 -13  11   1     404     214
  13 -11  -1     795     287
 -13  11   0   10014     568
 -13  11   0    9039     541
  13 -11   0    8601     520
 -13  11  -1     442     247
 -13  11  -1     610     250
  13 -11   1     567     268
 -13  11  -2    3721     382
  13 -11   2    4612     383
 -13  11  -3     524     277
  13 -11   3     408     235
 -13  11  -4     672     252
  13 -11   4     634     243
 -13  11  -5     376     274
  13 -11   5     299     236
 -13  11  -6     308     243
  13 -11   6      48     271
  13 -11   7     381     283
  13 -11   8     463     276
  13 -11   9      94     228
  13 -11  10    1104     300
  13 -11  11       6     248
  13 -11  12     669     295
  13 -11  13      25     265
 -14  12  12      14     286
 -14  12  11      17     297
 -14  12  10     124     254
 -14  12   9      28     274
 -14  12   8      10     252
  14 -12  -8     280     246
 -14  12   7    1643     337
  14 -12  -7    1498     322
 -14  12   6     388     212
 -14  12   6     186     282
  14 -12  -6     356     289
 -14  12   5     501     279
 -14  12   5     748     238
  14 -12  -5     705     297
 -14  12   4       0     215
 -14  12   4     418     299
  14 -12  -4       0     114
 -14  12   3     132     233
 -14  12   3     123     272
  14 -12  -3     203     293
 -14  12   2      76     215
 -14  12   2      35     245
  14 -12  -2      27     285
 -14  12   1     930     238
 -14  12   1    1808     302
  14 -12  -1    2105     359
 -14  12   0     143     266
 -14  12   0     394     245
  14 -12   0     572     286
 -14  12  -1    1489     301
 -14  12  -1    2065     324
  14 -12   1    2022     347
 -14  12  -2      69     223
  14 -12   2     173     238
 -14  12  -3     114     232
  14 -12   3     208     236
 -14  12  -4     248     244
  14 -12   4     623     300
 -14  12  -5     678     305
  14 -12   5     594     257
  14 -12   6     130     230
  14 -12   7    1776     335
  14 -12   8      11     227
  14 -12   9       4     270
  14 -12  10     599     331
  14 -12  11     277     269
  14 -12  12      79     323
 -15  13  11     118     278
 -15  13  10      50     302
 -15  13   9     447     312
 -15  13   8      10     272
  15 -13  -8     124     237
 -15  13   7     742     319
  15 -13  -7     460     268
 -15  13   6     703     295
 -15  13   6    1382     249
  15 -13  -6    1370     319
 -15  13   5     515     287
 -15  13   5     517     243
  15 -13  -5      44     224
 -15  13   4     812     252
 -15  13   4     658     298
  15 -13  -4     449     282
 -15  13   3       5     294
 -15  13   3       5     213
  15 -13  -3     352     311
 -15  13   2     449     303
 -15  13   2     732     260
  15 -13  -2    1289     356
 -15  13   1    2303     339
 -15  13   1    1413     261
  15 -13  -1    2122     377
 -15  13   0      39     248
 -15  13   0       3     283
  15 -13   0       3     245
 -15  13  -1    2072     335
  15 -13   1    2091     354
 -15  13  -2    1015     303
  15 -13   2     486     309
 -15  13  -3       4     257
  15 -13   3      10     237
 -15  13  -4     457     284
  15 -13   4     669     307
 -15  13  -5     420     256
  15 -13   5     366     249
  15 -13   6    1423     335
  15 -13   7     862     322
  15 -13   8      37     294
  15 -13   9      62     271
  15 -13  10       4     266
  15 -13  11       9     321
 -16  14  11       1     334
 -16  14  10      67     319
 -16  14   9     277     324
 -16  14   8       7     301
 -16  14   7     396     301
  16 -14  -7       0     306
 -16  14   6      88     286
  16 -14  -6     152     283
 -16  14   5     171     216
 -16  14   5     562     303
  16 -14  -5      92     111
 -16  14   4     194     233
 -16  14   4     105     299
  16 -14  -4     185     337
 -16  14   3     260     278
 -16  14   3      97     239
  16 -14  -3       5     292
 -16  14   2       6     249
 -16  14   2     112     293
  16 -14  -2     159     322
 -16  14   1     555     252
 -16  14   1     132     160
  16 -14  -1     133     307
 -16  14   0    1606     336
 -16  14   0    1902     326
  16 -14   0    1755     360
 -16  14  -1     103     254
  16 -14   1     168     295
 -16  14  -2      13     237
  16 -14   2      84     287
 -16  14  -3     236     262
  16 -14   3     177     289
 -16  14  -4     145     275
  16 -14   4      30     286
 -16  14  -5      36     237
  16 -14   5     365     298
  16 -14   6     279     300
  16 -14   7     259     260
  16 -14   8     491     320
  16 -14   9       5     268
  16 -14  10     267     296
  16 -14  11       2     362
 -17  15  10     212     350
 -17  15   9     355     326
 -17  15   8      30     309
 -17  15   7     253     333
  17 -15  -7      10     277
 -17  15   6     896     344
  17 -15  -6     803     359
 -17  15   5     251     241
 -17  15   5      14     291
  17 -15  -5     156     134
 -17  15   4     147     241
 -17  15   4       6     316
  17 -15  -4     537     334
 -17  15   3     608     265
 -17  15   3     532     293
  17 -15  -3     286     333
 -17  15   2     162     226
 -17  15   2     150     304
  17 -15  -2      77     326
 -17  15   1       6      93
 -17  15   1       6     231
  17 -15  -1       6     308
 -17  15   0      11     241
 -17  15   0      11     281
  17 -15   0      11     305
 -17  15  -1       6     256
  17 -15   1     144     312
 -17  15  -2      23     252
  17 -15   2      23     248
 -17  15  -3     931     304
  17 -15   3     297     301
 -17  15  -4     197     293
  17 -15   4     390     300
  17 -15   5      56     262
  17 -15   6     698     344
  17 -15   7     811     318
  17 -15   8      30     317
  17 -15   9     364     276
  17 -15  10      71     291
 -18  16   8     364     341
 -18  16   7      46     353
 -18  16   6     617     340
  18 -16  -6      24     297
 -18  16   5       7     305
  18 -16  -5       0     234
 -18  16   4     567     259
 -18  16   4       3     326
  18 -16  -4     326     347
 -18  16   3    1098     297
 -18  16   3     537     325
  18 -16  -3    1362     398
 -18  16   2      12     288
 -18  16   2     186     276
  18 -16  -2      12     329
 -18  16   1     192     266
 -18  16   1      28      92
  18 -16  -1      22     332
 -18  16   0      17     276
 -18  16   0       0     262
  18 -16   0      67     330
 -18  16  -1      20     253
  18 -16   1       4     273
 -18  16  -2     143     274
  18 -16   2      10     247
 -18  16  -3    1392     350
  18 -16   3     814     356
 -18  16  -4     171     298
  18 -16   4     192     312
  18 -16   5       8     295
  18 -16   6      25     320
  18 -16   7     244     329
  18 -16   8       5     324
 -19  17   7      24     343
 -19  17   6       1     342
  19 -17  -6       1     245
 -19  17   5      75     305
  19 -17  -5     183     310
 -19  17   4       1     332
  19 -17  -4       1     347
 -19  17   3     611     355
 -19  17   3      45     264
  19 -17  -3      19     330
 -19  17   2     991     321
 -19  17   2     649     369
  19 -17  -2     969     430
 -19  17   1     475     291
 -19  17   1      11     131
  19 -17  -1     178     365
 -19  17   0     219     296
  19 -17   0       7     335
 -19  17  -1     242     306
  19 -17   1     115     358
 -19  17  -2     695     311
  19 -17   2     225     336
 -19  17  -3      22     274
  19 -17   3      22     309
  19 -17   4     636     348
  19 -17   5      11     329
  19 -17   6     191     296
  19 -17   7       8     338
 -20  18   5     166     342
  20 -18  -5       9     315
 -20  18   4     506     384
  20 -18  -4     589     387
 -20  18   3     134     275
 -20  18   3      30     348
  20 -18  -3      30     349
 -20  18   2      55     244
 -20  18   2      26     326
  20 -18  -2      59     364
 -20  18   1      13     259
 -20  18   1      13     267
  20 -18  -1      13     346
 -20  18   0     380     279
  20 -18   0      14     348
 -20  18  -1      13     276
  20 -18   1      13     359
 -20  18  -2       8     282
  20 -18   2      25     347
  20 -18   3      29     335
  20 -18   4     372     368
  20 -18   5      97     355
 -21  19   2       6     247
 -21  19   2       6     332
  21 -19  -2       6     353
 -21  19   1     349     283
  21 -19  -1      11     349
 -21  19   0      19     288
  21 -19   0     107     385
 -21  19  -1      12     290
  21 -19   1      12     355
  21 -19   2       5     350
  18 -21   4      11     397
  18 -21   3       3     402
  18 -21   2       2     328
  18 -21   1     116     389
  18 -21   0       4     306
  18 -21  -1     148     335
  18 -21  -2      47     332
  18 -21  -3       3     375
  18 -21  -4      10     364
 -18  21   4     396     399
  17 -20   6       2     358
  17 -20   5      49     346
  17 -20   4      52     358
  17 -20   3       7     373
  17 -20   2     141     312
  17 -20   1       2     366
  17 -20   0     244     330
  17 -20  -1       2     300
  17 -20  -2     155     382
  17 -20  -3     302     383
 -17  20   3       5     328
  17 -20  -4       9     370
 -17  20   4      22     340
  17 -20  -5     163     381
 -17  20   5       5     332
  17 -20  -6      21     370
 -17  20   6       3     337
  16 -19   8     128     376
  16 -19   7      11     295
  16 -19   6       3     347
  16 -19   5      24     283
  16 -19   4      47     298
  16 -19   3     598     395
  16 -19   2     293     385
  16 -19   1      84     345
  16 -19   0     760     406
  16 -19  -1     229     323
  16 -19  -2     257     326
  16 -19  -3     462     346
 -16  19   3     946     369
  16 -19  -4      13     344
 -16  19   4      13     338
  16 -19  -5     337     374
 -16  19   5      23     343
  16 -19  -6     747     353
 -16  19   6       2     316
  16 -19  -7      62     332
 -16  19   7     209     353
  16 -19  -8       4     341
 -16  19   8     426     365
  15 -18   9     152     303
  15 -18   8     350     355
  15 -18   7      36     280
  15 -18   6      15     275
  15 -18   5     514     354
  15 -18   4     468     360
  15 -18   3      17     337
  15 -18   2     961     384
  15 -18   1      87     350
  15 -18   0     372     363
  15 -18  -1     361     364
  15 -18  -2      72     357
 -15  18   2     238     336
  15 -18  -3      21     294
 -15  18   3      21     312
  15 -18  -4     395     315
 -15  18   4     448     356
  15 -18  -5     746     332
 -15  18   5     420     346
  15 -18  -6     600     361
 -15  18   6     327     333
  15 -18  -7     518     361
 -15  18   7      36     309
  15 -18  -8       7     336
 -15  18   8     216     340
  15 -18  -9       3     297
 -15  18   9       3     330
  14 -17  10     479     364
  14 -17   9      77     295
  14 -17   8     209     279
  14 -17   7     382     346
  14 -17   6     396     337
  14 -17   5     623     300
  14 -17   4     499     328
  14 -17   3     733     356
  14 -17   2    1466     355
  14 -17   1     566     305
  14 -17   0     479     350
  14 -17  -1     232     347
  14 -17  -2    1117     394
 -14  17   2    1563     371
  14 -17  -3     689     386
 -14  17   3     319     317
  14 -17  -4     281     347
 -14  17   4      11     269
  14 -17  -5     200     346
 -14  17   5     201     319
  14 -17  -6     402     340
 -14  17   6     631     333
  14 -17  -7     298     344
 -14  17   7    1114     330
  14 -17  -8     499     327
 -14  17   8     237     334
  14 -17  -9     405     330
 -14  17   9      28     290
  14 -17 -10     614     334
 -14  17  10     418     352
  13 -16  11       8     325
  13 -16  10      71     322
  13 -16   9      92     332
  13 -16   8     350     325
  13 -16   7      22     294
  13 -16   6     172     308
  13 -16   5       1     303
  13 -16   4      35     261
  13 -16   3    1135     327
  13 -16   2     347     292
  13 -16   1     408     363
  13 -16   0    1125     386
  13 -16  -1       1     353
  13 -16  -2       5     343
 -13  16   2     648     326
  13 -16  -3     982     342
 -13  16   3     722     337
  13 -16  -4      34     308
 -13  16   4      34     291
  13 -16  -5      82     326
 -13  16   5      36     291
  13 -16  -6     109     307
 -13  16   6     292     296
  13 -16  -7     105     319
 -13  16   7      15     305
  13 -16  -8     533     332
 -13  16   8     142     316
  13 -16  -9     419     325
 -13  16   9      22     323
  13 -16 -10      39     292
 -13  16  10      37     332
  13 -16 -11     386     311
 -13  16  11       9     340
  12 -15  12      14     325
  12 -15  11      32     242
  12 -15  10       4     264
  12 -15   9     174     329
  12 -15   8     445     322
  12 -15   7     322     310
  12 -15   6    1384     348
  12 -15   5     376     284
  12 -15   4    1324     361
  12 -15   3     168     269
  12 -15   2     499     330
  12 -15   1       6     326
  12 -15   0     424     297
  12 -15  -1     877     365
 -12  15   1     239     311
  12 -15  -2     555     302
 -12  15   2      43     301
  12 -15  -3     612     322
 -12  15   3     245     326
  12 -15  -4    1190     387
 -12  15   4    1400     328
  12 -15  -5     533     344
 -12  15   5     699     324
  12 -15  -6    1640     377
 -12  15   6     914     342
  12 -15  -7     371     310
 -12  15   7     343     317
  12 -15  -8       9     266
 -12  15   8       5     266
  12 -15  -9     399     298
 -12  15   9     303     332
  12 -15 -10     283     285
 -12  15  10     244     337
  12 -15 -11     510     311
 -12  15  11      88     326
  12 -15 -12      19     272
 -12  15  12      53     331
  11 -14  12      13     309
  11 -14  11     108     298
  11 -14  10     316     302
  11 -14   9    1159     306
  11 -14   8     376     305
  11 -14   7      20     219
  11 -14   6     708     321
  11 -14   5     862     277
  11 -14   4     376     259
  11 -14   3    1855     323
  11 -14   2       4     288
  11 -14   1     958     294
  11 -14   0    5008     501
  11 -14  -1     101     314
 -11  14   1     201     277
  11 -14  -2       4     314
 -11  14   2       4     279
  11 -14  -3    1972     404
 -11  14   3    1895     366
  11 -14  -4     229     324
 -11  14   4     113     299
  11 -14  -5      11     313
 -11  14   5     668     320
  11 -14  -6     742     345
 -11  14   6     886     339
  11 -14  -7      20     274
 -11  14   7      20     293
  11 -14  -8      39     275
 -11  14   8     416     301
  11 -14  -9    1045     328
 -11  14   9     941     337
  11 -14 -10       8     297
 -11  14  10      71     305
  11 -14 -11     239     278
 -11  14  11     193     314
  11 -14 -12     842     325
 -11  14  12     361     336
  10 -13  13      26     264
  10 -13  12      95     264
  10 -13  11     102     292
  10 -13  10    1488     315
  10 -13   9     476     293
  10 -13   8     456     257
  10 -13   7    1076     308
  10 -13   6    1151     338
  10 -13   5     557     254
  10 -13   4    1403     331
  10 -13   3    2303     311
  10 -13   2    9049     553
  10 -13   1     713     270
  10 -13   0       0     230
  10 -13  -1     380     305
 -10  13   1     138     260
  10 -13  -2    8152     578
 -10  13   2    8437     584
  10 -13  -3    1673     357
 -10  13   3    1810     327
  10 -13  -4    1207     308
 -10  13   4     886     269
  10 -13  -5     295     312
 -10  13   5     905     312
  10 -13  -6     349     281
 -10  13   6     594     320
  10 -13  -7    1495     349
 -10  13   7    1425     350
  10 -13  -8      30     272
 -10  13   8     876     312
  10 -13  -9     849     311
 -10  13   9     510     303
  10 -13 -10    1851     349
 -10  13  10     957     332
  10 -13 -11     555     275
 -10  13  11      55     301
  10 -13 -12     287     278
 -10  13  12     350     323
  10 -13 -13     890     295
 -10  13  13      26     315
   9 -12  13      11     303
   9 -12  12      36     301
   9 -12  11     322     296
   9 -12  10    1366     353
   9 -12   9      34     230
   9 -12   8    1182     289
   9 -12   7    1912     315
   9 -12   6    2485     332
   9 -12   5    1284     273
   9 -12   4    5942     462
   9 -12   3    1964     322
   9 -12   2    1508     312
   9 -12   1    2885     322
   9 -12   0      50     217
   9 -12  -1    2435     337
  -9  12   1    2097     299
   9 -12  -2    1520     328
  -9  12   2    1563     285
   9 -12  -3    1552     325
  -9  12   3    1163     256
   9 -12  -4    5536     441
  -9  12   4    5940     487
   9 -12  -5    1564     325
  -9  12   5    1604     291
   9 -12  -6    1671     337
  -9  12   6    2363     351
   9 -12  -7    1697     347
  -9  12   7    1602     342
   9 -12  -8     830     317
  -9  12   8     749     312
   9 -12  -9      71     262
  -9  12   9     102     271
   9 -12 -10    1638     345
  -9  12  10    1001     291
   9 -12 -11      89     260
  -9  12  11       6     282
   9 -12 -12      32     254
  -9  12  12       2     255
   9 -12 -13     786     276
  -9  12  13      11     307
  -9  12  14       3     306
   8 -11  14      24     240
   8 -11  13       9     252
   8 -11  12     143     279
   8 -11  11     307     236
   8 -11  10    1045     305
   8 -11   9    2076     329
   8 -11   8       4     263
   8 -11   7     357     267
   8 -11   6     878     284
   8 -11   5     575     258
   8 -11   4     284     207
   8 -11   3    5902     359
   8 -11   2     770     215
   8 -11   1    1685     296
   8 -11   0    2251     293
   8 -11  -1    1763     308
  -8  11   1    1371     271
   8 -11  -2    1009     278
  -8  11   2     928     253
   8 -11  -3    7113     431
  -8  11   3    5838     408
   8 -11  -4     347     218
  -8  11   4      50     237
   8 -11  -5     562     264
  -8  11   5     939     239
   8 -11  -6    1140     310
  -8  11   6     749     287
   8 -11  -7     308     263
  -8  11   7     249     270
   8 -11  -8      35     270
  -8  11   8       5     262
   8 -11  -9    1961     340
  -8  11   9    2253     361
   8 -11 -10    1533     312
  -8  11  10    1119     278
   8 -11 -11     194     259
  -8  11  11     186     246
   8 -11 -12     382     267
  -8  11  12     188     299
   8 -11 -13      10     263
  -8  11  13      10     295
   8 -11 -14     285     275
  -8  11  14     456     339
   7 -10  14      20     272
   7 -10  13      25     269
   7 -10  12     616     275
   7 -10  11     582     244
   7 -10  10     274     252
   7 -10   9     395     228
   7 -10   8     541     235
   7 -10   7    6822     477
   7 -10   6     762     261
   7 -10   5    5110     350
   7 -10   4     368     218
   7 -10   3   10473     508
   7 -10   2    2692     290
   7 -10   1    8507     443
   7 -10   0   15637     694
   7 -10  -1    9074     491
  -7  10   1    8601     477
   7 -10  -2    3371     345
  -7  10   2    2791     310
   7 -10  -3   10342     497
  -7  10   3    9795     509
   7 -10  -4     308     205
  -7  10   4     398     201
   7 -10  -5    4740     393
  -7  10   5    4920     369
   7 -10  -6     810     270
  -7  10   6     609     257
   7 -10  -7    6354     465
  -7  10   7    6788     482
   7 -10  -8     738     276
  -7  10   8     455     271
   7 -10  -9     763     290
  -7  10   9     836     290
   7 -10 -10     352     261
  -7  10  10     206     265
   7 -10 -11     470     255
  -7  10  11     269     272
   7 -10 -12     756     279
  -7  10  12     349     286
   7 -10 -13     552     273
  -7  10  13     496     312
   7 -10 -14      11     241
  -7  10  14      12     300
   6  -9  15      40     280
   6  -9  14     234     277
   6  -9  13     231     273
   6  -9  12    1366     305
   6  -9  11     146     246
   6  -9  10       2     235
   6  -9   9     123     238
   6  -9   8    2258     311
   6  -9   7     548     208
   6  -9   6   19504     814
   6  -9   5    3594     294
   6  -9   4       1     154
   6  -9   3     219     159
   6  -9   2     471     194
   6  -9   1     727     203
   6  -9   0   31919    1398
   6  -9  -1     760     194
  -6   9   1     427     189
   6  -9  -2     330     212
  -6   9   2     283     186
   6  -9  -3     445     182
  -6   9   3     168     189
   6  -9  -4      24     154
  -6   9   4      25     186
   6  -9  -5    3414     312
  -6   9   5    4123     331
   6  -9  -6   17301     750
  -6   9   6   18027     774
   6  -9  -7     517     253
  -6   9   7     701     222
   6  -9  -8    2123     289
  -6   9   8    2027     292
   6  -9  -9       2     233
  -6   9   9       2     239
   6  -9 -10       2     239
  -6   9  10       2     254
   6  -9 -11     357     251
  -6   9  11     129     257
   6  -9 -12     651     276
  -6   9  12     560     257
   6  -9 -13     165     252
  -6   9  13      95     286
   6  -9 -14     428     281
  -6   9  14     189     299
   6  -9 -15     439     286
  -6   9  15      22     279
   5  -8  15      59     254
   5  -8  14     221     254
   5  -8  13    2120     339
   5  -8  12     274     252
   5  -8  11    1081     285
   5  -8  10      12     235
   5  -8   9    3199     346
   5  -8   8    3027     319
   5  -8   7    9735     471
   5  -8   6       1     171
   5  -8   5   23427     905
   5  -8   4   10659     504
   5  -8   3    7910     420
   5  -8   2    4025     266
   5  -8   1   24156     789
   5  -8   0   32971    1077
   5  -8  -1   23849     807
  -5   8   1   24839     815
   5  -8  -2    3971     312
  -5   8   2    3227     270
   5  -8  -3    9650     486
  -5   8   3    8012     463
   5  -8  -4    9455     506
  -5   8   4   10811     522
   5  -8  -5   19649     803
  -5   8   5   21507     840
   5  -8  -6     208     208
  -5   8   6     124     167
   5  -8  -7   11147     537
  -5   8   7   10935     558
   5  -8  -8    2889     297
  -5   8   8    2741     319
   5  -8  -9    3234     347
  -5   8   9    3060     352
   5  -8 -10     167     244
  -5   8  10     136     250
   5  -8 -11     997     286
  -5   8  11    1741     327
   5  -8 -12     746     266
  -5   8  12     532     282
   5  -8 -13    2389     347
  -5   8  13    1998     353
   5  -8 -14     193     265
  -5   8  14       3     269
   5  -8 -15      10     253
  -5   8  15      20     301
   4  -7  15      10     230
   4  -7  14     395     270
  -4   7 -14     218     268
   4  -7  13    1353     287
  -4   7 -13    1266     302
   4  -7  12       6     203
  -4   7 -12       6     226
   4  -7  11     371     233
  -4   7 -11     317     248
   4  -7  10     903     255
   4  -7   9     490     226
   4  -7   8     799     225
   4  -7   7    2067     258
   4  -7   6    2011     215
   4  -7   5   14204     612
   4  -7   4     250     147
   4  -7   3    3302     247
   4  -7   2     107     136
   4  -7   1   19808     789
   4  -7   0    4207     349
   4  -7  -1   20694     829
  -4   7   1   19828     834
   4  -7  -2     110     179
  -4   7   2      98     156
   4  -7  -3    4098     277
  -4   7   3    3517     298
   4  -7  -4     120     177
  -4   7   4     239     175
   4  -7  -5   13150     582
  -4   7   5   12847     594
   4  -7  -6    2351     238
  -4   7   6    2350     259
   4  -7  -7    1894     247
  -4   7   7    1965     262
   4  -7  -8     780     206
  -4   7   8    1251     247
   4  -7  -9     564     243
  -4   7   9     343     236
   4  -7 -10     937     269
  -4   7  10     990     273
   4  -7 -11     361     241
  -4   7  11     405     256
   4  -7 -12     102     237
  -4   7  12      70     248
   4  -7 -13    1409     310
  -4   7  13    1438     316
   4  -7 -14      65     259
  -4   7  14     149     281
   4  -7 -15     200     256
  -4   7  15       9     282
  -3   6 -15     203     280
  -3   6 -14     567     285
  -3   6 -13     666     271
  -3   6 -12       7     234
  -3   6 -11    2774     341
  -3   6 -10       2     217
  -3   6  -9    1840     274
   3  -6   8    2822     296
  -3   6  -8    2872     301
   3  -6   7    8619     405
   3  -6   6   19679     761
   3  -6   5    9157     558
   3  -6   4   27321     897
   3  -6   3   22547     716
   3  -6   2     147     136
   3  -6   1   41478    1610
   3  -6   0    2274     252
   3  -6  -1   42304    1619
  -3   6   1   41636    1643
   3  -6  -2      54     138
  -3   6   2     160     141
   3  -6  -3   23432     756
  -3   6   3   22717     759
   3  -6  -4   26097     857
  -3   6   4   25150     863
   3  -6  -5    8991     582
  -3   6   5    9647     596
   3  -6  -6   20796     814
  -3   6   6   20897     830
   3  -6  -7    8661     420
  -3   6   7    8424     434
   3  -6  -8    2664     314
  -3   6   8    2876     310
   3  -6  -9    1899     288
  -3   6   9    2034     289
   3  -6 -10     224     225
  -3   6  10     275     222
   3  -6 -11    1933     310
  -3   6  11    2472     330
   3  -6 -12      83     232
  -3   6  12     113     239
   3  -6 -13     675     267
  -3   6  13     681     279
   3  -6 -14      27     251
  -3   6  14     194     265
   3  -6 -15     145     271
  -3   6  15      50     263
   2  -5  16     248     268
  -2   5 -16     303     280
  -2   5 -15      89     257
  -2   5 -14     174     246
  -2   5 -13     226     243
  -2   5 -12     261     231
  -2   5 -11     695     248
  -2   5 -10    2531     303
  -2   5  -9    4377     328
  -2   5  -8    3070     279
  -2   5  -7    2983     238
   2  -5   6     139     134
  -2   5  -6     518     159
   2  -5   5    1746     205
   2  -5   4   14516     568
   2  -5   3   18619     714
   2  -5   2   26493    1057
   2  -5   1    8178     214
   2  -5   0    1298     275
   2  -5  -1    7446     219
  -2   5   1    7638     239
   2  -5  -2   24540    1034
  -2   5   2   26083    1055
   2  -5  -3   18149     682
  -2   5   3   17593     703
   2  -5  -4   13904     566
  -2   5   4   13979     576
   2  -5  -5    1986     239
  -2   5   5    1424     217
   2  -5  -6     407     157
  -2   5   6     202     159
   2  -5  -7    3388     280
  -2   5   7    3467     262
   2  -5  -8    2595     265
  -2   5   8    2858     281
  -2   5   8    2614     152
   2  -5  -9    4506     349
  -2   5   9    3879     200
  -2   5   9    3943     331
   2  -5 -10    2265     303
  -2   5  10    2468     307
   2  -5 -11       1     232
  -2   5  11       1     230
   2  -5 -12     293     236
  -2   5  12     364     262
   2  -5 -13     169     246
  -2   5  13     268     271
   2  -5 -14     265     256
  -2   5  14      19     243
   2  -5 -15     189     273
  -2   5  15     105     257
   2  -5 -16     305     276
  -2   5  16       0     268
   1  -4  16       1     226
   1  -4  15     319     267
   1  -4  15     536     281
   1  -4  14      55     231
  -1   4 -14      25     132
  -1   4 -13       8     172
  -1   4 -12    2424     297
  -1   4 -11    1751     270
  -1   4 -10    1670     249
  -1   4  -9   12047     531
  -1   4  -8    5730     327
  -1   4  -7    2051     206
  -1   4  -6    1214     148
   1  -4   5    8623     343
  -1   4  -5    7662     331
   1  -4   4   20345     804
   1  -4   3   85312    2835
   1  -4   2   17288    1099
   1  -4   1   20514     581
   1  -4   0    1713     129
   1  -4  -1   20603     600
  -1   4   1   19238     609
   1  -4  -2   17531    1113
   1  -4  -2   18474    1091
  -1   4   2   16708    1132
   1  -4  -3   76775    2613
  -1   4   3   79859    2661
   1  -4  -4   20326     817
  -1   4   4   20228     831
   1  -4  -5    8599     369
  -1   4   5    8272     377
   1  -4  -6     929     165
  -1   4   6     913     158
   1  -4  -7    2843     267
  -1   4   7    2613     254
   1  -4  -8    4981     327
  -1   4   8    5242     349
   1  -4  -9   12215     584
  -1   4   9   12391     485
  -1   4   9   12710     588
   1  -4 -10    2271     300
  -1   4  10    1914     182
  -1   4  10    1614     278
   1  -4 -11    2253     312
  -1   4  11    2211     303
   1  -4 -12    2728     320
  -1   4  12    2478     326
   1  -4 -13     310     246
  -1   4  13     203     239
   1  -4 -14     107     256
  -1   4  14       3     244
   1  -4 -15     691     285
  -1   4  15      99     268
   1  -4 -16     170     268
  -1   4  16       1     285
   0  -3  16     479     302
   0  -3  15     715     284
   0   3 -15       1     258
   0  -3  14      70     222
   0  -3  14     122     247
   0   3 -14       1     212
   0  -3  13     633     228
   0   3 -13     694     238
   0   3 -12     463     199
   0   3 -11     193     191
   0   3 -10    3291     298
   0   3  -9    2969     258
   0   3  -8     489     150
   0   3  -7    6808     320
   0   3  -6    8757     416
   0   3  -5    1258     155
   0   3  -4   18009     620
   0  -3   3   25326     827
   0  -3   2     351     113
   0  -3   1   22242     207
   0  -3   0    6271      43
   0  -3   0    5909      76
   0  -3  -1   21668     185
   0  -3  -1   21655     206
   0   3   1   21766     219
   0  -3  -2     334      82
   0  -3  -2     500     120
   0   3   2     501     126
   0  -3  -3   24202     839
   0  -3  -3   25365     809
   0   3   3   25597     852
   0  -3  -4   17385     629
   0   3   4   17698     633
   0  -3  -5    1167     172
   0   3   5    1086     169
   0  -3  -6    9717     479
   0   3   6    9405     477
   0  -3  -7    7559     371
   0   3   7    6971     351
   0  -3  -8     554     199
   0   3   8     503     170
   0  -3  -9    3686     311
   0   3   9    3996     311
   0  -3 -10    5431     383
   0   3  10    5453     396
   0  -3 -11     527     256
   0   3  11     437     244
   0  -3 -12    1167     271
   0   3  12     919     253
   0  -3 -13     499     255
   0   3  13     650     261
   0  -3 -14      33     248
   0   3  14      27     257
   0  -3 -15      24     264
   0   3  15       1     238
   0  -3 -16     138     287
   0   3  16       7     285
  -1  -2  16     455     278
  -1  -2  15     305     261
   1   2 -15      88     237
  -1  -2  14      28     233
  -1  -2  14     207     263
   1   2 -14      86     221
  -1  -2  13    1328     283
   1   2 -13    1184     257
  -1  -2  12     178     225
   1   2 -12     529     234
  -1  -2  11     387     230
   1   2 -11     181     217
  -1  -2  10    2321     306
   1   2 -10    2981     288
   1   2  -9    1414     209
   1   2  -8    1137     182
   1   2  -7    9531     402
   1   2  -6     295     118
   1   2  -5    2511     149
   1   2  -4    3577     200
  -1  -2   3   11271     527
  -1  -2   3   11022     478
  -1  -2   2   62172    1617
  -1  -2   2   62464    1685
  -1  -2   1    8489     489
  -1  -2   1    8953     464
  -1  -2   0    6222     387
  -1  -2   0    6053     374
  -1  -2  -1    8362     469
  -1  -2  -1   10086     472
  -1  -2  -2   67598    1717
  -1  -2  -2   67027    1694
   1   2   2   61698    1712
  -1  -2  -3    9906     467
  -1  -2  -3    9624     438
   1   2   3   11240     465
  -1  -2  -4    2987     239
  -1  -2  -4    3378     190
   1   2   4    3679     224
  -1  -2  -5    2533     188
   1   2   5    2833     189
  -1  -2  -6     236     134
   1   2   6     249     127
  -1  -2  -7    9501     443
   1   2   7    9387     424
  -1  -2  -8     816     187
   1   2   8     878     173
  -1  -2  -9    1281     254
   1   2   9    1342     219
  -1  -2 -10    2852     335
   1   2  10    2530     295
  -1  -2 -11     406     243
   1   2  11     235     228
  -1  -2 -12     388     252
   1   2  12      28     209
  -1  -2 -13    1176     254
   1   2  13    1239     281
  -1  -2 -14      53     262
   1   2  14      29     252
  -1  -2 -15     565     290
   1   2  15       4     259
  -1  -2 -16       2     269
   1   2  16       2     245
  -2  -1  16     159     265
  -2  -1  15     228     262
  -2  -1  14     128     242
   2   1 -14     106     222
  -2  -1  13    1610     293
  -2  -1  13    1380     284
   2   1 -13    1339     265
  -2  -1  12     618     241
  -2  -1  12     123     217
   2   1 -12       7     207
  -2  -1  11      43     220
   2   1 -11     560     214
  -2  -1  10    2660     308
   2   1 -10    2685     271
  -2  -1   9    1369     235
   2   1  -9    1075     200
  -2  -1   8     851     193
   2   1  -8    1227     165
  -2  -1   7    9399     421
   2   1  -7    9205     380
  -2  -1   6     276     141
   2   1  -6     322     108
  -2  -1   5    2912     196
   2   1  -5    2607     148
  -2  -1   4    3752     242
   2   1  -4    3732     195
  -2  -1   3    9521     479
   2   1  -3   11502     432
  -2  -1   2   66343    1712
  -2  -1   2   68928    1798
  -2  -1   1    9974     486
  -2  -1   1   10306     532
  -2  -1   0    6334     392
  -2  -1   0    6175     365
  -2  -1  -1    8790     437
  -2  -1  -1    7132     445
  -2  -1  -2   62817    1534
  -2  -1  -2   51077    1558
   2   1   2   63830    1540
  -2  -1  -3   11069     483
  -2  -1  -3   10621     476
   2   1   3    9728     462
  -2  -1  -4    3778     219
  -2  -1  -4    3756     236
   2   1   4    3643     214
  -2  -1  -5    2773     169
  -2  -1  -5    2922     191
   2   1   5    2468     166
  -2  -1  -6     243     134
   2   1   6     227     113
  -2  -1  -7    9543     451
   2   1   7   10036     425
  -2  -1  -8     660     205
   2   1   8     931     176
  -2  -1  -9    1308     231
   2   1   9    1697     228
  -2  -1 -10    2550     316
   2   1  10    2411     286
  -2  -1 -11     595     256
   2   1  11     335     220
  -2  -1 -12     616     268
   2   1  12     178     222
  -2  -1 -13    1410     302
   2   1  13    1317     278
  -2  -1 -14      29     258
   2   1  14     142     253
  -2  -1 -15     225     264
   2   1  15      19     261
  -2  -1 -16       3     256
  -3   0  16      81     285
  -3   0  15       0     240
  -3   0  14     258     260
   3   0 -14     162     237
  -3   0  13     749     257
  -3   0  13     333     225
   3   0 -13     334     215
  -3   0  12     309     228
  -3   0  12     670     256
   3   0 -12     689     223
  -3   0  11     140     210
  -3   0  11     449     237
   3   0 -11     174     176
  -3   0  10    5730     381
   3   0 -10    5475     355
  -3   0   9    3877     297
   3   0  -9    3234     265
  -3   0   8     735     178
   3   0  -8     572     144
  -3   0   7    7744     364
   3   0  -7    7835     326
  -3   0   6    9770     467
   3   0  -6    9651     428
  -3   0   5    1138     167
   3   0  -5     989     125
  -3   0   4   17423     646
   3   0  -4   18343     590
  -3   0   3   24993     860
   3   0  -3   25270     794
  -3   0   2     374     125
  -3   0   1   21103     156
  -3   0   1   20990     211
  -3   0   0    5235      69
  -3   0   0    5934      44
  -3   0  -1   21502     190
  -3   0  -1   21258     211
  -3   0  -2     518     106
  -3   0  -2     446     117
   3   0   2     520      70
  -3   0  -3   24973     843
   3   0   3   25463     818
  -3   0  -4   18314     647
   3   0   4   17660     608
  -3   0  -5    1114     165
  -3   0  -5    1173     175
   3   0   5    1149     133
  -3   0  -6    9973     491
   3   0   6    9621     446
  -3   0  -7    7720     364
   3   0   7    7289     328
  -3   0  -8     170     185
   3   0   8     475     148
  -3   0  -9    4229     354
   3   0   9    4003     293
  -3   0 -10    5665     423
   3   0  10    5385     373
  -3   0 -11     186     242
   3   0  11       6     196
  -3   0 -12     737     277
   3   0  12     884     245
  -3   0 -13     154     258
   3   0  13     525     238
  -3   0 -14      34     239
   3   0  14      34     238
  -3   0 -15       0     272
  -3   0 -16       7     275
  -4   1  16       1     286
  -4   1  15     494     289
  -4   1  14      28     236
  -4   1  13     400     256
   4  -1 -13     214     208
  -4   1  12    2797     325
  -4   1  12    2849     356
   4  -1 -12    3449     318
  -4   1  11    1689     293
  -4   1  11    2193     273
   4  -1 -11    1800     244
  -4   1  10    1530     238
  -4   1  10    1478     272
   4  -1 -10    1807     222
  -4   1   9   12404     556
  -4   1   9   12204     598
   4  -1  -9   12776     526
  -4   1   8    5583     332
   4  -1  -8    5458     304
  -4   1   7    2678     230
   4  -1  -7    2263     188
  -4   1   6     943     154
   4  -1  -6    1108     127
  -4   1   5    9056     371
   4  -1  -5    8487     322
  -4   1   4   20547     834
   4  -1  -4   20958     778
  -4   1   3   76337    2644
   4  -1  -3   78894    2536
  -4   1   2   18318    1160
   4  -1  -2   18376    1091
  -4   1   1   20443     590
   4  -1  -1   19043     532
  -4   1   0     438     135
  -4   1   0     449      92
  -4   1  -1   20034     566
  -4   1  -1   20088     604
  -4   1  -2   18239    1127
  -4   1  -2   17953    1164
  -4   1  -3   78313    2661
  -4   1  -3   79489    2588
   4  -1   3   75043    2580
  -4   1  -4   19574     812
  -4   1  -4   20224     835
   4  -1   4   21231     776
  -4   1  -5    7997     368
  -4   1  -5    8875     379
   4  -1   5    9130     331
  -4   1  -6    1202     187
   4  -1   6    1004     121
  -4   1  -7    2467     246
   4  -1   7    2552     202
  -4   1  -8    5549     377
   4  -1   8    5577     316
  -4   1  -9   12860     609
   4  -1   9   12635     551
  -4   1 -10    1212     257
   4  -1  10    2024     235
  -4   1 -11    1707     281
   4  -1  11    1812     254
  -4   1 -12    2315     343
   4  -1  12    2870     306
  -4   1 -13     202     260
   4  -1  13       9     219
  -4   1 -14      26     217
  -4   1 -15     646     310
  -4   1 -16     285     293
  -5   2  16     248     300
  -5   2  15      84     273
  -5   2  14     301     275
  -5   2  13      92     252
  -5   2  12      19     201
  -5   2  12      19     194
   5  -2 -12     177     189
  -5   2  11     270     214
  -5   2  11     309     218
   5  -2 -11     306     195
  -5   2  10    2028     264
  -5   2  10    2159     283
   5  -2 -10    2360     240
  -5   2   9    4089     345
  -5   2   9    4361     301
   5  -2  -9    3717     266
  -5   2   8    2906     257
  -5   2   8    3196     302
   5  -2  -8    2891     224
  -5   2   7    3556     233
  -5   2   7    2915     255
   5  -2  -7    3129     199
  -5   2   6     346     163
  -5   2   6     452     146
   5  -2  -6     466     117
  -5   2   5    1680     202
   5  -2  -5    1576     158
  -5   2   4   14075     550
   5  -2  -4   13750     501
  -5   2   3   18573     693
   5  -2  -3   17953     640
  -5   2   2   25079    1078
   5  -2  -2   27659    1026
  -5   2   1    7168     211
   5  -2  -1    7957     157
  -5   2   0     801     216
  -5   2   0     718     268
  -5   2   0     782     215
   5  -2   0     694     211
  -5   2  -1    8219     151
  -5   2  -1    8030     226
  -5   2  -1    8136     188
  -5   2  -2   27113    1113
  -5   2  -2   27940    1072
  -5   2  -3   17865     704
  -5   2  -3   17203     669
  -5   2  -4   13777     548
  -5   2  -4   13918     573
  -5   2  -5    1434     213
  -5   2  -5    1726     226
  -5   2  -6     276     158
  -5   2  -6     418     179
   5  -2   6     353      99
  -5   2  -7    3008     267
   5  -2   7    2897     189
  -5   2  -8    2647     303
   5  -2   8    3161     232
  -5   2  -9    4341     357
   5  -2   9    3864     279
  -5   2 -10    2320     330
   5  -2  10    2054     238
  -5   2 -11     354     272
   5  -2  11     423     199
  -5   2 -12      17     254
   5  -2  12      41     198
  -5   2 -13     485     279
  -5   2 -14      20     230
  -5   2 -15     169     290
  -5   2 -16     201     269
  -6   3  15      92     307
  -6   3  14     192     273
  -6   3  13     725     272
  -6   3  12       1     237
   6  -3 -12      94     180
  -6   3  11    2284     342
  -6   3  11    2398     287
   6  -3 -11    2683     268
  -6   3  10      37     227
  -6   3  10     199     196
   6  -3 -10     179     179
  -6   3   9    2024     296
  -6   3   9    2153     253
   6  -3  -9    2337     235
  -6   3   8    2421     255
  -6   3   8    2553     306
   6  -3  -8    2592     241
  -6   3   7    8290     427
  -6   3   7    8267     375
   6  -3  -7    8553     349
  -6   3   6   21241     817
  -6   3   6   19922     775
   6  -3  -6   20106     733
  -6   3   5    8453     528
  -6   3   5    8981     564
   6  -3  -5    8744     490
  -6   3   4   25820     871
  -6   3   4   26311     859
   6  -3  -4   26547     813
  -6   3   3   23141     755
  -6   3   3   23455     752
   6  -3  -3   23820     709
  -6   3   2     153     102
  -6   3   2     153     130
   6  -3  -2       6     109
  -6   3   1   41885    1676
   6  -3  -1   42559    1611
  -6   3   0    2521     172
  -6   3   0    1990     205
  -6   3  -1   41571    1617
  -6   3  -1   44146    1622
  -6   3  -1   43282    1687
  -6   3  -2     158      97
  -6   3  -2      95     141
  -6   3  -3   23731     741
  -6   3  -3   22952     766
  -6   3  -4   27003     878
  -6   3  -4   26878     916
  -6   3  -5    8975     545
  -6   3  -5    8565     568
  -6   3  -6   21015     812
  -6   3  -6   20989     837
  -6   3  -7    7935     391
  -6   3  -8    2936     310
   6  -3   8    2510     222
  -6   3  -9    1767     300
   6  -3   9    1688     199
  -6   3 -10       2     244
   6  -3  10      41     159
  -6   3 -11    2963     381
   6  -3  11    2897     282
  -6   3 -12     300     278
  -6   3 -13     420     286
  -6   3 -14       0     239
  -6   3 -15      22     286
  -7   4  15       9     284
  -7   4  14       3     266
  -7   4  13    1393     319
  -7   4  12     257     262
  -7   4  11     118     232
  -7   4  11     315     256
   7  -4 -11     374     188
  -7   4  10    1559     302
  -7   4  10    1240     237
   7  -4 -10    1446     218
  -7   4   9     416     227
  -7   4   9     342     192
   7  -4  -9     509     178
  -7   4   8     535     222
  -7   4   8     860     193
   7  -4  -8     865     172
  -7   4   7    1974     222
  -7   4   7    1885     257
   7  -4  -7    2328     202
  -7   4   6    2285     245
  -7   4   6    2789     232
   7  -4  -6    2526     187
  -7   4   5   12226     537
  -7   4   5   12721     573
   7  -4  -5   13225     510
  -7   4   4     141     145
  -7   4   4     185     151
   7  -4  -4     309     132
  -7   4   3    3575     255
  -7   4   3    3746     257
   7  -4  -3    3757     242
  -7   4   2     192     139
  -7   4   2      77     124
   7  -4  -2     109     121
  -7   4   1   20562     817
   7  -4  -1   19984     775
  -7   4   0    4832     316
  -7   4   0    4375     352
  -7   4  -1   19102     804
  -7   4  -1   19949     747
   7  -4   1   19853     764
  -7   4  -2     232     121
  -7   4  -2     157     150
  -7   4  -3    3524     237
  -7   4  -3    3354     257
  -7   4  -4     224     147
  -7   4  -4     203     181
  -7   4  -5   13514     589
  -7   4  -5   13378     610
  -7   4  -6    2695     272
  -7   4  -6    2796     276
  -7   4  -7    2260     278
  -7   4  -7    1950     267
  -7   4  -8    1056     258
  -7   4  -9     414     253
   7  -4   9     395     146
  -7   4 -10    1064     269
   7  -4  10    1160     196
  -7   4 -11     595     248
  -7   4 -12     123     231
  -7   4 -13    1024     316
  -7   4 -14       3     286
  -7   4 -15     138     264
  -8   5  15      10     298
  -8   5  14      73     286
  -8   5  13    1220     325
  -8   5  12     936     292
  -8   5  11     678     280
   8  -5 -11    1381     222
  -8   5  10      13     233
  -8   5  10      13     201
   8  -5 -10     219     190
  -8   5   9    2416     328
  -8   5   9    3273     286
   8  -5  -9    3488     272
  -8   5   8    3878     356
  -8   5   8    3713     302
   8  -5  -8    3293     270
  -8   5   7   10839     483
  -8   5   7   10932     546
   8  -5  -7   11008     459
  -8   5   6     213     154
  -8   5   6       1     154
   8  -5  -6     168     139
  -8   5   5   22440     868
  -8   5   5   21609     830
   8  -5  -5   21985     803
  -8   5   4    9344     469
  -8   5   4    9197     448
   8  -5  -4   10200     433
  -8   5   3    8582     433
  -8   5   3    8932     441
   8  -5  -3    8371     418
  -8   5   2    3544     245
  -8   5   2    3564     235
   8  -5  -2    3868     233
  -8   5   1   22086     727
   8  -5  -1   23042     702
  -8   5   0   33027    1079
  -8   5   0   34222    1041
   8  -5   0   31802    1030
  -8   5  -1   23450     775
  -8   5  -1   23864     721
   8  -5   1   22731     731
  -8   5  -2    3956     206
  -8   5  -2    3643     273
   8  -5   2    3408     223
  -8   5  -3    7877     435
  -8   5  -3    8632     421
  -8   5  -4   10521     474
  -8   5  -4    9857     495
  -8   5  -5   22189     864
  -8   5  -5   23313     914
  -8   5  -6       1     181
  -8   5  -6       6     160
  -8   5  -7   10349     542
  -8   5  -7   10930     530
  -8   5  -8    2795     305
  -8   5  -9    2983     358
  -8   5 -10      13     259
  -8   5 -11     979     310
  -8   5 -12     778     314
  -8   5 -13    2076     335
  -8   5 -14       3     274
  -8   5 -15      13     316
  -9   6  15      22     296
  -9   6  14     311     300
  -9   6  13       1     273
  -9   6  12    1303     321
  -9   6  11     256     267
  -9   6  10       2     239
   9  -6 -10     458     190
  -9   6   9       2     237
  -9   6   9       4     191
   9  -6  -9     272     190
  -9   6   8    2003     245
  -9   6   8    2373     320
   9  -6  -8    2427     246
  -9   6   7     417     188
  -9   6   7     720     242
   9  -6  -7     895     195
  -9   6   6   16110     724
  -9   6   6   17957     692
   9  -6  -6   17368     673
  -9   6   5    4304     335
  -9   6   5    3625     282
   9  -6  -5    3758     290
  -9   6   4      23     143
  -9   6   4      23     156
   9  -6  -4      23     142
  -9   6   3     294     161
  -9   6   3     168     141
   9  -6  -3     161     156
  -9   6   2     260     144
  -9   6   2     480     144
   9  -6  -2     756     166
  -9   6   1     941     169
  -9   6   1     149      77
   9  -6  -1      77      63
  -9   6   0   32049    1390
  -9   6   0   31459    1341
   9  -6   0   30721    1333
  -9   6  -1    1002     186
  -9   6  -1     754     139
   9  -6   1     760     168
  -9   6  -2     660     183
  -9   6  -2     538     125
   9  -6   2     473     154
  -9   6  -3      62     167
   9  -6   3      62     124
  -9   6  -4      57     186
  -9   6  -4      24     165
  -9   6  -5    4048     361
  -9   6  -5    3521     292
  -9   6  -6   17928     737
  -9   6  -6   17804     782
  -9   6  -7     609     249
  -9   6  -7     275     206
  -9   6  -8    1604     277
  -9   6  -9       5     227
  -9   6 -10       2     251
  -9   6 -11     169     279
  -9   6 -12    1323     297
  -9   6 -13     228     307
  -9   6 -14      96     270
  -9   6 -15      21     325
 -10   7  14     109     300
 -10   7  13     144     244
 -10   7  12     275     284
 -10   7  11     437     271
 -10   7  10     244     259
  10  -7 -10     500     202
 -10   7   9     907     212
 -10   7   9     174     265
  10  -7  -9     767     210
 -10   7   8     684     214
 -10   7   8     570     260
  10  -7  -8    1273     225
 -10   7   7    6577     374
 -10   7   7    6497     462
  10  -7  -7    6786     402
 -10   7   6     518     191
 -10   7   6     310     229
  10  -7  -6     854     203
 -10   7   5    5089     366
 -10   7   5    4612     313
  10  -7  -5    4328     316
 -10   7   4     444     186
 -10   7   4     439     164
  10  -7  -4     660     199
 -10   7   3    9973     446
 -10   7   3   11232     484
  10  -7  -3    9401     454
 -10   7   2    2536     259
 -10   7   2    2790     272
  10  -7  -2    3131     282
 -10   7   1    8258     416
 -10   7   0   14839     608
 -10   7   0   14520     633
  10  -7   0   14880     599
 -10   7  -1    8525     402
 -10   7  -1    8816     448
  10  -7   1    8983     418
 -10   7  -2    2538     238
 -10   7  -2    2822     300
  10  -7   2    2764     261
 -10   7  -3   11095     524
  10  -7   3   10176     479
 -10   7  -4     731     229
  10  -7   4     604     180
 -10   7  -5    4947     395
  10  -7   5    5124     362
 -10   7  -6     634     257
 -10   7  -6     673     221
 -10   7  -7    6024     456
 -10   7  -7    5624     399
 -10   7  -8     890     290
 -10   7  -9     599     254
 -10   7 -10       4     231
 -10   7 -11     363     257
 -10   7 -12     557     287
 -10   7 -13     389     312
 -10   7 -14      47     311
 -11   8  14       7     277
 -11   8  13      75     288
 -11   8  12     172     292
 -11   8  11       3     244
 -11   8  10     862     290
 -11   8   9    1851     332
  11  -8  -9    2609     279
 -11   8   8     276     197
 -11   8   8     107     215
  11  -8  -8     150     201
 -11   8   7     433     193
 -11   8   7     367     248
  11  -8  -7     382     219
 -11   8   6    1094     238
 -11   8   6    1095     274
  11  -8  -6    1142     252
 -11   8   5     648     225
 -11   8   5     633     190
  11  -8  -5     709     206
 -11   8   4     210     185
 -11   8   4     223     176
  11  -8  -4       5     202
 -11   8   3    6168     347
 -11   8   3    6502     359
  11  -8  -3    6352     382
 -11   8   2     768     202
 -11   8   2     925     198
  11  -8  -2     184     158
 -11   8   1    1275     225
  11  -8  -1     923     210
 -11   8   0    1769     237
 -11   8   0    2006     232
  11  -8   0    2378     255
 -11   8  -1    1273     208
 -11   8  -1    1142     239
  11  -8   1    1352     228
 -11   8  -2     692     196
  11  -8   2     458     196
 -11   8  -3    6326     391
  11  -8   3    6075     332
 -11   8  -4     197     220
  11  -8   4     294     172
 -11   8  -5     800     225
  11  -8   5     760     209
 -11   8  -6    1075     275
  11  -8   6     977     278
 -11   8  -7     357     231
 -11   8  -7     111     230
  11  -8   7     252     212
 -11   8  -8       4     254
 -11   8  -9    2117     346
 -11   8 -10     363     291
 -11   8 -11      76     251
 -11   8 -12     100     255
 -11   8 -13       9     296
 -11   8 -14      45     266
 -12   9  14       3     295
 -12   9  13     327     310
 -12   9  12      32     263
 -12   9  11       6     267
 -12   9  10    1301     322
 -12   9   9      20     257
  12  -9  -9     253     209
 -12   9   8    1172     239
 -12   9   8    1346     307
  12  -9  -8    1086     261
 -12   9   7    2218     329
 -12   9   7    1998     270
  12  -9  -7    2154     299
 -12   9   6    2156     257
 -12   9   6    2162     312
  12  -9  -6    2119     301
 -12   9   5    2052     289
 -12   9   5    1394     234
  12  -9  -5    1664     290
 -12   9   4    5867     431
 -12   9   4    5753     393
  12  -9  -4    5286     414
 -12   9   3    1479     248
 -12   9   3    1568     257
  12  -9  -3    1781     299
 -12   9   2    1606     254
 -12   9   2    1595     258
 -12   9   1    2827     283
  12  -9  -1    2223     274
 -12   9   0       4     186
 -12   9   0      77     189
  12  -9   0       4     164
 -12   9  -1    2679     266
 -12   9  -1    2227     260
  12  -9   1    2560     260
 -12   9  -2    2047     313
  12  -9   2    1928     285
 -12   9  -3    1699     298
  12  -9   3    1702     252
 -12   9  -4    5485     413
  12  -9   4    5282     387
 -12   9  -5    1565     320
  12  -9   5    2293     287
 -12   9  -6    2372     328
  12  -9   6    2062     328
 -12   9  -7    2758     384
  12  -9   7    2138     321
  12  -9   8    1010     278
  12  -9   9     105     233
  12  -9  10    1678     353
 -12   9 -11     308     270
  12  -9  11     148     242
 -12   9 -12       5     297
  12  -9  12      16     281
 -12   9 -13      11     302
  12  -9  13     589     323
 -13  10  13      26     283
 -13  10  12     112     286
 -13  10  11       1     230
 -13  10  10    1118     307
 -13  10   9     486     281
 -13  10   8     600     240
  13 -10  -8     251     227
 -13  10   7     908     288
 -13  10   7    1172     249
  13 -10  -7    1009     275
 -13  10   6     539     284
 -13  10   6     933     244
  13 -10  -6     762     274
 -13  10   5     643     261
 -13  10   5     420     210
  13 -10  -5     325     249
 -13  10   4    1235     267
 -13  10   4    1101     270
  13 -10  -4     980     310
 -13  10   3    1881     283
 -13  10   3    2405     286
  13 -10  -3    1979     314
 -13  10   2    7788     483
 -13  10   2    8542     504
  13 -10  -2    8012     488
 -13  10   1      59     166
 -13  10   1     329     220
  13 -10  -1     674     242
 -13  10   0     291     211
 -13  10   0       1     210
  13 -10   0       1     218
 -13  10  -1     404     230
 -13  10  -1     326     228
  13 -10   1     514     238
 -13  10  -2    8895     557
  13 -10   2    9377     547
 -13  10  -3    2034     313
  13 -10   3    2108     300
 -13  10  -4     451     284
  13 -10   4    1439     309
 -13  10  -5     594     283
  13 -10   5     507     266
 -13  10  -6    1021     329
  13 -10   6     359     247
 -13  10  -7     959     331
  13 -10   7    1076     311
  13 -10   8     734     296
  13 -10   9     138     241
  13 -10  10    1371     347
  13 -10  11       8     286
  13 -10  12     503     283
  13 -10  13     528     295
 -14  11  12     110     263
 -14  11  11     234     267
 -14  11  10       7     287
 -14  11   9    1002     316
 -14  11   8     269     280
  14 -11  -8     905     277
 -14  11   7      20     208
 -14  11   7     206     267
  14 -11  -7     291     242
 -14  11   6    1165     255
 -14  11   6     861     293
  14 -11  -6     838     280
 -14  11   5     731     287
 -14  11   5     942     244
  14 -11  -5     360     272
 -14  11   4     486     268
 -14  11   4      67     205
  14 -11  -4      56     273
 -14  11   3    1806     324
 -14  11   3    1619     292
 -14  11   2     143     220
 -14  11   2       4     251
  14 -11  -2     139     266
 -14  11   1     147     201
 -14  11   1     526     242
  14 -11  -1      14     243
 -14  11   0    4762     424
 -14  11   0    4399     402
  14 -11   0    4912     433
 -14  11  -1     380     252
 -14  11  -1     105     226
  14 -11   1     506     224
 -14  11  -2       4     246
  14 -11   2     220     217
 -14  11  -3    1868     304
  14 -11   3    1939     301
 -14  11  -4     485     293
  14 -11   4     429     278
 -14  11  -5     456     294
  14 -11   5     747     267
 -14  11  -6     726     282
  14 -11   6     812     272
 -14  11  -7     337     293
  14 -11   7     157     266
  14 -11   8     390     282
  14 -11   9    1051     288
  14 -11  10       7     270
  14 -11  11     437     285
  14 -11  12     114     318
 -15  12  12      13     308
 -15  12  11     222     313
 -15  12  10      51     299
 -15  12   9     368     306
 -15  12   8       9     268
 -15  12   7     181     278
  15 -12  -7      10     241
 -15  12   6    1447     261
 -15  12   6    1410     322
  15 -12  -6    1106     298
 -15  12   5     424     246
 -15  12   5     246     281
  15 -12  -5     818     322
 -15  12   4    1568     301
 -15  12   4    1309     319
  15 -12  -4    1517     348
 -15  12   3     616     261
 -15  12   3     916     307
  15 -12  -3      82     146
 -15  12   2      44     228
 -15  12   2     501     290
  15 -12  -2      44     303
 -15  12   1     424     222
 -15  12   1     541     257
  15 -12  -1     891     312
 -15  12   0     387     268
 -15  12   0     398     282
  15 -12   0     658     295
 -15  12  -1     133     229
 -15  12  -1      65     249
  15 -12   1     723     295
 -15  12  -2     368     233
  15 -12   2     354     234
 -15  12  -3     295     254
  15 -12   3       2     272
 -15  12  -4    1588     348
  15 -12   4    1818     311
 -15  12  -5     423     305
  15 -12   5     470     292
 -15  12  -6     853     324
  15 -12   6    1995     331
  15 -12   7      11     237
  15 -12   8       9     229
  15 -12   9       6     278
  15 -12  10     242     273
  15 -12  11       6     301
  15 -12  12     333     334
 -16  13  11      38     322
 -16  13  10      73     291
 -16  13   9     115     314
 -16  13   8     561     316
 -16  13   7      21     262
  16 -13  -7     307     264
 -16  13   6     317     286
 -16  13   6     294     223
  16 -13  -6     103     268
 -16  13   5     101     219
 -16  13   5      27     263
  16 -13  -5      29     279
 -16  13   4      33     253
 -16  13   4      35     215
  16 -13  -4     236     260
 -16  13   3     872     326
 -16  13   3    1498     309
  16 -13  -3     737     333
 -16  13   2     194     241
 -16  13   2       5     259
  16 -13  -2     736     315
 -16  13   1     105     253
 -16  13   1       8     252
  16 -13  -1     371     310
 -16  13   0     995     318
 -16  13   0     723     288
  16 -13   0     298     301
 -16  13  -1     166     273
 -16  13  -1     362     276
  16 -13   1       8     235
 -16  13  -2       5     265
  16 -13   2     684     288
 -16  13  -3     986     315
  16 -13   3    1292     337
 -16  13  -4       9     275
  16 -13   4      34     274
 -16  13  -5      53     284
  16 -13   5       1     231
 -16  13  -6     555     310
  16 -13   6     128     279
  16 -13   7      21     276
  16 -13   8     547     326
  16 -13   9     371     288
  16 -13  10      70     277
  16 -13  11     129     338
 -17  14  10     321     341
 -17  14   9     500     344
 -17  14   8       3     293
 -17  14   7     458     321
 -17  14   6      88     302
  17 -14  -6     317     329
 -17  14   5     115     303
 -17  14   5     467     239
  17 -14  -5     132     286
 -17  14   4     247     311
 -17  14   4     661     240
  17 -14  -4     108     142
 -17  14   3     629     254
 -17  14   3     687     297
  17 -14  -3    1056     350
 -17  14   2    1560     340
 -17  14   2    1443     312
  17 -14  -2    1668     382
 -17  14   1     600     285
 -17  14   1     593     304
  17 -14  -1     579     329
 -17  14   0      10     251
 -17  14   0     643     285
  17 -14   0      10     280
 -17  14  -1     387     276
  17 -14   1     207     286
 -17  14  -2    1251     327
  17 -14   2    2092     371
 -17  14  -3       3     277
  17 -14   3     558     309
 -17  14  -4     229     289
  17 -14   4     504     308
 -17  14  -5     284     296
  17 -14   5     401     306
 -17  14  -6     315     316
  17 -14   6     530     286
  17 -14   7     573     283
  17 -14   8       3     250
  17 -14   9     249     323
  17 -14  10     322     352
 -18  15   9       2     321
 -18  15   8       8     305
 -18  15   7      97     320
 -18  15   6      91     305
  18 -15  -6     423     334
 -18  15   5     272     266
 -18  15   5       6     298
  18 -15  -5       6     326
 -18  15   4     936     294
 -18  15   4     493     318
 -18  15   3     164     244
 -18  15   3     229     308
  18 -15  -3      22     310
 -18  15   2     216     259
 -18  15   2      89     304
  18 -15  -2      71     344
 -18  15   1     109     319
 -18  15   1     233     262
  18 -15  -1      47     311
 -18  15   0       0     287
 -18  15   0       0     249
  18 -15   0     353     334
 -18  15  -1     305     286
  18 -15   1     245     322
 -18  15  -2     232     282
  18 -15   2      89     312
 -18  15  -3     197     286
  18 -15   3     146     291
 -18  15  -4     706     316
  18 -15   4     572     328
 -18  15  -5      61     291
  18 -15   5     828     346
  18 -15   6     220     276
  18 -15   7     122     266
  18 -15   8     167     273
  18 -15   9      48     335
 -19  16   8       5     359
 -19  16   7      12     314
 -19  16   6       2     319
 -19  16   5      23     308
  19 -16  -5      23     298
 -19  16   4      15     234
 -19  16   4      13     322
  19 -16  -4      27     233
 -19  16   3     552     355
 -19  16   3     565     279
  19 -16  -3     654     360
 -19  16   2       2     269
 -19  16   2     448     297
  19 -16  -2     206     337
 -19  16   1     146     318
 -19  16   1     103     266
  19 -16  -1      90     330
 -19  16   0     497     339
 -19  16   0     270     291
  19 -16   0     382     348
 -19  16  -1      84     286
  19 -16   1     232     278
 -19  16  -2     242     284
  19 -16   2       2     251
 -19  16  -3     956     338
  19 -16   3     678     355
 -19  16  -4      13     301
  19 -16   4      13     252
 -19  16  -5     107     313
  19 -16   5      93     273
  19 -16   6       3     301
  19 -16   7      11     247
  19 -16   8       6     290
 -20  17   6       3     325
 -20  17   5       6     320
  20 -17  -5     449     318
 -20  17   4     151     353
  20 -17  -4       9     305
 -20  17   3     193     341
 -20  17   3     214     276
  20 -17  -3       5     336
 -20  17   2     233     267
 -20  17   2     114     197
  20 -17  -2       3     338
 -20  17   1       3     261
 -20  17   1      69     316
  20 -17  -1       3     344
 -20  17   0     576     299
  20 -17   0       4     353
 -20  17  -1     110     283
  20 -17   1     253     353
 -20  17  -2     120     300
  20 -17   2     151     294
 -20  17  -3     378     314
  20 -17   3     306     290
 -20  17  -4      52     289
  20 -17   4      52     326
  20 -17   5     120     341
  20 -17   6       3     331
 -21  18   4      10     340
  21 -18  -4      10     379
 -21  18   3       2     285
 -21  18   3     139     364
  21 -18  -3      36     350
 -21  18   2       2     288
 -21  18   2      96      96
  21 -18  -2       2     349
 -21  18   1      62     304
  21 -18  -1     111     376
 -21  18   0      12     282
  21 -18   0     402     377
 -21  18  -1      61     286
  21 -18   1      17     338
 -21  18  -2     302     316
  21 -18   2       2     301
 -21  18  -3       3     302
  21 -18   3       3     331
  21 -18   4     125     309
  18 -22   0       1     310
  17 -21   5     358     399
  17 -21   4      29     368
  17 -21   3     378     398
  17 -21   2       0     374
  17 -21   1     320     377
  17 -21   0       6     317
  17 -21  -1     500     398
  17 -21  -2       0     362
  17 -21  -3     410     392
  17 -21  -4       9     372
 -17  21   4     124     360
  17 -21  -5       1     378
 -17  21   5     321     360
  16 -20   7     342     376
  16 -20   6       4     310
  16 -20   5      51     373
  16 -20   4      64     320
  16 -20   3     726     407
  16 -20   2     268     319
  16 -20   1     622     409
  16 -20   0     557     346
  16 -20  -1       9     312
  16 -20  -2       3     366
  16 -20  -3      12     317
  16 -20  -4     343     331
 -16  20   4      63     324
  16 -20  -5       2     317
 -16  20   5     432     355
  16 -20  -6     136     361
 -16  20   6       4     344
  16 -20  -7     474     372
 -16  20   7     307     384
  15 -19   8      13     358
  15 -19   7      16     269
  15 -19   6      62     296
  15 -19   5     154     306
  15 -19   4     973     354
  15 -19   3     880     399
  15 -19   2       4     347
  15 -19   1     218     325
  15 -19   0     193     329
  15 -19  -1     180     364
  15 -19  -2     146     319
  15 -19  -3     777     381
 -15  19   3     392     352
  15 -19  -4     624     380
 -15  19   4     991     381
  15 -19  -5       0     342
 -15  19   5       0     308
  15 -19  -6      19     362
 -15  19   6     225     354
  15 -19  -7      18     316
 -15  19   7     182     358
  15 -19  -8    1051     391
 -15  19   8     297     351
  14 -18   9     650     337
  14 -18   8      25     283
  14 -18   7     509     345
  14 -18   6     650     375
  14 -18   5     649     311
  14 -18   4     171     300
  14 -18   3    2301     392
  14 -18   2     113     298
  14 -18   1      60     280
  14 -18   0    1729     375
  14 -18  -1     436     306
  14 -18  -2       0     293
  14 -18  -3    1997     427
 -14  18   3    2052     391
  14 -18  -4      36     337
 -14  18   4      36     299
  14 -18  -5     239     364
 -14  18   5     227     331
  14 -18  -6     830     383
 -14  18   6     554     349
  14 -18  -7     254     350
 -14  18   7     148     323
  14 -18  -8      93     341
 -14  18   8      69     327
  14 -18  -9    1227     385
 -14  18   9    1071     375
  13 -17  10     540     374
  13 -17   9      35     273
  13 -17   8     379     289
  13 -17   7      26     310
  13 -17   6     136     278
  13 -17   5     144     301
  13 -17   4     176     280
  13 -17   3     420     303
  13 -17   2    1706     411
  13 -17   1     907     325
  13 -17   0     311     353
  13 -17  -1    1071     391
  13 -17  -2    1299     398
 -13  17   2    1270     370
  13 -17  -3     305     358
 -13  17   3     647     330
  13 -17  -4     681     355
 -13  17   4     373     316
  13 -17  -5     210     339
 -13  17   5      66     316
  13 -17  -6      22     310
 -13  17   6      83     314
  13 -17  -7      34     332
 -13  17   7     676     351
  13 -17  -8      95     270
 -13  17   8      80     311
  13 -17  -9      32     290
 -13  17   9     390     338
  13 -17 -10     291     314
 -13  17  10     929     382
  12 -16  11      10     332
  12 -16  10      26     311
  12 -16   9     468     299
  12 -16   8     348     318
  12 -16   7     466     286
  12 -16   6      55     291
  12 -16   5     183     313
  12 -16   4       5     257
  12 -16   3    1298     378
  12 -16   2     955     327
  12 -16   1     283     296
  12 -16   0       9     290
  12 -16  -1      83     346
  12 -16  -2    1578     406
 -12  16   2     792     342
  12 -16  -3     732     335
 -12  16   3     783     342
  12 -16  -4     181     330
 -12  16   4     544     325
  12 -16  -5     256     330
 -12  16   5       3     295
  12 -16  -6     125     330
 -12  16   6      52     293
  12 -16  -7     531     328
 -12  16   7       3     288
  12 -16  -8     108     316
 -12  16   8     258     322
  12 -16  -9     291     327
 -12  16   9     243     296
  12 -16 -10      27     273
 -12  16  10      27     318
  12 -16 -11      11     284
 -12  16  11      11     333
  11 -15  12       6     269
  11 -15  11      10     311
  11 -15  10     494     334
  11 -15   9     355     278
  11 -15   8     620     324
  11 -15   7      47     250
  11 -15   6       8     286
  11 -15   5       3     251
  11 -15   4    3240     398
  11 -15   3    1586     371
  11 -15   2     569     303
  11 -15   1     619     311
  11 -15   0    2070     414
  11 -15  -1     859     320
  11 -15  -2      85     349
 -11  15   2     316     304
  11 -15  -3    1734     402
 -11  15   3    1421     371
  11 -15  -4    3645     464
 -11  15   4    3601     445
  11 -15  -5       1     266
 -11  15   5       1     288
  11 -15  -6     165     310
 -11  15   6       8     276
  11 -15  -7     199     313
 -11  15   7     295     315
  11 -15  -8     699     319
 -11  15   8     306     316
  11 -15  -9     329     309
 -11  15   9     236     329
  11 -15 -10     122     290
 -11  15  10       2     314
  11 -15 -11     175     299
 -11  15  11      22     313
  11 -15 -12     250     297
 -11  15  12     422     349
  10 -14  13     129     314
  10 -14  12      45     301
  10 -14  11     331     310
  10 -14  10     288     301
  10 -14   9    1102     310
  10 -14   8     524     300
  10 -14   7     881     296
  10 -14   6     425     259
  10 -14   5    3080     405
  10 -14   4    3433     413
  10 -14   3    3410     386
  10 -14   2    1971     367
  10 -14   1    5375     479
  10 -14   0      70     317
  10 -14  -1    4340     484
  10 -14  -2    2300     395
 -10  14   2    2262     359
  10 -14  -3    3832     449
 -10  14   3    3340     422
  10 -14  -4    3323     399
 -10  14   4    3277     413
  10 -14  -5    3110     421
 -10  14   5    2571     384
  10 -14  -6     218     316
 -10  14   6     601     323
  10 -14  -7     539     318
 -10  14   7     762     296
  10 -14  -8     546     264
 -10  14   8    1123     334
  10 -14  -9    1152     336
 -10  14   9    1162     341
  10 -14 -10     450     295
 -10  14  10     851     334
  10 -14 -11     263     291
 -10  14  11     163     313
  10 -14 -12     167     286
 -10  14  12      17     310
  10 -14 -13     409     296
 -10  14  13      38     337
   9 -13  13      12     298
   9 -13  12      13     299
   9 -13  11     254     257
   9 -13  10       5     230
   9 -13   9    2546     375
   9 -13   8      18     234
   9 -13   7       5     247
   9 -13   6    6731     477
   9 -13   5    2014     316
   9 -13   4     975     323
   9 -13   3    9974     565
   9 -13   2    4402     431
   9 -13   1    2069     359
   9 -13   0     407     291
   9 -13  -1    1733     332
  -9  13   1    2029     342
   9 -13  -2    4116     430
  -9  13   2    3391     394
   9 -13  -3   10304     624
  -9  13   3    9808     621
   9 -13  -4     485     283
  -9  13   4     689     308
   9 -13  -5    1715     357
  -9  13   5    2137     320
   9 -13  -6    6329     526
  -9  13   6    6549     540
   9 -13  -7       6     241
  -9  13   7     253     304
   9 -13  -8      17     281
  -9  13   8     153     257
   9 -13  -9    2091     363
  -9  13   9    3141     411
   9 -13 -10     269     279
  -9  13  10     109     291
   9 -13 -11    1149     327
  -9  13  11     431     320
   9 -13 -12     286     279
  -9  13  12      24     305
   9 -13 -13     234     304
  -9  13  13      14     326
   8 -12  14     128     271
   8 -12  13     552     337
   8 -12  12       0     271
   8 -12  11       1     259
   8 -12  10     973     310
   8 -12   9    3015     389
   8 -12   8     684     293
   8 -12   7    1982     301
   8 -12   6    1142     278
   8 -12   5    1099     278
   8 -12   4    2221     292
   8 -12   3    3300     330
   8 -12   2    6953     460
   8 -12   1    7009     472
   8 -12   0       4     212
   8 -12  -1    7737     497
  -8  12   1    7971     490
   8 -12  -2    6541     467
  -8  12   2    6574     464
   8 -12  -3    3612     385
  -8  12   3    3555     360
   8 -12  -4    3190     374
  -8  12   4    2543     332
   8 -12  -5     619     308
  -8  12   5    1228     317
   8 -12  -6     953     280
  -8  12   6     797     310
   8 -12  -7    2362     329
  -8  12   7    2276     328
   8 -12  -8     510     315
  -8  12   8     890     319
   8 -12  -9    2977     391
  -8  12   9    2288     371
   8 -12 -10    1453     323
  -8  12  10     733     311
   8 -12 -11     371     267
  -8  12  11     499     303
   8 -12 -12       1     269
  -8  12  12      60     295
   8 -12 -13      89     265
  -8  12  13     532     325
   8 -12 -14     162     293
  -8  12  14       0     316
   7 -11  14      22     260
   7 -11  13       1     226
   7 -11  12     662     307
   7 -11  11      16     219
   7 -11  10    1759     307
   7 -11   9      36     256
   7 -11   8     505     244
   7 -11   7     399     258
   7 -11   6    2915     323
   7 -11   5     327     211
   7 -11   4    1027     239
   7 -11   3     493     249
   7 -11   2    4143     341
   7 -11   1     756     223
   7 -11   0   21420     874
   7 -11  -1     654     262
  -7  11   1     738     235
   7 -11  -2    3999     368
  -7  11   2    4569     361
   7 -11  -3     421     235
  -7  11   3     519     250
   7 -11  -4     983     255
  -7  11   4    1209     270
   7 -11  -5     104     251
  -7  11   5     237     252
   7 -11  -6    2625     349
  -7  11   6    2301     337
   7 -11  -7     743     293
  -7  11   7     673     287
   7 -11  -8     768     301
  -7  11   8     615     295
   7 -11  -9     195     278
  -7  11   9      42     232
   7 -11 -10    1980     330
  -7  11  10    1296     287
   7 -11 -11      73     257
  -7  11  11      16     275
   7 -11 -12    1361     322
  -7  11  12     568     283
   7 -11 -13     196     260
  -7  11  13       1     260
   7 -11 -14     348     283
  -7  11  14     236     314
   6 -10  14      69     274
   6 -10  13     822     299
   6 -10  12    1028     267
   6 -10  11     317     254
   6 -10  10      76     215
   6 -10   9     945     292
   6 -10   8    1528     324
   6 -10   7   10295     540
   6 -10   6    4665     388
   6 -10   5    9227     480
   6 -10   4    1393     229
   6 -10   3    4171     351
   6 -10   2     321     213
   6 -10   1   16113     694
   6 -10   0   10405     477
   6 -10  -1   14929     650
  -6  10   1   15336     668
   6 -10  -2     155     202
  -6  10   2     127     205
   6 -10  -3    4489     339
  -6  10   3    4100     338
   6 -10  -4    1186     252
  -6  10   4     818     237
   6 -10  -5    9708     529
  -6  10   5    9670     516
   6 -10  -6    5117     413
  -6  10   6    4330     400
   6 -10  -7    9693     522
  -6  10   7    9627     559
   6 -10  -8    1108     311
  -6  10   8     699     260
   6 -10  -9     269     269
  -6  10   9     275     272
   6 -10 -10      35     242
  -6  10  10       0     263
   6 -10 -11     716     290
  -6  10  11       9     258
   6 -10 -12     826     284
  -6  10  12     266     295
   6 -10 -13     984     303
  -6  10  13     734     331
   6 -10 -14     167     273
  -6  10  14      21     295
   5  -9  15     387     282
   5  -9  14      45     253
   5  -9  13    1439     324
   5  -9  12     572     259
   5  -9  11     511     246
   5  -9  10     184     204
   5  -9   9     376     241
   5  -9   8     854     225
   5  -9   7   14046     667
   5  -9   6   10365     519
   5  -9   5    9092     455
   5  -9   4    3018     302
   5  -9   3    2694     281
   5  -9   2    6589     356
   5  -9   1   20288     896
   5  -9   0    6353     383
   5  -9  -1   20070     907
  -5   9   1   19833     911
   5  -9  -2    5966     367
  -5   9   2    7129     381
   5  -9  -3    2332     300
  -5   9   3    2582     294
   5  -9  -4    2616     289
  -5   9   4    2862     304
   5  -9  -5    9024     467
  -5   9   5    9257     488
   5  -9  -6   10063     525
  -5   9   6   10315     546
   5  -9  -7   13766     654
  -5   9   7   12535     656
   5  -9  -8     553     226
  -5   9   8     620     262
   5  -9  -9     693     238
  -5   9   9     247     264
   5  -9 -10     385     269
  -5   9  10     693     281
   5  -9 -11     534     256
  -5   9  11     428     272
   5  -9 -12     607     265
  -5   9  12     131     267
   5  -9 -13    1762     343
  -5   9  13     821     324
   5  -9 -14     326     270
  -5   9  14     666     305
   5  -9 -15     300     270
  -5   9  15      68     312
   4  -8  15     193     298
   4  -8  14     786     295
   4  -8  13     149     241
   4  -8  12    1679     292
   4  -8  11     225     196
   4  -8  10       1     206
   4  -8   9     331     200
   4  -8   8    3670     339
   4  -8   7    5782     345
   4  -8   6   12774     597
   4  -8   5    4009     275
   4  -8   4   10579     499
   4  -8   3      86     143
   4  -8   2    1930     241
   4  -8   1     219     174
   4  -8   0   69345    2228
   4  -8  -1       3     175
  -4   8   1      57     153
   4  -8  -2    2048     237
  -4   8   2    1690     238
   4  -8  -3     117     158
  -4   8   3      29     166
   4  -8  -4    9539     470
  -4   8   4    9349     498
   4  -8  -5    5019     339
  -4   8   5    4505     323
   4  -8  -6   10918     542
  -4   8   6   11102     563
   4  -8  -7    5490     373
  -4   8   7    5199     341
   4  -8  -8    3353     326
  -4   8   8    3382     346
   4  -8  -9     840     282
  -4   8   9     296     258
   4  -8 -10       1     235
  -4   8  10       1     244
   4  -8 -11     799     267
  -4   8  11       0     244
   4  -8 -12    1958     322
  -4   8  12    1228     302
   4  -8 -13     368     264
  -4   8  13     470     302
   4  -8 -14    1088     320
  -4   8  14     288     300
   4  -8 -15       0     256
  -4   8  15      28     296
   3  -7  15      70     243
   3  -7  14       2     221
   3  -7  13    1163     278
   3  -7  12     207     219
   3  -7  11     256     227
   3  -7  10    1224     259
   3  -7   9     536     214
   3  -7   8     843     213
   3  -7   7    2003     246
   3  -7   6    2391     245
   3  -7   5   12845     557
   3  -7   4     268     159
   3  -7   3    3898     258
   3  -7   2     280     159
   3  -7   1   21438     862
   3  -7   0    4749     367
   3  -7  -1   19665     796
  -3   7   1   20285     815
   3  -7  -2     185     153
  -3   7   2     166     147
   3  -7  -3    3176     259
  -3   7   3    3158     283
   3  -7  -4      82     175
  -3   7   4     200     181
   3  -7  -5   13141     590
  -3   7   5   12737     589
   3  -7  -6    2594     274
  -3   7   6    2122     230
   3  -7  -7    2133     277
  -3   7   7    1862     244
   3  -7  -8     881     217
  -3   7   8    1082     248
   3  -7  -9     675     220
  -3   7   9     543     232
   3  -7 -10    1525     304
  -3   7  10    1003     278
   3  -7 -11     253     250
  -3   7  11     483     262
   3  -7 -12     364     249
  -3   7  12      70     252
   3  -7 -13    1185     304
  -3   7  13    1057     300
   3  -7 -14     414     279
  -3   7  14     131     276
   3  -7 -15      45     258
  -3   7  15      11     278
   2  -6  15     476     246
  -2   6 -15      54     182
   2  -6  14     488     236
  -2   6 -14       5     227
  -2   6 -13     119     239
  -2   6 -12     265     235
  -2   6 -11    1265     277
   2  -6  10    1590     251
  -2   6 -10    1292     259
   2  -6   9    4513     328
   2  -6   8     346     172
   2  -6   7    1596     206
   2  -6   6   13861     549
   2  -6   5    1177     176
   2  -6   4    1515     169
   2  -6   3   25867     861
   2  -6   2   18609     730
   2  -6   1    2598     222
   2  -6   0    2205     231
   2  -6  -1    2530     227
  -2   6   1    2496     233
   2  -6  -2   16851     679
  -2   6   2   17338     697
   2  -6  -3   25456     880
   2  -6  -3   24969     815
  -2   6   3   27057     902
   2  -6  -4     950     164
  -2   6   4    1398     185
   2  -6  -5     885     192
  -2   6   5     906     181
   2  -6  -6   14336     582
  -2   6   6   13467     568
   2  -6  -7    1485     210
  -2   6   7    1434     215
   2  -6  -8     544     215
  -2   6   8     452     199
   2  -6  -9    3397     328
  -2   6   9    4179     364
   2  -6 -10    1770     290
  -2   6  10    1514     286
   2  -6 -11     933     288
  -2   6  11     618     283
   2  -6 -12      22     228
  -2   6  12     127     254
   2  -6 -13     349     264
  -2   6  13       8     246
   2  -6 -14    1137     293
  -2   6  14      48     261
   2  -6 -15     178     270
  -2   6  15      23     289
   1  -5  16     230     249
   1  -5  15     687     289
  -1   5 -15      59     255
   1  -5  14      93     264
  -1   5 -14      40     171
  -1   5 -13     108     148
  -1   5 -12       5      79
  -1   5 -11      20      59
  -1   5 -10      28      48
  -1   5  -9      33      42
  -1   5  -8     155      39
   1  -5   7    8409     419
   1  -5   6    1981     197
   1  -5   5   13716     503
   1  -5   4   29736    1084
   1  -5   3   42820    1473
   1  -5   2   14869     566
   1  -5   1   24747     970
   1  -5   0     199     164
   1  -5  -1   22519     941
   1  -5  -2   17076     600
   1  -5  -2   16316     643
  -1   5   2   15478     657
   1  -5  -3   40453    1376
   1  -5  -3   40354    1411
  -1   5   3   42222    1441
   1  -5  -4   25142     997
  -1   5   4   27868    1018
   1  -5  -5   13663     518
  -1   5   5   12678     513
   1  -5  -6    1658     222
  -1   5   6    1626     205
   1  -5  -7    8301     436
  -1   5   7    7798     440
   1  -5  -8    5106     344
  -1   5   8    5358     193
  -1   5   8    4471     326
   1  -5  -9    4860     376
  -1   5   9    4303     207
  -1   5   9    4613     355
   1  -5 -10    2630     330
  -1   5  10    2682     298
   1  -5 -11    2687     341
  -1   5  11    2155     307
   1  -5 -12      50     243
  -1   5  12     237     229
   1  -5 -13     358     259
  -1   5  13     134     231
   1  -5 -14      43     255
  -1   5  14      43     230
   1  -5 -15     513     289
  -1   5  15      27     262
   1  -5 -16     649     299
  -1   5  16       2     307
   0  -4  16     514     290
   0  -4  15       3     250
   0  -4  14     132     241
   0   4 -14      29     242
   0  -4  13      11     213
   0   4 -13      89     218
   0  -4  12    3500     368
   0   4 -12    3541     346
   0   4 -11      62     211
   0   4 -10    1964     270
   0   4  -9    2482     267
   0   4  -8   22664     855
   0   4  -7    7039     287
   0  -4   6      43     115
   0   4  -6     117     127
   0  -4   5     787     133
   0  -4   4   90317    3150
   0  -4   3    4739     147
   0  -4   2   18056     660
   0  -4   1   22770    1147
   0  -4   0     585     133
   0  -4   0     876     175
   0  -4  -1   22205    1102
   0  -4  -1   20804    1098
   0  -4  -2   17970     667
   0  -4  -2   17315     634
   0   4   2   17289     677
   0  -4  -3    4792     104
   0  -4  -3    4595     174
   0   4   3    4816     167
   0  -4  -4   83755    2967
   0  -4  -4   84216    2978
   0   4   4   84863    3014
   0  -4  -5     976     189
   0   4   5     902     162
   0  -4  -6     203     142
   0   4   6     298     142
   0  -4  -7    6008     316
   0   4   7    6405     300
   0  -4  -8   21887     871
   0   4   8   21554     865
   0  -4  -9    2582     303
   0   4   9    2507     275
   0  -4 -10    1744     292
   0   4  10    2059     277
   0  -4 -11      14     243
   0   4  11      14     217
   0  -4 -12    3561     380
   0   4  12    3162     337
   0  -4 -13     318     258
   0   4  13      10     223
   0  -4 -14      82     270
   0   4  14       9     261
   0  -4 -15     258     272
   0   4  15       3     240
   0  -4 -16     754     311
   0   4  16       0     295
  -1  -3  16      80     256
  -1  -3  15     157     242
  -1  -3  14      26     250
   1   3 -14      26     212
  -1  -3  13       8     233
   1   3 -13      86     220
  -1  -3  12    3238     371
   1   3 -12    3342     318
  -1  -3  11    1511     278
   1   3 -11    1906     258
  -1  -3  10    1953     293
   1   3 -10    1659     248
  -1  -3   9   12108     585
   1   3  -9   12350     526
   1   3  -8    5811     325
   1   3  -7    2454     200
   1   3  -6    1084     145
   1   3  -5    8469     334
  -1  -3   4   22517     864
  -1  -3   3   76839    2648
  -1  -3   3   77023    2546
  -1  -3   2   19098    1212
  -1  -3   2   18645    1155
  -1  -3   1   21867     605
  -1  -3   1   21853     634
  -1  -3   0     737     111
  -1  -3   0     651     116
  -1  -3  -1   16005     494
  -1  -3  -1   18134     499
  -1  -3  -2   18096    1147
  -1  -3  -2   18183    1145
   1   3   2   18732    1160
  -1  -3  -3   77239    2584
  -1  -3  -3   78927    2616
   1   3   3   75954    2621
  -1  -3  -4   20091     826
  -1  -3  -4   20091     789
   1   3   4   20789     820
  -1  -3  -5    8505     322
  -1  -3  -5    8142     369
   1   3   5    8787     372
  -1  -3  -6    1165     171
   1   3   6    1127     165
  -1  -3  -7    2432     246
   1   3   7    2367     220
  -1  -3  -8    4970     365
   1   3   8    5632     335
  -1  -3  -9   13293     612
   1   3   9   12190     585
  -1  -3 -10    1595     257
   1   3  10    2392     280
  -1  -3 -11    2048     324
   1   3  11    2009     293
  -1  -3 -12    3718     390
   1   3  12    3060     351
  -1  -3 -13       8     243
   1   3  13      72     233
  -1  -3 -14      27     244
   1   3  14      86     254
  -1  -3 -15     294     279
   1   3  15      74     267
  -1  -3 -16     243     300
  -2  -2  16     467     306
  -2  -2  15     229     257
  -2  -2  14     407     237
  -2  -2  14       5     243
  -2  -2  13     421     246
   2   2 -13     133     219
  -2  -2  12    2106     330
   2   2 -12    2191     296
  -2  -2  11       5     230
   2   2 -11      42     200
  -2  -2  10   14436     673
   2   2 -10   14419     609
  -2  -2   9    1086     246
   2   2  -9     905     195
  -2  -2   8     554     196
   2   2  -8     560     153
  -2  -2   7      97     150
   2   2  -7     439     122
  -2  -2   6      38     142
   2   2  -6      90     105
  -2  -2   5    1695     151
   2   2  -5    2208     116
  -2  -2   4    1111     138
  -2  -2   4    1386      88
  -2  -2   3   12634     697
  -2  -2   3   12559     638
  -2  -2   2   49424    1982
  -2  -2   2   49434    2071
  -2  -2   1    1686      96
  -2  -2   1    2425      63
  -2  -2   0     156     214
  -2  -2   0     164     233
  -2  -2  -1    2314      51
  -2  -2  -1    2314      65
  -2  -2  -2   50204    2053
  -2  -2  -2   49324    2011
   2   2   2   49199    2033
  -2  -2  -3   12362     663
  -2  -2  -3   12295     675
   2   2   3   12118     663
  -2  -2  -4    1241     130
  -2  -2  -4    1133     109
   2   2   4    1530     114
  -2  -2  -5    2174     168
  -2  -2  -5    2234     123
   2   2   5    1945     130
  -2  -2  -6       8     134
  -2  -2  -6      24     100
   2   2   6      31     118
  -2  -2  -7     459     178
   2   2   7     487     136
  -2  -2  -8     433     205
   2   2   8     611     166
  -2  -2  -9    1033     255
   2   2   9     843     203
  -2  -2 -10   14307     668
   2   2  10   13850     635
  -2  -2 -11      20     204
   2   2  11     179     202
  -2  -2 -12    1681     332
   2   2  12    2340     309
  -2  -2 -13       2     209
   2   2  13       2     213
  -2  -2 -14     704     274
   2   2  14     495     256
  -2  -2 -15      27     228
   2   2  15       5     255
  -2  -2 -16       1     272
  -3  -1  16       1     249
  -3  -1  15     588     280
  -3  -1  14       6     236
  -3  -1  13     100     224
  -3  -1  13     318     245
   3   1 -13     545     217
  -3  -1  12    2753     328
   3   1 -12    2399     280
  -3  -1  11    1992     292
   3   1 -11    1708     243
  -3  -1  10    1844     269
   3   1 -10    1955     234
  -3  -1   9   12414     576
   3   1  -9   12010     513
  -3  -1   8    5432     343
   3   1  -8    5552     296
  -3  -1   7    2816     242
   3   1  -7    2470     189
  -3  -1   6    1249     171
   3   1  -6    1165     124
  -3  -1   5    8897     399
   3   1  -5    9784     343
  -3  -1   4   20589     861
   3   1  -4   21620     787
  -3  -1   3   80220    2765
  -3  -1   3   81090    2639
  -3  -1   2   18112    1074
  -3  -1   2   18390    1162
  -3  -1   1   18901     575
  -3  -1   1   19325     520
  -3  -1   0     480      86
  -3  -1   0     560     131
  -3  -1  -1   20907     586
  -3  -1  -1   21455     618
  -3  -1  -2    9598     764
  -3  -1  -3   61071    2393
  -3  -1  -3   74507    2351
   3   1   3   74965    2359
  -3  -1  -4   21542     857
  -3  -1  -4   21896     859
   3   1   4   20653     830
  -3  -1  -5    9488     389
  -3  -1  -5    8909     367
   3   1   5    8481     349
  -3  -1  -6    1177     173
  -3  -1  -6    1081     150
   3   1   6    1014     139
  -3  -1  -7    2502     250
   3   1   7    2507     221
  -3  -1  -8    5750     354
   3   1   8    5068     314
  -3  -1  -9   12156     570
   3   1   9   12033     540
  -3  -1 -10    2164     306
   3   1  10    1551     235
  -3  -1 -11    1845     320
   3   1  11    2243     279
  -3  -1 -12    2416     349
   3   1  12    2182     293
  -3  -1 -13       7     245
   3   1  13     103     221
  -3  -1 -14      57     273
   3   1  14      25     221
  -3  -1 -15     286     297
  -3  -1 -16       1     278
  -4   0  16     520     313
  -4   0  15      90     263
  -4   0  14       8     243
  -4   0  13     170     241
  -4   0  13      39     238
  -4   0  12    3993     362
  -4   0  12    2920     346
   4   0 -12    3370     297
  -4   0  11      11     215
   4   0 -11      15     172
  -4   0  10    1861     266
   4   0 -10    1629     209
  -4   0   9    2239     269
   4   0  -9    2507     230
  -4   0   8   22519     870
   4   0  -8   21806     809
  -4   0   7    6469     289
   4   0  -7    6263     240
  -4   0   6      91     132
   4   0  -6     200      94
  -4   0   5    1089     169
   4   0  -5     789      98
  -4   0   4   86319    3119
   4   0  -4   87123    2982
  -4   0   3    5038     163
  -4   0   2   17232     656
  -4   0   1   21621    1068
  -4   0   1   21761    1148
  -4   0   0     412     188
  -4   0   0     364     123
  -4   0  -1   21921    1092
  -4   0  -1   21197    1139
  -4   0  -2   17832     654
  -4   0  -2   17788     683
  -4   0  -3    4462     157
  -4   0  -3    4790     163
   4   0   3    4814     108
  -4   0  -4   86734    3017
   4   0   4   85170    3019
  -4   0  -5     709     165
  -4   0  -5     446     123
   4   0   5     761     106
  -4   0  -6      59     132
  -4   0  -6     438     147
   4   0   6      64     100
  -4   0  -7    6638     293
  -4   0  -7    6313     302
   4   0   7    6526     262
  -4   0  -8   21898     864
   4   0   8   21528     822
  -4   0  -9    2342     284
   4   0   9    2402     230
  -4   0 -10    1739     270
   4   0  10    1866     231
  -4   0 -11      37     252
   4   0  11      21     184
  -4   0 -12    3481     387
   4   0  12    3815     330
  -4   0 -13       8     227
   4   0  13      11     209
  -4   0 -14      24     270
  -4   0 -15     115     285
  -4   0 -16     613     317
  -5   1  16     329     311
  -5   1  15     377     294
  -5   1  14      42     245
  -5   1  13     273     245
  -5   1  12     144     218
  -5   1  12     150     237
   5  -1 -12      64     177
  -5   1  11    2756     332
  -5   1  11    2899     315
   5  -1 -11    2788     267
  -5   1  10    2379     319
  -5   1  10    3108     308
   5  -1 -10    2894     251
  -5   1   9    4218     326
   5  -1  -9    4558     265
  -5   1   8    4748     306
   5  -1  -8    5092     248
  -5   1   7    8235     418
   5  -1  -7    7474     349
  -5   1   6    1586     196
   5  -1  -6    1808     144
  -5   1   5   13723     507
   5  -1  -5   13348     438
  -5   1   4   25682    1014
   5  -1  -4   27922     932
  -5   1   3   40602    1450
   5  -1  -3   41793    1352
  -5   1   2   16730     643
   5  -1  -2   15532     566
  -5   1   1   22398     972
   5  -1  -1   24201     899
  -5   1   0     222      91
  -5   1   0     160     156
  -5   1  -1   23888     934
  -5   1  -1   24421     989
  -5   1  -2   15426     618
  -5   1  -2   16056     584
  -5   1  -3   43368    1462
  -5   1  -3   41423    1505
  -5   1  -4   28775    1017
  -5   1  -4   27842    1044
   5  -1   4   25521     961
  -5   1  -5   12191     508
  -5   1  -5   13215     504
   5  -1   5   13397     433
  -5   1  -6    1855     201
  -5   1  -6    1823     207
   5  -1   6    1516     136
  -5   1  -7    7287     426
   5  -1   7    8666     381
  -5   1  -8    5163     323
   5  -1   8    5158     272
  -5   1  -9    4853     348
   5  -1   9    4499     294
  -5   1 -10    2759     343
   5  -1  10    2657     263
  -5   1 -11    2833     333
   5  -1  11    2672     281
  -5   1 -12     102     263
   5  -1  12       5     185
  -5   1 -13     136     272
  -5   1 -14     165     294
  -5   1 -15     496     305
  -5   1 -16     464     310
  -6   2  15      24     266
  -6   2  14       4     251
  -6   2  13     161     249
  -6   2  12     261     251
  -6   2  12      14     205
  -6   2  11     898     287
  -6   2  11     835     254
   6  -2 -11    1016     219
  -6   2  10    1419     245
  -6   2  10    1139     268
   6  -2 -10    1636     210
  -6   2   9    4196     323
  -6   2   9    3086     313
   6  -2  -9    4172     260
  -6   2   8     279     176
  -6   2   8     271     191
   6  -2  -8     188     130
  -6   2   7    1260     198
   6  -2  -7    1640     153
  -6   2   6   14267     552
   6  -2  -6   13966     490
  -6   2   5     895     175
   6  -2  -5    1154     111
  -6   2   4    1258     165
   6  -2  -4    1561     104
  -6   2   3   25986     906
   6  -2  -3   26928     831
  -6   2   2   17096     708
   6  -2  -2   18523     650
  -6   2   1    2834     233
   6  -2  -1    2536     164
  -6   2   0    1956     202
  -6   2   0    1954     137
  -6   2   0    1770     138
  -6   2  -1    2613     236
  -6   2  -1    2576     141
  -6   2  -1    2417     177
  -6   2  -2   17762     733
  -6   2  -2   18684     700
  -6   2  -3   26039     921
  -6   2  -3   27513     887
  -6   2  -4    1641     168
  -6   2  -4    1686     195
  -6   2  -5     968     186
  -6   2  -5    1116     187
   6  -2   5     886      84
  -6   2  -6   14108     586
  -6   2  -6   13918     569
   6  -2   6   14174     493
  -6   2  -7    1304     209
  -6   2  -7    1207     207
   6  -2   7    1560     137
  -6   2  -8     121     211
   6  -2   8     189     119
  -6   2  -9    4156     375
   6  -2   9    3639     268
  -6   2 -10    1744     309
   6  -2  10    1201     192
  -6   2 -11     696     300
   6  -2  11     871     220
  -6   2 -12      21     260
  -6   2 -13     114     234
  -6   2 -14     375     300
  -6   2 -15     327     301
  -7   3  15      10     267
  -7   3  14     303     271
  -7   3  13     775     255
  -7   3  12      96     245
  -7   3  11     606     239
  -7   3  11     125     244
   7  -3 -11     292     171
  -7   3  10    1359     260
  -7   3  10    1147     262
   7  -3 -10    1037     196
  -7   3   9     312     212
  -7   3   9     514     232
   7  -3  -9     710     161
  -7   3   8     954     228
  -7   3   8    1026     211
   7  -3  -8     909     152
  -7   3   7    2370     242
  -7   3   7    2129     260
   7  -3  -7    2072     189
  -7   3   6    2382     229
  -7   3   6    2334     228
   7  -3  -6    2660     178
  -7   3   5   13320     584
  -7   3   5   13007     558
   7  -3  -5   13093     499
  -7   3   4     276     153
  -7   3   4     287     166
   7  -3  -4     244     107
  -7   3   3    3797     250
  -7   3   3    3183     263
   7  -3  -3    3823     215
  -7   3   2      84     120
  -7   3   2     200     145
   7  -3  -2     126     106
  -7   3   1   18344     777
   7  -3  -1   19931     724
  -7   3   0    4179     361
  -7   3   0    4684     303
   7  -3   0    4617     306
  -7   3  -1   20522     749
  -7   3  -1   20048     769
  -7   3  -1   19771     819
  -7   3  -2     298     126
  -7   3  -2     105      67
  -7   3  -2      22     151
  -7   3  -3    3840     289
  -7   3  -3    3805     256
  -7   3  -4     190     138
  -7   3  -4     194     153
  -7   3  -5   13108     593
  -7   3  -5   12748     570
   7  -3   5   13140     465
  -7   3  -6    2700     250
  -7   3  -6    2699     264
   7  -3   6    2387     143
  -7   3  -7    1982     255
  -7   3  -7    1870     262
   7  -3   7    1961     161
  -7   3  -8     485     239
   7  -3   8    1023     141
  -7   3  -9     674     236
   7  -3   9     270     142
  -7   3 -10     592     258
   7  -3  10    1277     195
  -7   3 -11       4     266
  -7   3 -12       6     259
  -7   3 -13    1465     328
  -7   3 -14     154     290
  -7   3 -15      10     250
  -8   4  15      39     278
  -8   4  14     883     320
  -8   4  13       0     258
  -8   4  12    1472     313
  -8   4  11     244     220
  -8   4  11     463     258
  -8   4  10       1     235
  -8   4  10      63     201
   8  -4 -10     204     165
  -8   4   9     652     257
  -8   4   9     626     230
   8  -4  -9     804     179
  -8   4   8    3597     340
  -8   4   8    3763     308
   8  -4  -8    3148     240
  -8   4   7    5068     316
  -8   4   7    4899     340
   8  -4  -7    4996     251
  -8   4   6   11034     514
  -8   4   6   10589     531
   8  -4  -6   11277     459
  -8   4   5    4463     322
  -8   4   5    4818     290
   8  -4  -5    4958     247
  -8   4   4   10084     472
  -8   4   4   10215     457
   8  -4  -4    9731     413
  -8   4   3      13     146
  -8   4   3      44     124
   8  -4  -3      34     120
  -8   4   2    1841     212
  -8   4   2    1638     185
   8  -4  -2    1982     187
  -8   4   1       2     105
  -8   4   1     200     139
   8  -4  -1      93     109
  -8   4   0   66914    2131
  -8   4   0   67993    2194
  -8   4  -1     115      92
  -8   4  -1       3     138
   8  -4   1     137     110
  -8   4  -2    1632     147
  -8   4  -2    1887     198
  -8   4  -2    2192     242
  -8   4  -3      41     164
  -8   4  -3      58     145
  -8   4  -4    9765     459
  -8   4  -4   10402     508
  -8   4  -5    5030     311
  -8   4  -5    4897     326
  -8   4  -6   11017     531
  -8   4  -6   11372     568
  -8   4  -7    4553     338
  -8   4  -7    4737     322
   8  -4   7    4756     199
  -8   4  -8    3878     355
  -8   4  -8    3844     361
   8  -4   8    3405     222
  -8   4  -9     624     247
   8  -4   9     516     150
  -8   4 -10       1     250
  -8   4 -11       0     258
  -8   4 -12    1173     288
  -8   4 -13       0     269
  -8   4 -14     836     342
  -8   4 -15      40     308
  -9   5  15      14     292
  -9   5  14     474     264
  -9   5  13    1268     336
  -9   5  12     175     252
  -9   5  11     148     256
  -9   5  10     344     225
  -9   5  10       0     248
   9  -5 -10     467     184
  -9   5   9     767     235
  -9   5   9     399     225
   9  -5  -9     555     182
  -9   5   8     420     243
  -9   5   8     348     214
   9  -5  -8     788     173
  -9   5   7   12945     578
  -9   5   7   11571     594
   9  -5  -7   11908     515
  -9   5   6   10943     493
  -9   5   6   11032     538
   9  -5  -6   10463     447
  -9   5   5    9187     425
  -9   5   5    9200     450
   9  -5  -5    8970     379
  -9   5   4    3275     278
  -9   5   4    2630     255
   9  -5  -4    2604     235
  -9   5   3    2011     227
  -9   5   3    2156     240
   9  -5  -3    2685     246
  -9   5   2    6729     334
  -9   5   2    5800     337
   9  -5  -2    6946     319
  -9   5   1   20473     862
  -9   5   1   20609     899
   9  -5  -1   20213     848
  -9   5   0    6726     301
  -9   5   0    6230     338
  -9   5  -1   20112     840
  -9   5  -1   20078     911
   9  -5   1   19855     855
  -9   5  -2    6831     358
  -9   5  -2    6510     286
   9  -5   2    6645     330
  -9   5  -3    2684     259
  -9   5  -3    2594     270
  -9   5  -4    3146     293
  -9   5  -4    3102     289
  -9   5  -5    9250     438
  -9   5  -5    9429     491
  -9   5  -6   10085     542
  -9   5  -6   10309     513
  -9   5  -7   13165     650
  -9   5  -7   12035     597
  -9   5  -8     310     245
  -9   5  -8     539     270
   9  -5   8     619     116
  -9   5  -9     449     247
  -9   5 -10     410     255
  -9   5 -11     916     305
  -9   5 -12       9     275
  -9   5 -13    1414     358
  -9   5 -14     487     277
  -9   5 -15     204     281
 -10   6  14     108     293
 -10   6  13    1031     331
 -10   6  12     664     296
 -10   6  11     178     266
 -10   6  10       0     207
 -10   6  10       0     240
 -10   6   9     538     233
 -10   6   9     412     265
  10  -6  -9     543     185
 -10   6   8     990     254
 -10   6   8     678     246
  10  -6  -8     964     204
 -10   6   7   10179     501
 -10   6   7   10223     550
  10  -6  -7   10276     448
 -10   6   6    4393     383
 -10   6   6    4483     354
  10  -6  -6    4608     306
 -10   6   5   10515     521
 -10   6   5    9399     478
  10  -6  -5   10150     453
 -10   6   4     897     198
 -10   6   4     722     193
  10  -6  -4     854     194
 -10   6   3    4384     324
 -10   6   3    4255     303
  10  -6  -3    4301     300
 -10   6   2     410     171
 -10   6   2     157     150
  10  -6  -2     260     164
 -10   6   1   15697     605
 -10   6   1   14647     629
  10  -6  -1   15259     596
 -10   6   0   10149     363
 -10   6   0    9243     404
  10  -6   0    8337     342
 -10   6  -1   15402     663
 -10   6  -1   15635     599
  10  -6   1   15865     621
 -10   6  -2     224     188
 -10   6  -2     268     125
  10  -6   2     569     148
 -10   6  -3    4356     351
  10  -6   3    4594     296
 -10   6  -4     881     181
 -10   6  -4     859     233
 -10   6  -5   10013     523
 -10   6  -5   10035     488
 -10   6  -6    4620     412
 -10   6  -6    3961     348
 -10   6  -7   10081     557
 -10   6  -7    9371     505
 -10   6  -8     664     288
 -10   6  -8    1107     309
 -10   6  -9     603     291
 -10   6 -10       1     212
 -10   6 -11     466     262
 -10   6 -12     607     316
 -10   6 -13     711     339
 -10   6 -14      21     306
 -11   7  14     181     305
 -11   7  13       1     282
 -11   7  12     786     311
 -11   7  11     262     263
 -11   7  10    1664     299
 -11   7   9      48     254
 -11   7   9      16     209
 -11   7   8     860     279
 -11   7   8    1045     240
  11  -7  -8     942     206
 -11   7   7     498     224
 -11   7   7     496     255
  11  -7  -7     839     196
 -11   7   6    2743     288
 -11   7   6    2579     293
  11  -7  -6    2891     265
 -11   7   5     111     194
 -11   7   5     317     209
  11  -7  -5     321     189
 -11   7   4     818     207
 -11   7   4     929     224
  11  -7  -4     922     217
 -11   7   3     396     207
 -11   7   3     653     198
  11  -7  -3     455     205
 -11   7   2    3810     283
 -11   7   2    3683     267
  11  -7  -2    3771     285
 -11   7   1     848     183
 -11   7   1     615     199
  11  -7  -1     551     144
 -11   7   0   22834     908
 -11   7   0   22799     857
  11  -7   0   22205     856
 -11   7  -1     823     167
 -11   7  -1     851     189
  11  -7   1     745     187
 -11   7  -2    3665     250
 -11   7  -2    3333     288
  11  -7   2    4028     290
 -11   7  -3     360     222
  11  -7   3     308     190
 -11   7  -4     717     231
  11  -7   4    1041     237
 -11   7  -5      50     193
 -11   7  -5     379     222
  11  -7   5     534     188
 -11   7  -6    2429     346
 -11   7  -6    2157     282
 -11   7  -7     488     281
 -11   7  -7     729     243
 -11   7  -8     374     244
 -11   7  -8     400     293
 -11   7  -9      36     283
 -11   7 -10    2059     359
 -11   7 -11      67     283
 -11   7 -12    1423     363
 -11   7 -13       1     251
 -11   7 -14     301     283
 -12   8  14     138     304
 -12   8  13     216     297
 -12   8  12       1     229
 -12   8  11     185     261
 -12   8  10    1015     302
 -12   8   9    2661     367
 -12   8   8     436     264
 -12   8   8     841     238
  12  -8  -8     752     224
 -12   8   7    2171     278
 -12   8   7    2138     321
  12  -8  -7    2163     268
 -12   8   6    1251     252
 -12   8   6    1107     272
  12  -8  -6    1187     242
 -12   8   5    1058     261
 -12   8   5    1561     267
  12  -8  -5     867     252
 -12   8   4    2667     269
 -12   8   4    2679     280
  12  -8  -4    2560     296
 -12   8   3    3012     281
 -12   8   3    3348     296
  12  -8  -3    3492     319
 -12   8   2    6532     359
 -12   8   2    6193     377
  12  -8  -2    6280     376
 -12   8   1    7335     420
 -12   8   1    7193     397
 -12   8   0      21     178
 -12   8   0      75     202
  12  -8   0     104     200
 -12   8  -1    6522     366
 -12   8  -1    6764     395
  12  -8   1    7848     395
 -12   8  -2    7025     430
 -12   8  -2    6050     342
  12  -8   2    6267     362
 -12   8  -3    2981     336
  12  -8   3    3940     321
 -12   8  -4    2284     316
  12  -8   4    2549     302
 -12   8  -5    1079     274
  12  -8   5    1414     266
 -12   8  -6    1166     286
  12  -8   6    1191     290
 -12   8  -7    2531     336
 -12   8  -7    2330     329
  12  -8   7    2318     308
 -12   8  -8     534     263
 -12   8  -8     874     265
 -12   8  -9    2640     342
 -12   8 -10     888     276
 -12   8 -11      25     286
 -12   8 -12     273     313
 -12   8 -13     246     280
 -12   8 -14     628     353
 -13   9  13       7     279
 -13   9  12      14     243
 -13   9  11     667     311
 -13   9  10       5     261
 -13   9   9    2637     363
 -13   9   8      92     261
 -13   9   8     322     224
  13  -9  -8       7     219
 -13   9   7     688     277
 -13   9   7     263     229
  13  -9  -7     223     224
 -13   9   6    5876     459
 -13   9   6    6547     414
  13  -9  -6    5701     412
 -13   9   5    2293     304
 -13   9   5    2095     282
  13  -9  -5    1863     298
 -13   9   4    1001     264
 -13   9   4     671     228
  13  -9  -4     715     280
 -13   9   3   10982     557
 -13   9   3    9783     541
  13  -9  -3    9769     543
 -13   9   2    3985     356
 -13   9   2    3861     324
  13  -9  -2    4618     374
 -13   9   1    1190     261
 -13   9   1    1487     247
  13  -9  -1    1794     254
 -13   9   0     735     217
 -13   9   0     196     224
  13  -9   0     624     224
 -13   9  -1    1725     294
 -13   9  -1    1560     253
  13  -9   1    1544     280
 -13   9  -2    3970     312
 -13   9  -2    4082     384
  13  -9   2    4172     361
 -13   9  -3    9482     562
  13  -9   3   10893     572
 -13   9  -4     596     297
  13  -9   4    1035     273
 -13   9  -5    1853     319
  13  -9   5    2210     298
 -13   9  -6    6470     522
  13  -9   6    7018     489
 -13   9  -7     171     288
  13  -9   7      90     228
 -13   9  -8      17     266
  13  -9   8      77     267
  13  -9   9    3010     394
 -13   9 -10      75     251
  13  -9  10     240     233
 -13   9 -11     604     323
  13  -9  11     613     313
 -13   9 -12     186     264
  13  -9  12     641     283
 -13   9 -13       7     307
  13  -9  13      77     306
 -14  10  13     190     320
 -14  10  12     137     297
 -14  10  11     551     314
 -14  10  10     511     302
 -14  10   9     412     283
 -14  10   8     290     268
 -14  10   7    1132     250
 -14  10   7    1204     290
  14 -10  -7    1238     277
 -14  10   6     345     269
 -14  10   6     318     229
  14 -10  -6     159     246
 -14  10   5    3165     332
 -14  10   5    2948     349
  14 -10  -5    2946     362
 -14  10   4    3939     362
 -14  10   4    3441     355
  14 -10  -4    3131     380
 -14  10   3    3343     367
 -14  10   3    3332     364
  14 -10  -3    3601     398
 -14  10   2    1295     227
 -14  10   2    1784     285
  14 -10  -2     736     222
 -14  10   1    4864     395
 -14  10   1    4571     413
  14 -10  -1    4870     413
 -14  10   0     118     219
 -14  10   0       2     219
  14 -10   0       2     192
 -14  10  -1    4286     388
 -14  10  -1    4180     422
  14 -10   1    4701     411
 -14  10  -2    2367     342
  14 -10   2    2011     311
 -14  10  -3    3207     389
  14 -10   3    3200     338
 -14  10  -4    3561     407
  14 -10   4    3734     376
 -14  10  -5    3044     411
  14 -10   5    3275     374
 -14  10  -6     618     311
  14 -10   6     466     243
 -14  10  -7    1138     339
  14 -10   7    1074     306
 -14  10  -8     923     319
  14 -10   8     727     272
  14 -10   9     669     308
  14 -10  10     772     285
  14 -10  11     508     286
  14 -10  12      11     299
  14 -10  13     639     353
 -15  11  12       5     289
 -15  11  11     112     298
 -15  11  10     468     296
 -15  11   9     541     294
 -15  11   8     651     297
 -15  11   7      12     254
 -15  11   7     471     228
  15 -11  -7      12     226
 -15  11   6       8     248
 -15  11   6      28     216
  15 -11  -6       8     236
 -15  11   5     121     239
 -15  11   5     159     259
  15 -11  -5     122     274
 -15  11   4    3022     370
 -15  11   4    3455     354
  15 -11  -4    2671     394
 -15  11   3    1456     302
 -15  11   3    1344     286
  15 -11  -3    1764     332
 -15  11   2      18     162
 -15  11   2      18     223
  15 -11  -2      18      72
 -15  11   1     181     248
 -15  11   1     330     267
  15 -11  -1     585     273
 -15  11   0    2060     318
 -15  11   0    2501     358
  15 -11   0    2093     340
 -15  11  -1     305     269
 -15  11  -1     145     233
  15 -11   1     986     283
 -15  11  -2     235     244
  15 -11   2     174     270
 -15  11  -3    1013     317
  15 -11   3    1247     272
 -15  11  -4    3164     391
  15 -11   4    3618     401
 -15  11  -5      41     284
  15 -11   5       1     225
 -15  11  -6       7     274
  15 -11   6     189     276
 -15  11  -7      11     243
  15 -11   7     472     286
  15 -11   8     533     263
  15 -11   9     918     320
  15 -11  10     563     290
  15 -11  11      23     296
  15 -11  12       5     265
 -16  12  11     589     326
 -16  12  10     231     311
 -16  12   9     620     318
 -16  12   8     170     288
 -16  12   7      59     301
 -16  12   6     111     232
 -16  12   6      49     291
  16 -12  -6      53     266
 -16  12   5     134     263
 -16  12   5       3     231
  16 -12  -5     397     294
 -16  12   4     279     229
 -16  12   4     246     260
  16 -12  -4     102     275
 -16  12   3     641     304
 -16  12   3    1098     302
  16 -12  -3    1165     359
 -16  12   2    1062     283
 -16  12   2     417     176
  16 -12  -2    1021     282
 -16  12   1       2     262
 -16  12   1       2     254
  16 -12  -1      39     280
 -16  12   0       8     241
 -16  12   0     339     284
  16 -12   0     712     290
 -16  12  -1     328     272
 -16  12  -1     347     276
  16 -12   1     221     274
 -16  12  -2     670     306
  16 -12   2    1182     319
 -16  12  -3     752     314
  16 -12   3    1014     312
 -16  12  -4     299     297
  16 -12   4     244     233
 -16  12  -5     406     260
  16 -12   5     498     282
 -16  12  -6      20     283
  16 -12   6      22     282
 -16  12  -7     301     307
  16 -12   7      79     286
  16 -12   8     263     301
  16 -12   9     630     289
  16 -12  10     285     303
  16 -12  11      10     247
 -17  13  10     620     346
 -17  13   9     105     317
 -17  13   8       1     297
 -17  13   7     394     322
 -17  13   6      22     276
 -17  13   6     148     232
  17 -13  -6      22     278
 -17  13   5     360     280
 -17  13   5     933     262
  17 -13  -5     210     275
 -17  13   4     449     259
 -17  13   4      10     271
  17 -13  -4     518     332
 -17  13   3     418     276
 -17  13   3     522     306
  17 -13  -3     247     244
 -17  13   2    1310     304
  17 -13  -2    1387     340
 -17  13   1    1193     308
 -17  13   1    1339     307
  17 -13  -1    1432     349
 -17  13   0       1     259
 -17  13   0     152     278
  17 -13   0     465     291
 -17  13  -1     848     296
 -17  13  -1    1150     312
  17 -13   1     805     312
 -17  13  -2    1829     348
  17 -13   2    1285     330
 -17  13  -3     249     252
  17 -13   3     573     299
 -17  13  -4     108     285
  17 -13   4     133     287
 -17  13  -5     165     285
  17 -13   5      44     276
 -17  13  -6      22     286
  17 -13   6     190     256
 -17  13  -7     718     344
  17 -13   7     473     280
  17 -13   8      69     269
  17 -13   9      72     322
  17 -13  10    1194     350
 -18  14   9     603     360
 -18  14   8      92     322
 -18  14   7     116     307
 -18  14   6     472     318
 -18  14   5     525     272
 -18  14   5       3     289
  18 -14  -5     420     313
 -18  14   4      29     257
 -18  14   4      45     288
  18 -14  -4      36     324
 -18  14   3    2452     332
 -18  14   3    2046     372
 -18  14   2       0      68
 -18  14   2     142     251
  18 -14  -2     208     309
 -18  14   1     624     276
 -18  14   1     516     288
  18 -14  -1      60     332
 -18  14   0    1533     319
 -18  14   0     980     305
  18 -14   0    1001     330
 -18  14  -1     575     290
  18 -14   1     173     241
 -18  14  -2      33     273
  18 -14   2       0     287
 -18  14  -3    2156     372
  18 -14   3    2643     380
 -18  14  -4      70     311
  18 -14   4      37     276
 -18  14  -5     315     271
  18 -14   5     408     331
 -18  14  -6     878     351
  18 -14   6     517     335
  18 -14   7      11     299
  18 -14   8      30     314
  18 -14   9     883     339
 -19  15   8     144     359
 -19  15   7      18     315
 -19  15   6     685     359
 -19  15   5       0     301
 -19  15   5     373     263
 -19  15   4    1255     354
 -19  15   4     724     286
  19 -15  -4     420     331
 -19  15   3     241     296
 -19  15   3     527     295
  19 -15  -3      17     141
 -19  15   2     351     273
 -19  15   2       5     168
  19 -15  -2     417     374
 -19  15   1     200     269
 -19  15   1     374     309
  19 -15  -1     421     344
 -19  15   0     292     279
  19 -15   0       6     325
 -19  15  -1     134     282
  19 -15   1     621     334
 -19  15  -2      20     287
  19 -15   2     239     273
 -19  15  -3     385     312
  19 -15   3     530     337
 -19  15  -4     429     320
  19 -15   4     793     347
 -19  15  -5      60     314
  19 -15   5      83     314
 -19  15  -6       8     262
  19 -15   6       8     305
  19 -15   7     618     350
  19 -15   8      58     325
 -20  16   7      26     348
 -20  16   6     415     343
 -20  16   5     239     322
 -20  16   4     331     336
 -20  16   4      57     276
  20 -16  -4     260     359
 -20  16   3     417     291
 -20  16   3     531     335
  20 -16  -3      14     265
 -20  16   2      74     267
 -20  16   2     150     285
  20 -16  -2      72     339
 -20  16   1      24     258
  20 -16  -1      10     316
 -20  16   0     281     292
  20 -16   0     615     366
 -20  16  -1       9     282
  20 -16   1      22     330
 -20  16  -2     279     306
  20 -16   2     170     327
 -20  16  -3      12     298
  20 -16   3     146     280
 -20  16  -4     194     309
  20 -16   4      64     327
 -20  16  -5      84     310
  20 -16   5       2     312
  20 -16   6      34     335
  20 -16   7      36     344
 -21  17   5       1     343
 -21  17   4     123     345
 -21  17   3       6     279
 -21  17   3       6     335
  21 -17  -3       6     359
 -21  17   2      61     289
  21 -17  -2       0     337
 -21  17   1     869     308
  21 -17  -1     100     343
 -21  17   0       6     279
  21 -17   0       6     345
 -21  17  -1      32     295
  21 -17   1     564     365
 -21  17  -2       0     299
  21 -17   2      20     345
 -21  17  -3       5     263
  21 -17   3       5     320
 -21  17  -4      18     317
  21 -17   4      29     311
 -21  17  -5      48     280
  21 -17   5      38     349
 -22  18   1     337     340
 -22  18   0     315     308
  22 -18   0       1     355
 -22  18  -1     358     345
  17 -22   3      12     326
  17 -22   2     807     429
  17 -22   1      14     316
  17 -22   0     193     337
  17 -22  -1      13     396
  17 -22  -2     221     399
  17 -22  -3      11     363
  16 -21   5     241     407
  16 -21   4      27     392
  16 -21   3      16     365
  16 -21   2      75     333
  16 -21   1      43     374
  16 -21   0       1     298
  16 -21  -1     946     414
  16 -21  -2     354     352
  16 -21  -3      74     363
  16 -21  -4      36     377
  16 -21  -5      12     369
 -16  21   5      23     336
  15 -20   7      15     342
  15 -20   6     696     402
  15 -20   5       6     366
  15 -20   4     140     385
  15 -20   3    1094     416
  15 -20   2      82     379
  15 -20   1      37     337
  15 -20   0     405     387
  15 -20  -1      33     351
  15 -20  -2      91     376
  15 -20  -3    1023     414
  15 -20  -4       5     335
 -15  20   4       5     334
  15 -20  -5       5     355
 -15  20   5     108     336
  15 -20  -6     583     389
 -15  20   6     575     372
  15 -20  -7     206     315
 -15  20   7      15     351
  14 -19   8      20     351
  14 -19   7     653     370
  14 -19   6     305     320
  14 -19   5     284     364
  14 -19   4     655     382
  14 -19   3     776     350
  14 -19   2     483     317
  14 -19   1     752     399
  14 -19   0     617     388
  14 -19  -1     361     324
  14 -19  -2     468     388
  14 -19  -3     539     384
 -14  19   3    1302     391
  14 -19  -4     890     337
 -14  19   4     982     361
  14 -19  -5     662     385
 -14  19   5     604     352
  14 -19  -6     750     338
 -14  19   6       2     338
  14 -19  -7     869     391
 -14  19   7      32     329
  14 -19  -8     372     344
 -14  19   8     221     337
 -14  19   9       4     344
  13 -18  10     141     360
  13 -18   9     592     370
  13 -18   8     468     358
  13 -18   7     195     300
  13 -18   6     242     283
  13 -18   5     246     352
  13 -18   4    1636     368
  13 -18   3     878     379
  13 -18   2    1037     334
  13 -18   1      14     285
  13 -18   0    1050     356
  13 -18  -1      24     297
  13 -18  -2    1102     349
  13 -18  -3     528     367
 -13  18   3     705     339
  13 -18  -4     891     334
 -13  18   4     551     297
  13 -18  -5      16     335
 -13  18   5      92     322
  13 -18  -6       4     350
 -13  18   6     493     312
  13 -18  -7     270     342
 -13  18   7     146     295
  13 -18  -8     200     339
 -13  18   8     355     347
  13 -18  -9       6     316
 -13  18   9      19     328
  13 -18 -10     280     330
 -13  18  10     773     368
  12 -17  11       6     289
  12 -17  10       6     284
  12 -17   9     447     353
  12 -17   8     393     339
  12 -17   7    1093     366
  12 -17   6       0     311
  12 -17   5       8     312
  12 -17   4     119     274
  12 -17   3    2043     384
  12 -17   2      89     292
  12 -17   1    1068     351
  12 -17   0    1305     346
  12 -17  -1     918     336
  12 -17  -2      20     351
  12 -17  -3    1793     414
 -12  17   3    1403     374
  12 -17  -4       5     322
 -12  17   4       7     301
  12 -17  -5     255     338
 -12  17   5       8     308
  12 -17  -6      71     339
 -12  17   6     156     325
  12 -17  -7     289     321
 -12  17   7     589     338
  12 -17  -8       2     267
 -12  17   8     120     324
  12 -17  -9     978     356
 -12  17   9     672     352
  12 -17 -10      85     297
 -12  17  10       6     314
  12 -17 -11     452     333
 -12  17  11     341     373
  11 -16  11       1     287
  11 -16  10    1002     370
  11 -16   9      63     274
  11 -16   8      13     260
  11 -16   7     222     272
  11 -16   6       0     310
  11 -16   5      18     298
  11 -16   4     948     356
  11 -16   3     303     301
  11 -16   2    1654     363
  11 -16   1     601     362
  11 -16   0     445     367
  11 -16  -1      22     343
  11 -16  -2    1665     408
 -11  16   2    1086     362
  11 -16  -3     762     372
 -11  16   3      89     306
  11 -16  -4    1144     329
 -11  16   4     596     338
  11 -16  -5     663     345
 -11  16   5      55     306
  11 -16  -6     176     320
 -11  16   6     584     323
  11 -16  -7       7     302
 -11  16   7       7     289
  11 -16  -8      27     259
 -11  16   8      13     248
  11 -16  -9       5     308
 -11  16   9     346     315
  11 -16 -10     504     318
 -11  16  10     373     344
  11 -16 -11      81     281
 -11  16  11      74     333
  10 -15  12     276     334
  10 -15  11     267     327
  10 -15  10       3     307
  10 -15   9    1291     328
  10 -15   8     141     305
  10 -15   7     642     321
  10 -15   6     181     263
  10 -15   5    1030     349
  10 -15   4      60     303
  10 -15   3    5027     495
  10 -15   2       2     278
  10 -15   1    1056     309
  10 -15   0    5755     530
  10 -15  -1     566     300
  10 -15  -2      87     346
 -10  15   2     389     310
  10 -15  -3    4636     500
 -10  15   3    5785     511
  10 -15  -4     126     331
 -10  15   4     306     331
  10 -15  -5    1862     390
 -10  15   5    1527     370
  10 -15  -6     457     325
 -10  15   6     408     309
  10 -15  -7     271     264
 -10  15   7       0     275
  10 -15  -8     482     306
 -10  15   8      62     302
  10 -15  -9    1164     323
 -10  15   9     877     348
  10 -15 -10       3     278
 -10  15  10     532     339
  10 -15 -11     758     319
 -10  15  11     380     337
  10 -15 -12       1     273
 -10  15  12     123     339
   9 -14  13       3     295
   9 -14  12     309     319
   9 -14  11     192     305
   9 -14  10    1069     349
   9 -14   9     380     295
   9 -14   8    1194     351
   9 -14   7     773     289
   9 -14   6    1446     343
   9 -14   5     320     307
   9 -14   4    5459     449
   9 -14   3    2769     359
   9 -14   2    6657     488
   9 -14   1    1384     289
   9 -14   0    2910     377
   9 -14  -1     899     286
   9 -14  -2    5848     494
  -9  14   2    6393     522
   9 -14  -3    3201     425
  -9  14   3    2955     386
   9 -14  -4    6001     472
  -9  14   4    4946     452
   9 -14  -5     988     349
  -9  14   5     130     301
   9 -14  -6    1750     392
  -9  14   6    1566     357
   9 -14  -7     383     322
  -9  14   7     514     284
   9 -14  -8    1195     352
  -9  14   8    1098     351
   9 -14  -9     286     289
  -9  14   9     358     303
   9 -14 -10    1578     356
  -9  14  10     900     359
   9 -14 -11      10     272
  -9  14  11     282     329
   9 -14 -12     666     321
  -9  14  12     406     351
   9 -14 -13     590     305
  -9  14  13     276     350
   8 -13  13     219     300
   8 -13  12       2     285
   8 -13  11     249     299
   8 -13  10     797     294
   8 -13   9     457     286
   8 -13   8    1014     312
   8 -13   7    1912     324
   8 -13   6    1108     287
   8 -13   5    3002     360
   8 -13   4    5181     431
   8 -13   3    3063     368
   8 -13   2    2698     382
   8 -13   1    3411     371
   8 -13   0     594     265
   8 -13  -1    3139     390
   8 -13  -2    2160     340
  -8  13   2    2853     366
   8 -13  -3    2462     358
  -8  13   3    2594     376
   8 -13  -4    5077     479
  -8  13   4    4655     455
   8 -13  -5    3226     389
  -8  13   5    3313     390
   8 -13  -6     357     264
  -8  13   6     730     309
   8 -13  -7    2267     382
  -8  13   7    1848     363
   8 -13  -8     371     310
  -8  13   8    1162     326
   8 -13  -9     392     286
  -8  13   9       8     285
   8 -13 -10     510     291
  -8  13  10     800     290
   8 -13 -11     594     263
  -8  13  11     425     330
   8 -13 -12     136     279
  -8  13  12       1     303
   8 -13 -13     543     304
  -8  13  13       3     312
   7 -12  14       1     275
   7 -12  13     157     296
   7 -12  12     336     299
   7 -12  11     158     227
   7 -12  10     442     270
   7 -12   9    1566     287
   7 -12   8     373     282
   7 -12   7     699     258
   7 -12   6    1937     337
   7 -12   5    1925     297
   7 -12   4     266     227
   7 -12   3    7502     483
   7 -12   2      15     208
   7 -12   1    5329     422
   7 -12   0    3775     339
   7 -12  -1    6119     452
   7 -12  -2      87     229
  -7  12   2      21     199
   7 -12  -3    7464     491
  -7  12   3    6582     495
   7 -12  -4     374     283
  -7  12   4     656     281
   7 -12  -5    1443     339
  -7  12   5    1054     262
   7 -12  -6    2021     359
  -7  12   6    2032     351
   7 -12  -7     515     303
  -7  12   7     428     304
   7 -12  -8     504     316
  -7  12   8     235     297
   7 -12  -9    2019     348
  -7  12   9    1861     323
   7 -12 -10     235     264
  -7  12  10      11     284
   7 -12 -11      10     261
  -7  12  11      10     278
   7 -12 -12     506     299
  -7  12  12     372     315
   7 -12 -13     673     295
  -7  12  13       9     306
   7 -12 -14     266     292
  -7  12  14       1     308
   6 -11  14      96     311
   6 -11  13     698     321
   6 -11  12      10     261
   6 -11  11      20     259
   6 -11  10       2     242
   6 -11   9     117     257
   6 -11   8     542     263
   6 -11   7    6578     430
   6 -11   6    3117     326
   6 -11   5    3686     358
   6 -11   4     645     250
   6 -11   3     424     222
   6 -11   2    2418     312
   6 -11   1    8784     529
   6 -11   0    1902     329
   6 -11  -1    8765     507
   6 -11  -2    1915     305
  -6  11   2    2285     293
   6 -11  -3      79     190
  -6  11   3     205     225
   6 -11  -4     992     242
  -6  11   4     813     250
   6 -11  -5    3224     339
  -6  11   5    3474     355
   6 -11  -6    2514     347
  -6  11   6    2302     341
   6 -11  -7    6690     462
  -6  11   7    6984     518
   6 -11  -8     143     274
  -6  11   8     204     283
   6 -11  -9     381     249
  -6  11   9      82     274
   6 -11 -10     185     263
  -6  11  10       3     270
   6 -11 -11     701     295
  -6  11  11      14     244
   6 -11 -12     338     268
  -6  11  12       9     284
   6 -11 -13     739     299
  -6  11  13     516     316
   6 -11 -14     280     289
  -6  11  14      26     310
   5 -10  14     538     290
   5 -10  13      35     283
   5 -10  12     889     288
   5 -10  11     574     272
   5 -10  10       5     247
   5 -10   9     986     280
   5 -10   8    3286     336
   5 -10   7     843     259
   5 -10   6   30198    1154
   5 -10   5    5132     395
   5 -10   4      80     200
   5 -10   3   12090     567
   5 -10   2   10562     544
   5 -10   1    5595     360
   5 -10   0   25507     900
   5 -10  -1    5165     355
   5 -10  -2    9365     503
  -5  10   2   10333     539
   5 -10  -3   12290     561
  -5  10   3   11675     568
   5 -10  -4       4     188
  -5  10   4     147     180
   5 -10  -5    5593     453
  -5  10   5    5561     473
   5 -10  -6   28271    1126
  -5  10   6   29657    1169
   5 -10  -7     778     282
  -5  10   7     434     270
   5 -10  -8    3429     367
  -5  10   8    3374     382
   5 -10  -9    1751     330
  -5  10   9    1054     305
   5 -10 -10      55     259
  -5  10  10      63     261
   5 -10 -11     483     243
  -5  10  11     554     295
   5 -10 -12     670     263
  -5  10  12     821     306
   5 -10 -13     283     269
  -5  10  13      18     288
   5 -10 -14     969     308
  -5  10  14     804     327
   4  -9  15      11     264
   4  -9  14     123     248
   4  -9  13    1358     310
   4  -9  12     378     240
   4  -9  11     887     259
   4  -9  10     332     238
   4  -9   9     423     248
   4  -9   8     704     247
   4  -9   7   13542     639
   4  -9   6   10385     504
   4  -9   5    9685     463
   4  -9   4    2667     284
   4  -9   3    2332     275
   4  -9   2    6159     347
   4  -9   1   20724     922
   4  -9   0    6235     353
   4  -9  -1   20885     925
   4  -9  -2    6737     392
  -4   9   2    6626     397
   4  -9  -3    2480     284
  -4   9   3    2630     301
   4  -9  -4    3211     306
  -4   9   4    2823     302
   4  -9  -5    8692     468
  -4   9   5    9091     483
   4  -9  -6   11086     565
  -4   9   6   10708     565
   4  -9  -7   11921     597
  -4   9   7   11788     604
   4  -9  -8     462     263
  -4   9   8     457     248
   4  -9  -9     778     288
  -4   9   9     330     257
   4  -9 -10       0     249
  -4   9  10     183     232
   4  -9 -11     363     266
  -4   9  11     606     274
   4  -9 -12     692     280
  -4   9  12      57     271
   4  -9 -13    1625     334
  -4   9  13    1218     335
   4  -9 -14     235     268
  -4   9  14     224     329
   4  -9 -15     443     288
  -4   9  15      11     302
   3  -8  15      40     249
   3  -8  14      45     258
   3  -8  13    1953     328
   3  -8  12     833     261
   3  -8  11     813     259
   3  -8  10      78     214
   3  -8   9    3632     338
   3  -8   8    3437     326
   3  -8   7   11714     540
   3  -8   6     141     162
   3  -8   5   21945     847
   3  -8   4    9237     449
   3  -8   3    8721     443
   3  -8   2    3449     253
   3  -8   1   23899     788
   3  -8   0   33118    1091
   3  -8  -1   22550     747
   3  -8  -2    3821     270
  -3   8   2    3246     274
   3  -8  -3    8149     453
  -3   8   3    9125     484
   3  -8  -4   10120     497
   3  -8  -4    9767     367
  -3   8   4    9202     500
   3  -8  -5   21810     851
  -3   8   5   20848     850
   3  -8  -6       1     168
  -3   8   6     129     195
   3  -8  -7   11182     550
  -3   8   7   10358     542
   3  -8  -8    2982     340
  -3   8   8    3352     340
   3  -8  -9    3086     358
  -3   8   9    2806     338
   3  -8 -10     162     257
  -3   8  10     229     254
   3  -8 -11    1204     307
  -3   8  11     938     296
   3  -8 -12     942     266
  -3   8  12     572     284
   3  -8 -13    1332     285
  -3   8  13    1021     307
   3  -8 -14      34     262
  -3   8  14      68     282
   3  -8 -15     192     292
  -3   8  15      57     298
   2  -7  15     389     297
   2  -7  15     155     244
   2  -7  14       7     225
   2  -7  13       4     227
   2  -7  12    1468     270
   2  -7  11     190     210
   2  -7  10    1100     266
   2  -7   9    1683     251
   2  -7   8     702     198
   2  -7   7     492     172
   2  -7   6    3593     268
   2  -7   5    1813     192
   2  -7   4    2187     217
   2  -7   3    3544     236
   2  -7   2    7293     427
   2  -7   1    2931     289
   2  -7   0   35039    1349
   2  -7  -1    3391     277
   2  -7  -2    7929     432
  -2   7   2    7129     435
   2  -7  -3    3549     260
   2  -7  -3    3585     156
  -2   7   3    4096     276
   2  -7  -4    1964     240
  -2   7   4    1988     216
   2  -7  -5    1568     200
  -2   7   5    1814     221
   2  -7  -6    3271     300
  -2   7   6    3107     282
   2  -7  -7      12     199
  -2   7   7     406     191
   2  -7  -8     925     229
  -2   7   8     760     235
   2  -7  -9    1159     277
  -2   7   9    1117     270
   2  -7 -10     748     282
  -2   7  10     784     272
   2  -7 -11     130     212
  -2   7  11      21     243
   2  -7 -12    1142     256
  -2   7  12     944     275
   2  -7 -13     317     271
  -2   7  13       4     269
   2  -7 -14     235     275
  -2   7  14       8     271
   2  -7 -15     437     300
  -2   7  15      14     280
   1  -6  15     650     310
   1  -6  14     624     295
   1  -6  14     750     249
   1  -6  13     323     228
   1  -6  12     208     220
   1  -6  11     929     233
   1  -6  10    6597     412
   1  -6   9    2642     281
   1  -6   8     107     160
   1  -6   7    6896     354
   1  -6   6    9925     466
   1  -6   5    7349     322
   1  -6   4   10878     438
   1  -6   3   28773     817
   1  -6   2   59162    2025
   1  -6   1   11451     463
   1  -6   0     631     181
   1  -6  -1   11617     462
   1  -6  -1   12317     421
   1  -6  -2   58019    1980
   1  -6  -2   58744    1986
  -1   6   2   57167    2021
   1  -6  -3   29330     858
   1  -6  -3   29173     800
  -1   6   3   29880     874
   1  -6  -4    9252     431
  -1   6   4   10589     455
   1  -6  -5    8564     390
  -1   6   5    7752     380
   1  -6  -6    9060     466
  -1   6   6    9103     476
   1  -6  -7    6761     410
  -1   6   7    7487     412
   1  -6  -8     488     226
  -1   6   8     561     206
   1  -6  -9    2225     315
  -1   6   9    2163     292
   1  -6 -10    7506     494
  -1   6  10    7127     482
   1  -6 -11     884     284
  -1   6  11     586     256
   1  -6 -12     224     247
  -1   6  12     322     265
   1  -6 -13     643     285
  -1   6  13     483     290
   1  -6 -14     199     279
  -1   6  14     109     281
   1  -6 -15     809     300
  -1   6  15     240     303
   0  -5  15     378     308
   0  -5  14     613     269
   0   5 -14       6     234
   0  -5  13       0     234
   0   5 -13     251     238
   0  -5  12     831     258
   0   5 -12     831     224
   0   5 -11    1967     274
   0   5 -10    1435     244
   0  -5   9    7869     408
   0  -5   8     292     166
   0  -5   7    1337     194
   0  -5   6    6760     313
   0  -5   5   23562     755
   0  -5   4      15     100
   0  -5   3   57385    2092
   0  -5   2    8331     342
   0  -5   1    6802     313
   0  -5   1    7099     328
   0  -5   0     753     127
   0  -5   0     745     145
   0  -5  -1    7229     344
   0  -5  -1    6958     307
   0  -5  -2    7398     337
   0  -5  -2    8399     309
   0   5   2    8411     365
   0  -5  -3   60678    2183
   0  -5  -3   59632    2177
   0   5   3   57630    2211
   0  -5  -4      53      71
   0  -5  -4     133     126
   0   5   4     104     133
   0  -5  -5   21050     726
   0  -5  -5   21858     652
   0   5   5   22046     744
   0  -5  -6    6383     349
   0   5   6    6870     353
   0  -5  -7    1167     241
   0   5   7     970     202
   0  -5  -8     369     220
   0   5   8      21     179
   0  -5  -9    7824     476
   0   5   9    8458     482
   0  -5 -10     942     272
   0   5  10    1029     256
   0  -5 -11    3160     371
   0   5  11    1999     323
   0  -5 -12     412     264
   0   5  12     264     253
   0  -5 -13     201     258
   0   5  13       0     231
   0  -5 -14     222     260
   0   5  14       5     243
   0  -5 -15     392     308
   0   5  15     176     289
   0   5  16       0     256
  -1  -4  16     557     275
  -1  -4  15     394     293
  -1  -4  14      57     275
  -1  -4  13     427     271
   1   4 -13     443     237
  -1  -4  12       7     221
   1   4 -12      38     200
  -1  -4  11    3010     349
   1   4 -11    2644     295
  -1  -4  10    2503     323
   1   4 -10    2705     277
  -1  -4   9    4327     360
   1   4  -9    4487     306
  -1  -4   8    4784     342
   1   4  -8    5080     283
  -1  -4   7    8450     402
  -1  -4   6    1878     179
  -1  -4   5   14098     494
  -1  -4   4   26916    1025
  -1  -4   4   25663     954
  -1  -4   3   39682    1407
  -1  -4   3   40194    1342
  -1  -4   2   17359     630
  -1  -4   2   16820     662
  -1  -4   1   23446     951
  -1  -4   1   23457     986
  -1  -4   0     112     134
  -1  -4   0     106     125
  -1  -4  -1   23643     830
  -1  -4  -1   17453     817
  -1  -4  -2   14713     593
  -1  -4  -2   15731     581
  -1  -4  -3   40117    1414
  -1  -4  -3   42347    1411
   1   4   3   39835    1431
  -1  -4  -4   27561     972
  -1  -4  -4   27119    1003
   1   4   4   25619    1010
  -1  -4  -5   12659     495
  -1  -4  -5   12445     432
   1   4   5   13258     496
  -1  -4  -6    1801     136
  -1  -4  -6    1773     207
   1   4   6    1474     190
  -1  -4  -7    7510     422
   1   4   7    8189     433
  -1  -4  -8    5328     352
   1   4   8    5365     319
  -1  -4  -9    4088     343
   1   4   9    4476     333
  -1  -4 -10    2899     318
   1   4  10    2422     305
  -1  -4 -11    2817     331
   1   4  11    2742     326
  -1  -4 -12      77     256
   1   4  12       6     229
  -1  -4 -13      54     257
   1   4  13      47     249
  -1  -4 -14      48     252
   1   4  14      48     256
  -1  -4 -15     419     250
   1   4  15     183     262
  -1  -4 -16     459     262
  -2  -3  16     144     259
  -2  -3  15     221     275
  -2  -3  15      53     275
  -2  -3  14      16     251
  -2  -3  13      97     232
   2   3 -13      22     215
  -2  -3  12     102     228
   2   3 -12     605     226
  -2  -3  11     122     252
   2   3 -11     234     204
  -2  -3  10    2400     331
   2   3 -10    2221     254
  -2  -3   9    4619     366
   2   3  -9    4420     291
  -2  -3   8    3091     308
   2   3  -8    2995     250
  -2  -3   7    3687     283
   2   3  -7    3450     220
  -2  -3   6     269     107
  -2  -3   6     526     176
  -2  -3   5    1818     166
  -2  -3   5    1881     239
  -2  -3   4   14043     521
  -2  -3   4   14283     584
  -2  -3   3   18696     721
  -2  -3   3   18913     657
  -2  -3   2   26308    1100
  -2  -3   2   26508    1039
  -2  -3   1    7051     204
  -2  -3   1    7441     179
  -2  -3   0     812     224
  -2  -3   0    1087     248
  -2  -3  -1    4757     107
  -2  -3  -2   27386    1073
  -2  -3  -2   27053    1084
  -2  -3  -3   18086     682
  -2  -3  -3   17896     691
   2   3   3   18591     691
  -2  -3  -4   14361     572
  -2  -3  -4   14053     539
   2   3   4   14107     558
  -2  -3  -5    1318     167
  -2  -3  -5    1662     229
   2   3   5    1711     195
  -2  -3  -6     357     117
  -2  -3  -6     301     157
   2   3   6     484     149
  -2  -3  -7    3232     276
   2   3   7    3388     249
  -2  -3  -8    3118     321
   2   3   8    3049     271
  -2  -3  -9    4203     342
   2   3   9    3752     308
  -2  -3 -10    2398     328
   2   3  10    1851     266
  -2  -3 -11     153     263
   2   3  11     416     229
  -2  -3 -12      76     244
   2   3  12     360     227
  -2  -3 -13       7     204
   2   3  13     162     235
  -2  -3 -14      16     260
   2   3  14      16     241
  -2  -3 -15     113     264
  -2  -3 -16     654     313
  -3  -2  16     173     282
  -3  -2  15     124     246
  -3  -2  14      16     225
  -3  -2  14      16     254
  -3  -2  13     115     248
  -3  -2  12      43     234
   3   2 -12      19     199
  -3  -2  11      13     219
   3   2 -11     338     195
  -3  -2  10    1918     291
   3   2 -10    2061     246
  -3  -2   9    4239     351
   3   2  -9    4132     284
  -3  -2   8    2612     280
   3   2  -8    2622     222
  -3  -2   7    3418     266
   3   2  -7    3302     196
  -3  -2   6     400     164
   3   2  -6     307     111
  -3  -2   5    1461     141
  -3  -2   5    1699     220
  -3  -2   4   13414     566
  -3  -2   4   14694     502
  -3  -2   3   17558     707
  -3  -2   3   17659     629
  -3  -2   2   27218    1039
  -3  -2   2   27662    1121
  -3  -2   1    8048     217
  -3  -2   1    8239     158
  -3  -2   0     680     205
  -3  -2   0     747     242
  -3  -2  -1    7269     178
  -3  -2  -1    7522     204
  -3  -2  -2   25643    1031
  -3  -2  -3   18923     704
  -3  -2  -3   19130     696
   3   2   3   18274     685
  -3  -2  -4   14306     569
  -3  -2  -4   14044     551
   3   2   4   13643     539
  -3  -2  -5    1983     231
  -3  -2  -5    1888     195
   3   2   5    1385     175
  -3  -2  -6     298     130
  -3  -2  -6     519     164
   3   2   6     209     127
  -3  -2  -7    3369     221
  -3  -2  -7    3049     273
   3   2   7    3916     250
  -3  -2  -8    3249     313
   3   2   8    2706     240
  -3  -2  -9    4007     342
   3   2   9    3970     303
  -3  -2 -10    2188     326
   3   2  10    2547     274
  -3  -2 -11     162     256
   3   2  11     404     211
  -3  -2 -12     332     223
   3   2  12      17     202
  -3  -2 -13     339     286
   3   2  13      16     216
  -3  -2 -14      17     264
   3   2  14      17     240
  -3  -2 -15      50     232
  -3  -2 -16     128     295
  -4  -1  16     933     320
  -4  -1  15     213     266
  -4  -1  14     137     239
  -4  -1  14     167     289
  -4  -1  13     535     248
  -4  -1  13     590     256
  -4  -1  12     310     242
   4   1 -12       7     185
  -4  -1  11    2806     338
   4   1 -11    2975     269
  -4  -1  10    2785     317
   4   1 -10    2323     244
  -4  -1   9    4424     340
   4   1  -9    4848     280
  -4  -1   8    5891     350
   4   1  -8    4976     252
  -4  -1   7    7296     418
   4   1  -7    7853     345
  -4  -1   6    1865     213
   4   1  -6    1558     134
  -4  -1   5   13372     528
   4   1  -5   13968     444
  -4  -1   4   27371    1055
  -4  -1   4   28458     961
  -4  -1   3   41285    1462
  -4  -1   2   15568     623
  -4  -1   1   24015     918
  -4  -1   1   24802    1000
  -4  -1   0     168      92
  -4  -1   0     120     151
  -4  -1  -1   22663     916
  -4  -1  -1   23143     967
  -4  -1  -2   17515     647
  -4  -1  -2   17068     672
  -4  -1  -3   40404    1386
  -4  -1  -4   25361     935
  -4  -1  -4   22029     939
   4   1   4   26598     902
  -4  -1  -5   13375     510
  -4  -1  -5   13653     498
   4   1   5   12637     458
  -4  -1  -6    1386     199
  -4  -1  -6    1594     185
   4   1   6    1703     159
  -4  -1  -7    8448     450
  -4  -1  -7    8562     419
   4   1   7    7861     397
  -4  -1  -8    5495     354
   4   1   8    4881     282
  -4  -1  -9    4310     349
   4   1   9    4500     311
  -4  -1 -10    2604     338
   4   1  10    2801     272
  -4  -1 -11    2739     359
   4   1  11    2811     291
  -4  -1 -12      18     216
   4   1  12     211     205
  -4  -1 -13     162     231
   4   1  13       1     205
  -4  -1 -14     444     306
  -4  -1 -15     366     307
  -4  -1 -16      87     289
  -5   0  16       9     278
  -5   0  15     806     313
  -5   0  14     195     252
  -5   0  13       0     227
  -5   0  13       0     228
  -5   0  12     516     239
  -5   0  12     676     248
  -5   0  11    2030     311
   5   0 -11    2229     252
  -5   0  10     653     221
   5   0 -10     828     178
  -5   0   9    8560     463
   5   0  -9    7956     368
  -5   0   8     373     200
   5   0  -8     169     124
  -5   0   7    1225     212
   5   0  -7    1111     138
  -5   0   6    6812     349
   5   0  -6    7036     266
  -5   0   5   22158     758
   5   0  -5   22574     660
  -5   0   4      93     128
  -5   0   3   58103    2186
  -5   0   2    7948     351
  -5   0   1    6762     259
  -5   0   1    7035     348
  -5   0   0     754      97
  -5   0   0     914     169
  -5   0  -1    6961     346
  -5   0  -1    7128     293
  -5   0  -2    8054     322
  -5   0  -2    7924     354
  -5   0  -3   58694    2122
  -5   0  -3   57497    2181
  -5   0  -4     258     145
  -5   0  -4       0     105
   5   0   4      42      70
  -5   0  -5   22272     740
   5   0   5   21827     677
  -5   0  -6    4888     303
  -5   0  -6    6856     353
   5   0   6    6550     271
  -5   0  -7     905     224
  -5   0  -7    1113     206
   5   0   7     802     144
  -5   0  -8     251     189
  -5   0  -8      91     171
   5   0   8     115     135
  -5   0  -9    8257     462
   5   0   9    8484     406
  -5   0 -10    1227     254
   5   0  10     981     200
  -5   0 -11    2452     331
   5   0  11    1916     264
  -5   0 -12     803     253
   5   0  12     388     206
  -5   0 -13     141     259
  -5   0 -14     250     285
  -5   0 -15     979     330
  -6   1  15      34     270
  -6   1  14      12     249
  -6   1  13     476     265
  -6   1  12     237     230
  -6   1  12     107     240
  -6   1  11     657     252
  -6   1  11     768     249
  -6   1  10    7654     460
   6  -1 -10    7053     367
  -6   1   9    2116     282
   6  -1  -9    2226     206
  -6   1   8      67     186
   6  -1  -8     233     119
  -6   1   7    6449     359
   6  -1  -7    6603     280
  -6   1   6    9729     482
   6  -1  -6    9556     383
  -6   1   5    8489     353
   6  -1  -5    7355     249
  -6   1   4    9876     440
   6  -1  -4   10601     337
  -6   1   3   28522     834
  -6   1   2   57935    2015
   6  -1  -2   57144    1899
  -6   1   1   11424     454
  -6   1   1   12323     389
  -6   1   0     651     102
  -6   1   0     566     164
  -6   1  -1   11416     403
  -6   1  -1   11093     456
  -6   1  -2   59452    2006
  -6   1  -2   58927    2083
  -6   1  -3   28512     804
  -6   1  -3   28397     842
  -6   1  -4   10934     476
  -6   1  -4   11349     461
  -6   1  -5    7492     361
  -6   1  -5    7476     341
   6  -1   5    8066     265
  -6   1  -6    9875     486
  -6   1  -6    8641     463
   6  -1   6    9868     397
  -6   1  -7    4633     309
  -6   1  -7    6942     361
   6  -1   7    5971     271
  -6   1  -8      83      77
  -6   1  -8     496     197
   6  -1   8     571     136
  -6   1  -9    2200     318
   6  -1   9    1825     206
  -6   1 -10    7134     462
   6  -1  10    7174     391
  -6   1 -11    1185     273
   6  -1  11     715     209
  -6   1 -12      31     225
  -6   1 -13     179     273
  -6   1 -14     505     300
  -6   1 -15     493     318
  -7   2  15      13     263
  -7   2  14     171     273
  -7   2  13      15     253
  -7   2  12    1001     259
  -7   2  12     533     261
  -7   2  11     396     221
  -7   2  11     139     221
  -7   2  10    1022     246
  -7   2  10    1188     263
   7  -2 -10     976     179
  -7   2   9     894     225
  -7   2   9    1335     249
   7  -2  -9    1502     175
  -7   2   8    1343     230
  -7   2   8     998     232
   7  -2  -8     748     134
  -7   2   7     612     192
   7  -2  -7     282     104
  -7   2   6    3233     264
   7  -2  -6    3215     168
  -7   2   5    1858     195
   7  -2  -5    1893     113
  -7   2   4    2131     220
   7  -2  -4    2044     123
  -7   2   3    3627     241
   7  -2  -3    3856     163
  -7   2   2    8271     440
   7  -2  -2    7444     360
  -7   2   1    3557     285
   7  -2  -1    3311     206
  -7   2   0   35481    1391
  -7   2   0   35231    1310
  -7   2  -1    3050     227
  -7   2  -1    2993     272
  -7   2  -1    3223     194
  -7   2  -2    7322     387
  -7   2  -2    7243     321
  -7   2  -2    7374     432
  -7   2  -3    3987     262
  -7   2  -3    3621     207
  -7   2  -4    2081     218
  -7   2  -4    2101     235
  -7   2  -5    1591     210
  -7   2  -5    1825     191
  -7   2  -6    3735     291
  -7   2  -6    3416     284
   7  -2   6    2672     156
  -7   2  -7     698     212
  -7   2  -7     292     197
   7  -2   7     261      98
  -7   2  -8    1265     238
  -7   2  -8     659     216
   7  -2   8    1018     142
  -7   2  -9    1582     265
   7  -2   9    1433     175
  -7   2 -10     871     301
   7  -2  10    1065     193
  -7   2 -11     299     270
  -7   2 -12    1277     314
  -7   2 -13     272     253
  -7   2 -14     157     301
  -7   2 -15      49     298
  -8   3  15      27     289
  -8   3  14       3     261
  -8   3  13    1820     334
  -8   3  12     526     274
  -8   3  11    1719     315
  -8   3  11    1121     266
  -8   3  10      23     221
  -8   3  10     233     246
  -8   3   9    2516     301
  -8   3   9    3203     309
   8  -3  -9    2894     227
  -8   3   8    2725     289
  -8   3   8    3274     300
   8  -3  -8    2849     207
  -8   3   7   10990     496
  -8   3   7   10202     522
   8  -3  -7   10102     397
  -8   3   6     162     169
  -8   3   6     120     158
   8  -3  -6     235     100
  -8   3   5   21084     838
  -8   3   5   22102     839
   8  -3  -5   21922     747
  -8   3   4   10606     483
  -8   3   4   10393     480
   8  -3  -4    9621     402
  -8   3   3    8170     437
  -8   3   3    8383     420
   8  -3  -3    8856     379
  -8   3   2    3699     264
  -8   3   2    4001     234
   8  -3  -2    3563     201
  -8   3   1   23880     804
  -8   3   1   25095     764
   8  -3  -1   24426     742
  -8   3   0   33193    1028
  -8   3   0   32103    1083
   8  -3   0   34145    1024
  -8   3  -1   23702     696
  -8   3  -1   23315     778
  -8   3  -1   23357     719
  -8   3  -2    3205     156
  -8   3  -2    3452     222
  -8   3  -2    3519     281
  -8   3  -3    8269     409
  -8   3  -3    8555     466
  -8   3  -4    9069     440
  -8   3  -4    9584     490
  -8   3  -5   21911     888
  -8   3  -5   22253     846
  -8   3  -6     113     188
  -8   3  -6     188     170
  -8   3  -7   10245     525
  -8   3  -7   10431     497
   8  -3   7   10275     378
  -8   3  -8    3467     328
  -8   3  -8    3565     351
   8  -3   8    3282     209
  -8   3  -9    2931     358
  -8   3 -10      12     269
  -8   3 -11     755     298
  -8   3 -12     822     307
  -8   3 -13    1536     348
  -8   3 -14       3     287
  -8   3 -15      95     318
  -9   4  15      10     285
  -9   4  14     193     271
  -9   4  13    1088     321
  -9   4  12       8     244
  -9   4  11     339     264
  -9   4  11     576     229
  -9   4  10     107     244
  -9   4  10     336     241
  -9   4   9      76     224
  -9   4   9     290     242
   9  -4  -9     509     157
  -9   4   8     932     241
  -9   4   8     424     241
   9  -4  -8     589     144
  -9   4   7   12552     594
  -9   4   7   12245     628
   9  -4  -7   12601     506
  -9   4   6   10562     496
  -9   4   6    9446     514
   9  -4  -6   10362     405
  -9   4   5    8474     421
  -9   4   5    9308     450
   9  -4  -5    9050     348
  -9   4   4    3088     272
  -9   4   4    2985     269
   9  -4  -4    2486     213
  -9   4   3    2977     277
  -9   4   3    2507     244
   9  -4  -3    2158     210
  -9   4   2    6209     347
  -9   4   2    6452     303
   9  -4  -2    6694     295
  -9   4   1   20628     860
  -9   4   1   20349     906
   9  -4  -1   20554     840
  -9   4   0    5745     273
  -9   4   0    6337     348
   9  -4   0    6331     285
  -9   4  -1   20311     913
  -9   4  -1   21034     834
   9  -4   1   19260     847
  -9   4  -2    6721     319
  -9   4  -2    6734     376
  -9   4  -2    6214     263
  -9   4  -3    2476     293
  -9   4  -3    2652     256
  -9   4  -4    3263     287
  -9   4  -4    3264     320
  -9   4  -5    9752     499
  -9   4  -5   10160     468
  -9   4  -6   10750     546
  -9   4  -6   10382     498
  -9   4  -7   11754     590
  -9   4  -7   12766     641
  -9   4  -8     462     250
  -9   4  -8     607     262
  -9   4  -9     249     270
  -9   4 -10     141     276
  -9   4 -11      96     274
  -9   4 -12     165     244
  -9   4 -13    1150     354
  -9   4 -14     276     306
  -9   4 -15      36     318
 -10   5  14     482     307
 -10   5  13       3     250
 -10   5  12    1025     308
 -10   5  11     569     274
 -10   5  10     354     263
 -10   5  10     200     237
 -10   5   9    1164     284
 -10   5   9    1577     277
 -10   5   8    3235     360
 -10   5   8    3936     342
  10  -5  -8    3527     260
 -10   5   7     588     212
 -10   5   7     474     211
  10  -5  -7     456     151
 -10   5   6   30263    1192
 -10   5   6   30881    1169
  10  -5  -6   31179    1090
 -10   5   5    5575     423
 -10   5   5    5665     398
  10  -5  -5    5754     343
 -10   5   4      87     160
 -10   5   4     242     181
  10  -5  -4      55     141
 -10   5   3   12185     550
 -10   5   3   12248     528
  10  -5  -3   11943     502
 -10   5   2   10014     487
  10  -5  -2    9398     432
 -10   5   1    5491     327
 -10   5   1    5323     295
  10  -5  -1    6074     301
 -10   5   0   25510     848
 -10   5   0   24981     779
  10  -5   0   20657     774
 -10   5  -1    5644     357
 -10   5  -1    5372     270
  10  -5   1    5493     293
 -10   5  -2   10140     513
 -10   5  -2    9191     401
  10  -5   2    9854     451
 -10   5  -3   12219     525
 -10   5  -3   11828     560
 -10   5  -4     395     213
 -10   5  -4     201     162
 -10   5  -5    5909     462
 -10   5  -5    5350     416
 -10   5  -6   27243    1093
 -10   5  -6   30873    1175
 -10   5  -7     592     237
 -10   5  -7     896     284
 -10   5  -8    3205     379
 -10   5  -8    3701     391
 -10   5  -9    1356     289
 -10   5  -9    1311     303
 -10   5 -10     564     261
 -10   5 -11     449     299
 -10   5 -12     928     300
 -10   5 -13      64     299
 -10   5 -14     170     269
 -11   6  14      20     288
 -11   6  13     233     299
 -11   6  12       9     269
 -11   6  11      19     251
 -11   6  10     223     257
 -11   6  10     194     230
 -11   6   9     103     232
 -11   6   9     386     259
 -11   6   8     419     249
 -11   6   8      79     227
  11  -6  -8     362     163
 -11   6   7    8242     446
 -11   6   7    6574     473
  11  -6  -7    7053     353
 -11   6   6    2151     288
 -11   6   6    2406     283
  11  -6  -6    2342     228
 -11   6   5    4007     329
 -11   6   5    3793     324
  11  -6  -5    3564     272
 -11   6   4     770     204
 -11   6   4     740     220
  11  -6  -4     755     195
 -11   6   3     154     176
 -11   6   3      74     166
  11  -6  -3      74     159
 -11   6   2    2281     267
  11  -6  -2    2044     226
 -11   6   1    8404     437
 -11   6   1    9210     487
  11  -6  -1    9149     439
 -11   6   0    1678     260
 -11   6   0    1806     215
 -11   6  -1    8999     434
 -11   6  -1    9832     524
  11  -6   1    8941     456
 -11   6  -2    1998     180
 -11   6  -2    1874     271
  11  -6   2    2415     241
 -11   6  -3     159     174
  11  -6   3     165     142
 -11   6  -4    1087     226
 -11   6  -4     853     251
 -11   6  -5    4038     371
 -11   6  -5    4577     364
 -11   6  -6    2358     340
 -11   6  -6    2732     324
 -11   6  -7    6283     425
 -11   6  -7    6877     496
 -11   6  -8      15     219
 -11   6  -8     552     286
 -11   6  -9     106     237
 -11   6  -9     363     287
 -11   6 -10     394     249
 -11   6 -11     239     253
 -11   6 -12      10     299
 -11   6 -13     792     336
 -11   6 -14     162     336
 -12   7  14       1     289
 -12   7  13     492     270
 -12   7  12     519     302
 -12   7  11      10     257
 -12   7  10     491     280
 -12   7   9    1470     296
 -12   7   9    2242     296
 -12   7   8     133     225
 -12   7   8     216     233
 -12   7   7     946     248
 -12   7   7     736     269
  12  -7  -7     926     205
 -12   7   6    2133     283
 -12   7   6    1845     285
  12  -7  -6    1835     241
 -12   7   5    1434     272
 -12   7   5    1548     270
  12  -7  -5    1312     238
 -12   7   4     370     234
 -12   7   4     121     199
  12  -7  -4     343     220
 -12   7   3    7094     410
 -12   7   3    6434     387
  12  -7  -3    5875     383
 -12   7   2      15      51
 -12   7   2      15     182
  12  -7  -2      15     171
 -12   7   1    6154     425
 -12   7   1    5923     387
  12  -7  -1    5953     392
 -12   7   0    4158     336
 -12   7   0    3861     283
 -12   7  -1    6299     449
 -12   7  -1    6120     380
  12  -7   1    5966     392
 -12   7  -2      13     143
 -12   7  -2      13     200
  12  -7   2      13     165
 -12   7  -3    6401     417
  12  -7   3    6718     401
 -12   7  -4     769     276
  12  -7   4     318     194
 -12   7  -5    1439     283
 -12   7  -5    1284     311
  12  -7   5    1876     291
 -12   7  -6    1814     315
 -12   7  -6    1607     298
 -12   7  -7    1181     326
 -12   7  -7     630     284
 -12   7  -8     281     289
 -12   7  -8     124     244
 -12   7  -9    1820     317
 -12   7  -9    1646     344
 -12   7 -10     165     292
 -12   7 -11     488     262
 -12   7 -12     776     340
 -12   7 -13     565     300
 -12   7 -14       1     285
 -13   8  13     378     298
 -13   8  12       2     268
 -13   8  11     210     293
 -13   8  10     964     306
 -13   8   9     562     231
 -13   8   9     341     264
 -13   8   8     535     271
 -13   8   8     602     237
 -13   8   7    1939     290
 -13   8   7    1656     309
  13  -8  -7    2027     263
 -13   8   6    1067     269
 -13   8   6     709     258
  13  -8  -6     963     241
 -13   8   5    2827     337
 -13   8   5    3337     341
  13  -8  -5    2775     308
 -13   8   4    4506     395
 -13   8   4    4563     378
  13  -8  -4    4718     389
 -13   8   3    2957     322
 -13   8   3    2385     302
  13  -8  -3    2507     315
 -13   8   2    2692     317
  13  -8  -2    2620     303
 -13   8   1    2630     299
 -13   8   1    3421     295
  13  -8  -1    3427     304
 -13   8   0     458     187
 -13   8   0     364     233
  13  -8   0     491     201
 -13   8  -1    3345     287
 -13   8  -1    2898     342
  13  -8   1    3719     320
 -13   8  -2    2358     328
 -13   8  -2    2623     251
  13  -8   2    2792     312
 -13   8  -3    2344     350
  13  -8   3    3291     337
 -13   8  -4    4531     427
  13  -8   4    5625     413
 -13   8  -5    2733     350
  13  -8   5    3915     378
 -13   8  -6     903     281
  13  -8   6     386     232
 -13   8  -7    2075     338
 -13   8  -7    2050     308
  13  -8   7    2259     319
 -13   8  -8    1172     323
 -13   8  -8     673     292
 -13   8  -9     344     240
 -13   8  -9     463     285
 -13   8 -10    1275     296
 -13   8 -11     670     335
 -13   8 -12       2     311
 -13   8 -13     164     322
 -14   9  13       4     304
 -14   9  12      74     294
 -14   9  11     315     301
 -14   9  10     976     314
 -14   9   9     385     265
 -14   9   8    1339     312
 -14   9   8    1116     283
 -14   9   7     750     284
 -14   9   7     781     262
 -14   9   6    1796     320
 -14   9   6    1770     295
  14  -9  -6    1230     264
 -14   9   5     412     250
 -14   9   5     332     251
  14  -9  -5     302     245
 -14   9   4    6330     438
 -14   9   4    6117     416
  14  -9  -4    6009     447
 -14   9   3    3554     366
 -14   9   3    3102     340
  14  -9  -3    3446     350
 -14   9   2    5936     436
  14  -9  -2    6230     447
 -14   9   1    1002     256
 -14   9   1    1239     235
  14  -9  -1     127     153
 -14   9   0    2979     306
 -14   9   0    3503     372
  14  -9   0    3090     320
 -14   9  -1     877     216
 -14   9  -1    1925     298
  14  -9   1    1494     259
 -14   9  -2    6101     381
 -14   9  -2    5758     429
  14  -9   2    6113     422
 -14   9  -3    3176     384
  14  -9   3    2843     354
 -14   9  -4    4716     439
  14  -9   4    6314     438
 -14   9  -5     249     288
  14  -9   5     410     269
 -14   9  -6    1663     331
  14  -9   6    1484     296
 -14   9  -7     719     329
  14  -9   7     547     289
 -14   9  -8    1426     331
  14  -9   8    1313     309
  14  -9   9     798     288
 -14   9 -10    1085     297
  14  -9  10     952     297
 -14   9 -11       9     293
  14  -9  11     215     298
 -14   9 -12      48     272
  14  -9  12     389     272
 -14   9 -13      89     284
  14  -9  13     399     281
 -15  10  12     322     315
 -15  10  11      81     290
 -15  10  10       3     276
 -15  10   9    1270     321
 -15  10   8     529     241
 -15  10   8       5     246
 -15  10   7     255     230
 -15  10   7     392     266
 -15  10   6     889     273
 -15  10   6     993     262
  15 -10  -6     563     264
 -15  10   5    1297     304
 -15  10   5    1431     296
  15 -10  -5     991     301
 -15  10   4     266     237
 -15  10   4     437     273
  15 -10  -4      86     275
 -15  10   3    5196     438
 -15  10   3    5205     422
  15 -10  -3    5042     440
 -15  10   2       2     154
 -15  10   2     121     239
  15 -10  -2       2     263
 -15  10   1     673     277
 -15  10   1    1137     262
 -15  10   0    5012     413
 -15  10   0    5436     454
  15 -10   0    5386     425
 -15  10  -1    1094     259
 -15  10  -1    1252     304
  15 -10   1    1199     279
 -15  10  -2     201     271
 -15  10  -2       2     200
  15 -10   2     155     244
 -15  10  -3    4322     424
  15 -10   3    5159     391
 -15  10  -4     460     257
  15 -10   4     265     271
 -15  10  -5     794     281
  15 -10   5    1131     277
 -15  10  -6     812     289
  15 -10   6     538     278
 -15  10  -7     256     284
  15 -10   7     339     236
 -15  10  -8       6     278
  15 -10   8     181     278
  15 -10   9    1205     339
  15 -10  10       3     238
  15 -10  11     192     265
  15 -10  12     613     344
 -16  11  11      57     301
 -16  11  10     551     305
 -16  11   9     110     281
 -16  11   8     400     283
 -16  11   7     209     237
 -16  11   7       7     264
 -16  11   6      38     260
 -16  11   6     239     237
 -16  11   5      10     244
 -16  11   5     137     251
  16 -11  -5      10     249
 -16  11   4     929     278
 -16  11   4     852     273
  16 -11  -4     489     311
 -16  11   3     485     279
 -16  11   3     776     272
  16 -11  -3     524     288
 -16  11   2     877     283
 -16  11   2     460     228
  16 -11  -2    1467     318
 -16  11   1      22     250
 -16  11   1     239     262
  16 -11  -1      22     215
 -16  11   0     299     259
 -16  11   0     630     290
  16 -11   0     384     271
 -16  11  -1     183     252
 -16  11  -1      47     271
  16 -11   1      21     203
 -16  11  -2    1810     338
  16 -11   2    1184     307
 -16  11  -3     432     296
  16 -11   3     128     223
 -16  11  -4     678     273
  16 -11   4     670     288
 -16  11  -5      12     278
  16 -11   5      12     275
 -16  11  -6     192     292
  16 -11   6     210     231
 -16  11  -7       7     235
  16 -11   7     129     285
 -16  11  -8      13     294
  16 -11   8     321     292
  16 -11   9     418     302
  16 -11  10     583     312
  16 -11  11       7     311
 -17  12  11     195     330
 -17  12  10     204     315
 -17  12   9     396     315
 -17  12   8     561     312
 -17  12   7      15     275
 -17  12   6     397     257
 -17  12   6      66     277
 -17  12   5     691     269
 -17  12   5       8     264
  17 -12  -5       8     274
 -17  12   4       5     250
 -17  12   4       5     224
  17 -12  -4      10     297
 -17  12   3    1682     319
 -17  12   3    1629     329
  17 -12  -3    1280     337
 -17  12   2     232     257
 -17  12   2     459     275
  17 -12  -2       5     218
 -17  12   1     684     281
 -17  12   1     938     291
  17 -12  -1     558     321
 -17  12   0     716     289
 -17  12   0     643     285
  17 -12   0    1001     299
 -17  12  -1     764     308
 -17  12  -1     652     271
  17 -12   1     734     294
 -17  12  -2       5     268
  17 -12   2      87     265
 -17  12  -3     814     290
  17 -12   3    1772     344
 -17  12  -4     115     277
  17 -12   4      33     258
 -17  12  -5       8     277
  17 -12   5     102     274
 -17  12  -6      93     295
  17 -12   6       0     232
 -17  12  -7     409     270
  17 -12   7     326     305
 -17  12  -8     237     310
  17 -12   8     471     312
  17 -12   9     558     292
  17 -12  10     143     309
  17 -12  11     156     283
 -18  13  10     880     363
 -18  13   9     507     331
 -18  13   8     225     308
 -18  13   7     288     303
 -18  13   6       3     288
 -18  13   6     148     263
 -18  13   5      80     262
 -18  13   5       1     278
 -18  13   4    1252     311
 -18  13   4    1459     313
  18 -13  -4    1468     370
 -18  13   3     357     295
 -18  13   3     634     288
  18 -13  -3     609     311
 -18  13   2    1369     310
 -18  13   2     909     309
 -18  13   1      16     256
 -18  13   1      16     250
  18 -13  -1     225     293
 -18  13   0    1106     309
 -18  13   0    1249     319
  18 -13   0    1092     320
 -18  13  -1      14     274
  18 -13   1      14     271
 -18  13  -2    1410     305
  18 -13   2     837     274
 -18  13  -3     587     310
  18 -13   3     348     249
 -18  13  -4    1443     356
  18 -13   4    1397     312
 -18  13  -5     107     268
  18 -13   5     108     245
 -18  13  -6     124     259
  18 -13   6      91     293
 -18  13  -7     461     287
  18 -13   7     510     292
  18 -13   8     799     310
  18 -13   9     474     339
  18 -13  10     274     354
 -19  14   9       4     352
 -19  14   8      20     308
 -19  14   7     581     332
 -19  14   6      16     297
 -19  14   5    1076     303
 -19  14   5     424     315
 -19  14   4     766     293
 -19  14   4     545     308
  19 -14  -4    1066     336
 -19  14   3     580     287
 -19  14   3     234     303
  19 -14  -3     233     319
 -19  14   2     283     291
 -19  14   2     130     265
  19 -14  -2       2     141
 -19  14   1     662     303
 -19  14   1     978     316
  19 -14  -1     303     322
 -19  14   0      43     279
  19 -14   0      75     304
 -19  14  -1     718     317
  19 -14   1     472     319
 -19  14  -2     523     300
  19 -14   2     107     302
 -19  14  -3     422     273
  19 -14   3     624     326
 -19  14  -4    1507     373
  19 -14   4     953     345
 -19  14  -5     427     321
  19 -14   5     588     335
 -19  14  -6       3     307
  19 -14   6      47     256
 -19  14  -7     276     325
  19 -14   7     358     320
  19 -14   8      20     316
 -20  15   7      15     332
 -20  15   6       1     312
 -20  15   5     104     313
 -20  15   5     138     249
 -20  15   4      73     251
 -20  15   4       5     272
 -20  15   3     104     237
 -20  15   3    1268     341
  20 -15  -3     848     376
 -20  15   2       6     288
 -20  15   2      64     269
  20 -15  -2      31     266
 -20  15   1     356     297
  20 -15  -1      35     301
 -20  15   0     220     291
  20 -15   0      95     323
 -20  15  -1      12     288
  20 -15   1     169     324
 -20  15  -2       7     298
  20 -15   2       1     314
 -20  15  -3    1192     361
  20 -15   3     999     319
 -20  15  -4       6     310
  20 -15   4       6     308
 -20  15  -5       6     289
  20 -15   5       6     310
 -20  15  -6     113     277
  20 -15   6       1     313
 -20  15  -7     335     346
  20 -15   7     117     338
 -21  16   5     307     362
 -21  16   4      29     322
 -21  16   4     307     310
 -21  16   3      17     128
 -21  16   3      17     290
  21 -16  -3     895     356
 -21  16   2       0     264
  21 -16  -2       0     313
 -21  16   1       0     274
  21 -16  -1       0     361
 -21  16   0     116     279
  21 -16   0     274     352
 -21  16  -1     382     309
  21 -16   1       0     318
 -21  16  -2       0     298
  21 -16   2       0     259
 -21  16  -3     336     314
  21 -16   3      15     317
 -21  16  -4      15     315
  21 -16   4      27     329
 -21  16  -5     266     332
  21 -16   5      13     320
 -22  17   3      12     291
 -22  17   2       1     276
  22 -17  -2       1     313
 -22  17   1      22     304
  22 -17  -1      14     336
 -22  17   0     964     340
  22 -17   0     849     399
 -22  17  -1     138     314
  22 -17   1      13     337
 -22  17  -2     241     332
  22 -17   2       2     329
 -22  17  -3     239     314
  22 -17   3     165     349
  16 -22   4      12     388
  16 -22   3       7     341
  16 -22   2      22     409
  16 -22   1     145     339
  16 -22   0       0     325
  16 -22  -1     178     410
  16 -22  -2       9     376
  16 -22  -3     284     381
  16 -22  -4     303     394
  15 -21   6       2     324
  15 -21   5       7     306
  15 -21   4     469     392
  15 -21   3      61     378
  15 -21   2     102     379
  15 -21   1     338     348
  15 -21   0     449     393
  15 -21  -1       9     325
  15 -21  -2     526     354
  15 -21  -3     104     393
  15 -21  -4     703     345
  15 -21  -5       8     361
 -15  21   5     571     380
  15 -21  -6       3     379
 -15  21   6       3     337
  14 -20   8       5     366
  14 -20   7      16     308
  14 -20   6       3     280
  14 -20   5      34     296
  14 -20   4     426     345
  14 -20   3     428     391
  14 -20   2     616     353
  14 -20   1     382     380
  14 -20   0       7     320
  14 -20  -1       6     302
  14 -20  -2     283     384
  14 -20  -3     682     385
  14 -20  -4      47     360
 -14  20   4     138     353
  14 -20  -5      32     346
 -14  20   5     459     364
  14 -20  -6       3     345
 -14  20   6      68     333
  14 -20  -7      80     354
 -14  20   7     242     339
 -14  20   8     221     382
  13 -19   9     811     394
  13 -19   8     142     353
  13 -19   7     115     303
  13 -19   6     216     308
  13 -19   5     394     372
  13 -19   4      18     349
  13 -19   3    1227     377
  13 -19   2     627     335
  13 -19   1      10     341
  13 -19   0     590     385
  13 -19  -1       4     301
  13 -19  -2       8     366
  13 -19  -3    1676     437
  13 -19  -4      17     342
 -13  19   4      17     309
  13 -19  -5     327     317
 -13  19   5     430     342
  13 -19  -6      97     357
 -13  19   6     362     297
  13 -19  -7       5     315
 -13  19   7     211     310
  13 -19  -8      10     318
 -13  19   8     273     351
  13 -19  -9     189     341
 -13  19   9     124     361
  12 -18  10     444     384
  12 -18   9      37     288
  12 -18   8     182     295
  12 -18   7     219     346
  12 -18   6     112     290
  12 -18   5     373     350
  12 -18   4    1204     338
  12 -18   3     972     338
  12 -18   2     392     303
  12 -18   1     536     332
  12 -18   0       1     331
  12 -18  -1     966     340
  12 -18  -2      43     303
  12 -18  -3     508     361
  12 -18  -4     314     309
 -12  18   4     466     332
  12 -18  -5     149     349
 -12  18   5     509     345
  12 -18  -6     495     353
 -12  18   6     645     318
  12 -18  -7     543     360
 -12  18   7     344     299
  12 -18  -8      10     331
 -12  18   8      35     335
  12 -18  -9       0     276
 -12  18   9       0     322
  12 -18 -10       6     304
 -12  18  10      60     346
  11 -17  11     144     357
  11 -17  10       6     313
  11 -17   9       3     319
  11 -17   8     183     321
  11 -17   7       2     321
  11 -17   6       2     260
  11 -17   5       8     270
  11 -17   4     790     357
  11 -17   3      96     334
  11 -17   2     216     335
  11 -17   1       1     329
  11 -17   0       1     318
  11 -17  -1      35     347
  11 -17  -2      51     308
  11 -17  -3     559     359
 -11  17   3     706     305
  11 -17  -4     221     345
 -11  17   4     855     328
  11 -17  -5       8     306
 -11  17   5     137     268
  11 -17  -6     324     339
 -11  17   6       1     301
  11 -17  -7     202     331
 -11  17   7     276     292
  11 -17  -8       1     310
 -11  17   8     292     328
  11 -17  -9     129     287
 -11  17   9     909     352
  11 -17 -10       6     294
 -11  17  10      12     317
  11 -17 -11     168     312
 -11  17  11     338     341
  10 -16  11       7     265
  10 -16  10    1015     373
  10 -16   9     519     286
  10 -16   8      37     285
  10 -16   7     451     324
  10 -16   6     100     258
  10 -16   5     295     283
  10 -16   4     496     293
  10 -16   3    1598     408
  10 -16   2    1622     364
  10 -16   1     718     381
  10 -16   0       9     344
  10 -16  -1    1123     342
  10 -16  -2    1873     388
  10 -16  -3    1527     401
 -10  16   3    1322     376
  10 -16  -4      15     318
 -10  16   4     219     306
  10 -16  -5     109     274
 -10  16   5     929     346
  10 -16  -6     208     320
 -10  16   6     100     310
  10 -16  -7     377     336
 -10  16   7     611     288
  10 -16  -8     112     324
 -10  16   8      37     299
  10 -16  -9     494     332
 -10  16   9     179     310
  10 -16 -10     198     312
 -10  16  10     330     331
  10 -16 -11      42     296
 -10  16  11       0     335
   9 -15  12     169     320
   9 -15  11      18     295
   9 -15  10     606     330
   9 -15   9     646     330
   9 -15   8      59     243
   9 -15   7     783     293
   9 -15   6       8     250
   9 -15   5     976     353
   9 -15   4    2051     378
   9 -15   3    1127     364
   9 -15   2    2707     384
   9 -15   1    2238     411
   9 -15   0    3806     407
   9 -15  -1    2105     379
   9 -15  -2    2964     444
   9 -15  -3     856     356
  -9  15   3     611     333
   9 -15  -4    1534     334
  -9  15   4    1233     339
   9 -15  -5    1178     343
  -9  15   5    1021     358
   9 -15  -6       9     310
  -9  15   6       9     301
   9 -15  -7     396     282
  -9  15   7     380     304
   9 -15  -8      50     297
  -9  15   8     119     286
   9 -15  -9     425     320
  -9  15   9       3     309
   9 -15 -10     202     260
  -9  15  10     587     334
   9 -15 -11     908     334
  -9  15  11     770     352
   9 -15 -12      13     265
  -9  15  12      83     297
   8 -14  13       2     301
   8 -14  12     144     262
   8 -14  11     599     317
   8 -14  10     229     255
   8 -14   9    1195     302
   8 -14   8     100     285
   8 -14   7     701     273
   8 -14   6     789     285
   8 -14   5    2730     349
   8 -14   4     731     321
   8 -14   3    9823     614
   8 -14   2     994     297
   8 -14   1    2347     387
   8 -14   0    8225     534
   8 -14  -1    2411     358
   8 -14  -2     567     289
   8 -14  -3    9832     600
  -8  14   3    8658     593
   8 -14  -4     726     298
  -8  14   4     454     316
   8 -14  -5    2080     398
  -8  14   5    2717     394
   8 -14  -6     705     337
  -8  14   6     854     325
   8 -14  -7     453     277
  -8  14   7    1111     328
   8 -14  -8     141     309
  -8  14   8     117     293
   8 -14  -9    1083     339
  -8  14   9    1410     360
   8 -14 -10     130     291
  -8  14  10       6     291
   8 -14 -11     176     249
  -8  14  11     226     323
   8 -14 -12     399     303
  -8  14  12     559     345
   8 -14 -13     477     322
  -8  14  13      42     341
   7 -13  13     233     294
   7 -13  12     147     279
   7 -13  11      14     268
   7 -13  10     379     287
   7 -13   9     307     285
   7 -13   8    1070     290
   7 -13   7     256     293
   7 -13   6      30     239
   7 -13   5     108     235
   7 -13   4    6108     434
   7 -13   3    4052     388
   7 -13   2     156     242
   7 -13   1     320     256
   7 -13   0     421     261
   7 -13  -1     389     295
   7 -13  -2     289     290
  -7  13   2     352     237
   7 -13  -3    3857     382
  -7  13   3    3613     388
   7 -13  -4    5769     449
  -7  13   4    6722     523
   7 -13  -5     299     300
  -7  13   5      19     240
   7 -13  -6       8     294
  -7  13   6       1     276
   7 -13  -7      32     297
  -7  13   7     409     304
   7 -13  -8    1136     352
  -7  13   8     824     329
   7 -13  -9     356     307
  -7  13   9     804     328
   7 -13 -10       1     275
  -7  13  10       1     286
   7 -13 -11     193     281
  -7  13  11      52     309
   7 -13 -12      18     225
  -7  13  12      18     300
   7 -13 -13     569     301
  -7  13  13      59     328
   6 -12  14     160     295
   6 -12  13      35     281
   6 -12  12       0     262
   6 -12  11     191     228
   6 -12  10     517     274
   6 -12   9    1080     309
   6 -12   8      29     257
   6 -12   7     581     247
   6 -12   6    5763     465
   6 -12   5    3045     374
   6 -12   4    5061     369
   6 -12   3    2034     319
   6 -12   2     756     247
   6 -12   1    8759     524
   6 -12   0    1444     271
   6 -12  -1    8298     514
   6 -12  -2     615     278
  -6  12   2     451     221
   6 -12  -3    2004     300
  -6  12   3    1989     315
   6 -12  -4    4725     403
  -6  12   4    4859     402
   6 -12  -5    2962     389
  -6  12   5    2786     378
   6 -12  -6    4435     427
  -6  12   6    5559     479
   6 -12  -7     192     252
  -6  12   7     420     300
   6 -12  -8      39     286
  -6  12   8     114     290
   6 -12  -9      94     284
  -6  12   9     424     307
   6 -12 -10     120     282
  -6  12  10     423     305
   6 -12 -11       0     232
  -6  12  11       5     286
   6 -12 -12     458     306
  -6  12  12     330     316
   6 -12 -13     517     288
  -6  12  13     197     312
   6 -12 -14     267     310
  -6  12  14     501     354
   5 -11  14     124     284
   5 -11  13     991     316
   5 -11  12      10     258
   5 -11  11     329     252
   5 -11  10     232     251
   5 -11   9      40     241
   5 -11   8     287     255
   5 -11   7    7704     485
   5 -11   6    2713     340
   5 -11   5    3860     370
   5 -11   4     643     213
   5 -11   3     446     195
   5 -11   2    2366     311
   5 -11   1    9530     528
   5 -11   0    1802     318
   5 -11  -1    9734     563
   5 -11  -2    2093     281
  -5  11   2    1942     294
   5 -11  -3     440     209
  -5  11   3     269     220
   5 -11  -4     534     270
  -5  11   4     234     244
   5 -11  -5    4021     366
   5 -11  -5    3534     186
  -5  11   5    3845     378
   5 -11  -6    2085     335
  -5  11   6    1742     313
   5 -11  -7    7043     474
  -5  11   7    6969     478
   5 -11  -8      11     270
  -5  11   8     366     252
   5 -11  -9     152     288
  -5  11   9     432     290
   5 -11 -10       3     259
  -5  11  10      94     271
   5 -11 -11     166     273
  -5  11  11     202     283
   5 -11 -12      10     254
  -5  11  12      10     278
   5 -11 -13    1209     333
  -5  11  13     476     331
   5 -11 -14     407     300
  -5  11  14     150     318
   4 -10  14      22     255
   4 -10  13    1004     301
   4 -10  12     592     275
   4 -10  11     429     260
   4 -10  10     206     232
   4 -10   9     438     254
   4 -10   8    1102     284
   4 -10   7    9791     516
   4 -10   6    5000     390
   4 -10   5    9188     470
   4 -10   4     553     191
   4 -10   3    4495     331
   4 -10   2      70     209
   4 -10   1   15351     659
   4 -10   0    9860     430
   4 -10  -1   15910     677
   4 -10  -2     222     193
  -4  10   2     292     206
   4 -10  -3    4032     327
  -4  10   3    4391     374
   4 -10  -4     405     202
   4 -10  -4     849     108
  -4  10   4     582     231
   4 -10  -5    8972     511
  -4  10   5    8685     513
   4 -10  -6    4888     438
  -4  10   6    4581     416
   4 -10  -7    9435     545
  -4  10   7    9996     569
   4 -10  -8     966     312
  -4  10   8     755     305
   4 -10  -9       4     268
  -4  10   9     497     282
   4 -10 -10       0     257
  -4  10  10     211     269
   4 -10 -11      86     268
  -4  10  11      20     261
   4 -10 -12     611     304
  -4  10  12     641     304
   4 -10 -13    1427     342
  -4  10  13     466     315
   4 -10 -14     408     260
  -4  10  14     332     328
   3  -9  14     349     254
   3  -9  13       4     258
   3  -9  12     711     258
   3  -9  11     313     232
   3  -9  10       1     224
   3  -9   9       2     238
   3  -9   8    2476     300
   3  -9   7     722     218
   3  -9   6   18134     750
   3  -9   5    3627     320
   3  -9   4       1     150
   3  -9   3     349     188
   3  -9   2     707     207
   3  -9   1     990     196
   3  -9   0   30120    1320
   3  -9  -1     698     212
   3  -9  -2     547     211
  -3   9   2     599     200
   3  -9  -3     270     179
   3  -9  -3     258      99
  -3   9   3     131     162
   3  -9  -4      26     197
   3  -9  -4      26      75
  -3   9   4      26     162
   3  -9  -5    3626     311
  -3   9   5    3298     327
   3  -9  -6   16058     727
  -3   9   6   18252     772
   3  -9  -7     978     246
  -3   9   7     810     261
   3  -9  -8    2123     328
  -3   9   8    1963     320
   3  -9  -9       2     258
  -3   9   9      22     248
   3  -9 -10       1     265
  -3   9  10       1     248
   3  -9 -11     180     262
  -3   9  11     129     250
   3  -9 -12    1146     314
  -3   9  12    1097     327
   3  -9 -13      20     266
  -3   9  13       9     269
   3  -9 -14     650     297
  -3   9  14       2     276
   3  -9 -15     238     296
  -3   9  15      21     308
   2  -8  15     217     288
   2  -8  14      26     222
   2  -8  13     328     234
   2  -8  12     427     224
   2  -8  11     302     213
   2  -8  10     374     245
   2  -8   9    1956     287
   2  -8   8      13     190
   2  -8   7    3556     306
   2  -8   6    6948     388
   2  -8   5    1113     194
   2  -8   4    1270     204
   2  -8   3    1437     220
   2  -8   2    1506     226
   2  -8   1    6501     300
   2  -8   0    4131     306
   2  -8  -1    6753     337
   2  -8  -2    1128     142
   2  -8  -2    1206     228
  -2   8   2     988     195
   2  -8  -3     758     212
   2  -8  -3    1116     124
  -2   8   3    1320     211
   2  -8  -4    1267     225
   2  -8  -4    1316     113
  -2   8   4     844     190
   2  -8  -5    1265     216
  -2   8   5    1240     224
   2  -8  -6    6641     424
  -2   8   6    6620     432
   2  -8  -7    3897     372
  -2   8   7    3714     362
   2  -8  -8      22     236
  -2   8   8      67     224
   2  -8  -9    1493     282
  -2   8   9    2079     315
   2  -8 -10     262     226
  -2   8  10     316     274
   2  -8 -11       4     252
  -2   8  11       4     245
   2  -8 -12     607     292
  -2   8  12     226     259
   2  -8 -13     713     290
  -2   8  13     395     305
   2  -8 -14      43     276
  -2   8  14      12     265
   2  -8 -15     320     304
  -2   8  15      33     302
   1  -7  15     892     298
   1  -7  14     173     240
   1  -7  14     109     261
   1  -7  13     356     236
   1  -7  13     122     264
   1  -7  12     227     209
   1  -7  11     412     225
   1  -7  10      28     210
   1  -7   9    3723     325
   1  -7   8    1194     234
   1  -7   7    3008     281
   1  -7   6     202     152
   1  -7   5    6919     356
   1  -7   4    2741     250
   1  -7   3   18467     643
   1  -7   2     376     155
   1  -7   1    7985     326
   1  -7   0   11218     480
   1  -7  -1    7692     263
   1  -7  -1    7638     299
   1  -7  -2     231     170
   1  -7  -2     441     108
   1  -7  -3   18508     678
   1  -7  -3   19291     626
  -1   7   3   20101     711
   1  -7  -4    2964     294
   1  -7  -4    2415     166
  -1   7   4    2873     277
   1  -7  -5    6884     375
  -1   7   5    6788     396
   1  -7  -6     366     212
  -1   7   6      81     190
   1  -7  -7    3621     360
  -1   7   7    3326     345
   1  -7  -8    1162     269
  -1   7   8     659     232
   1  -7  -9    3513     370
  -1   7   9    3616     352
   1  -7 -10       0     245
  -1   7  10     312     247
   1  -7 -11     977     287
  -1   7  11     428     248
   1  -7 -12     427     265
  -1   7  12       8     253
   1  -7 -13       1     260
  -1   7  13       1     248
   1  -7 -14     258     277
  -1   7  14      12     287
   1  -7 -15     466     301
  -1   7  15      66     308
   0  -6  15      51     293
   0  -6  14     312     280
   0  -6  13     218     197
   0  -6  13     227     281
   0  -6  12       0     257
   0  -6  12     470     228
   0  -6  11     646     229
   0  -6  11     416     286
   0  -6  10    3961     344
   0  -6   9    2588     273
   0  -6   8      34     166
   0  -6   7     144     147
   0  -6   6    3880     282
   0  -6   5    7446     399
   0  -6   4   12758     535
   0  -6   3   12616     542
   0  -6   2   22183     811
   0  -6   1    3923     297
   0  -6   1    4300     289
   0  -6   0   13507     636
   0  -6   0   13729     630
   0  -6  -1    4031     262
   0  -6  -1    4013     287
   0  -6  -2   21943     786
   0  -6  -2   21888     810
   0  -6  -3   12588     569
   0  -6  -3   13038     523
   0   6   3   12851     585
   0  -6  -4   12941     567
   0  -6  -4   12133     490
   0   6   4   12485     568
   0  -6  -5    7495     329
   0  -6  -5    7657     428
   0   6   5    7269     435
   0  -6  -6    3560     301
   0   6   6    3691     320
   0  -6  -7     535     220
   0   6   7     223     179
   0  -6  -8      17     205
   0   6   8      17     181
   0  -6  -9    2269     296
   0   6   9    2186     306
   0  -6 -10    3750     395
   0   6  10    3303     350
   0  -6 -11     600     277
   0   6  11     763     278
   0  -6 -12     678     277
   0   6  12       0     231
   0  -6 -13     104     257
   0   6  13       0     244
   0  -6 -14       0     272
   0   6  14       8     275
   0  -6 -15     246     290
   0   6  15     193     298
  -1  -5  15     183     303
  -1  -5  14     510     303
  -1  -5  13     229     259
  -1  -5  13     249     225
  -1  -5  12     105     236
  -1  -5  12     445     200
  -1  -5  11    1160     228
  -1  -5  11     711     291
  -1  -5  10    7143     416
  -1  -5  10    7216     490
  -1  -5   9    2220     248
  -1  -5   9    1797     288
  -1  -5   8     358     213
  -1  -5   8     133     148
  -1  -5   7    6393     402
  -1  -5   7    6621     330
  -1  -5   6   10175     455
  -1  -5   6    9927     524
  -1  -5   5    8531     402
  -1  -5   5    8362     334
  -1  -5   4   10339     452
  -1  -5   4    9728     395
  -1  -5   3   31480     921
  -1  -5   3   31018     865
  -1  -5   2   58787    1981
  -1  -5   2   58909    2052
  -1  -5   1   11587     456
  -1  -5   1   11223     437
  -1  -5   0     494     139
  -1  -5   0     651     131
  -1  -5  -1    7002     274
  -1  -5  -2   59125    2013
  -1  -5  -2   57596    1992
  -1  -5  -3   29093     811
  -1  -5  -3   28725     839
   1   5   3   28814     846
  -1  -5  -4   10861     391
  -1  -5  -4   10578     441
   1   5   4    9458     437
  -1  -5  -5    7788     370
  -1  -5  -5    7440     283
   1   5   5    8382     362
  -1  -5  -6    8942     469
  -1  -5  -6    8960     383
   1   5   6   10218     487
  -1  -5  -7    6265     369
   1   5   7    6677     387
  -1  -5  -8     596     225
   1   5   8     706     198
  -1  -5  -9    2291     298
   1   5   9    2153     274
  -1  -5 -10    7116     490
   1   5  10    6792     477
  -1  -5 -11     664     255
   1   5  11     385     253
  -1  -5 -12     549     247
   1   5  12     144     246
  -1  -5 -13     401     276
   1   5  13     388     274
  -1  -5 -14     622     287
   1   5  14     198     275
  -1  -5 -15      22     232
   1   5  15       2     281
  -2  -4  15     341     306
  -2  -4  14      46     268
  -2  -4  13     195     256
  -2  -4  12     128     269
   2   4 -12      23     193
  -2  -4  11     945     284
   2   4 -11     993     234
  -2  -4  10    1888     227
  -2  -4  10    1512     292
   2   4 -10    1384     222
  -2  -4   9    3725     267
  -2  -4   9    4215     374
  -2  -4   8     132     141
  -2  -4   8     211     208
  -2  -4   7    1590     170
  -2  -4   7    1429     237
  -2  -4   6   15538     558
  -2  -4   6   14762     633
  -2  -4   5     788     187
  -2  -4   5     887     130
  -2  -4   4    1118     128
  -2  -4   4    1043     163
  -2  -4   3   26142     856
  -2  -4   3   27039     923
  -2  -4   2   17212     645
  -2  -4   2   17364     696
  -2  -4   1    2570     217
  -2  -4   1    2578     198
  -2  -4   0    1981     169
  -2  -4   0    1800     173
  -2  -4  -1     986     104
  -2  -4  -2   18595     728
  -2  -4  -2   19710     735
  -2  -4  -3   25937     861
  -2  -4  -3   26313     872
   2   4   3   25667     875
  -2  -4  -4    1646     192
  -2  -4  -4    1564     144
   2   4   4    1128     150
  -2  -4  -5    1138     177
  -2  -4  -5    1143     136
   2   4   5     934     171
  -2  -4  -6   14307     528
  -2  -4  -6   14879     599
   2   4   6   14170     575
  -2  -4  -7    1249     206
  -2  -4  -7    1641     148
   2   4   7    1388     199
  -2  -4  -8     378     218
   2   4   8     237     180
  -2  -4  -9    4007     372
   2   4   9    3847     324
  -2  -4 -10    1759     286
   2   4  10    1567     266
  -2  -4 -11     612     287
   2   4  11    1203     272
  -2  -4 -12     512     290
   2   4  12      23     228
  -2  -4 -13     233     271
   2   4  13      23     243
  -2  -4 -14     197     275
   2   4  14      85     260
  -2  -4 -15     662     319
  -3  -3  15     105     269
  -3  -3  14     100     278
  -3  -3  13     452     254
  -3  -3  12       5     243
   3   3 -12      78     191
  -3  -3  11    2886     351
   3   3 -11    2639     274
  -3  -3  10     125     216
   3   3 -10      49     162
  -3  -3   9    2160     311
   3   3  -9    2072     222
  -3  -3   8    2907     319
   3   3  -8    2754     235
  -3  -3   7    8173     423
  -3  -3   7    8434     336
  -3  -3   6   21107     840
  -3  -3   6   21093     749
  -3  -3   5    8539     469
  -3  -3   5    8160     551
  -3  -3   4   26318     813
  -3  -3   4   27000     900
  -3  -3   3   24505     707
  -3  -3   3   23263     776
  -3  -3   2      26     135
  -3  -3   2      25      89
  -3  -3   1   42411    1676
  -3  -3   1   42433    1596
  -3  -3   0    1857     205
  -3  -3   0    1838     170
  -3  -3  -1   42451    1606
  -3  -3  -1   41945    1655
  -3  -3  -2     155      69
  -3  -3  -2     155     122
  -3  -3  -3   22994     734
  -3  -3  -3   23120     732
  -3  -3  -4   25753     855
  -3  -3  -4   26092     851
   3   3   4   26650     848
  -3  -3  -5    8819     552
  -3  -3  -5    9012     532
   3   3   5    8987     536
  -3  -3  -6   20139     802
  -3  -3  -6   20699     776
   3   3   6   21019     788
  -3  -3  -7    8555     422
  -3  -3  -7    8319     351
   3   3   7    7643     378
  -3  -3  -8    2922     309
   3   3   8    2641     263
  -3  -3  -9    1613     269
   3   3   9    1868     248
  -3  -3 -10     361     225
   3   3  10     258     212
  -3  -3 -11    2199     353
   3   3  11    2356     301
  -3  -3 -12      11     212
   3   3  12       5     212
  -3  -3 -13     832     292
   3   3  13     294     241
  -3  -3 -14     571     306
  -3  -3 -15      30     289
  -4  -2  15      50     255
  -4  -2  14       7     259
  -4  -2  13     122     259
  -4  -2  12     114     249
  -4  -2  11     595     263
   4   2 -11    1157     223
  -4  -2  10    1965     286
   4   2 -10    1731     214
  -4  -2   9    4017     349
   4   2  -9    3632     258
  -4  -2   8       9     181
   4   2  -8     314     130
  -4  -2   7    1435     231
   4   2  -7    1395     139
  -4  -2   6   13974     593
  -4  -2   6   14687     500
  -4  -2   5    1210     105
  -4  -2   5    1149     190
  -4  -2   4    1874     195
  -4  -2   4    1478      96
  -4  -2   3   26467     914
  -4  -2   3   27290     818
  -4  -2   2   18812     757
  -4  -2   2   18772     668
  -4  -2   1    2705     226
  -4  -2   1    2416     146
  -4  -2   0    1732     134
  -4  -2   0    2012     199
  -4  -2  -1    2583     225
  -4  -2  -1    2586     193
  -4  -2  -2   16368     670
  -4  -2  -2   17162     647
  -4  -2  -3   26221     879
  -4  -2  -4    1207     159
  -4  -2  -4     929     167
   4   2   4    1626     141
  -4  -2  -5     929     158
  -4  -2  -5     753     163
   4   2   5    1036     140
  -4  -2  -6   14165     547
  -4  -2  -6   13574     561
   4   2   6   13589     525
  -4  -2  -7    1682     221
  -4  -2  -7    1511     186
   4   2   7    1431     173
  -4  -2  -8     431     159
  -4  -2  -8     247     215
   4   2   8     328     163
  -4  -2  -9    3778     367
   4   2   9    3722     286
  -4  -2 -10    1508     273
   4   2  10    1475     241
  -4  -2 -11     790     262
   4   2  11     768     238
  -4  -2 -12      80     222
   4   2  12      24     203
  -4  -2 -13     285     239
  -4  -2 -14     331     287
  -4  -2 -15     114     295
  -5  -1  15       2     247
  -5  -1  14     737     275
  -5  -1  14     500     289
  -5  -1  13     281     259
  -5  -1  12      76     247
  -5  -1  11     664     247
  -5  -1  10    7629     480
   5   1 -10    6615     356
  -5  -1   9    2304     295
   5   1  -9    2079     202
  -5  -1   8     230     192
   5   1  -8     419     120
  -5  -1   7    6512     382
   5   1  -7    6799     282
  -5  -1   6    9574     485
   5   1  -6    9646     380
  -5  -1   5    7675     244
  -5  -1   5    7625     359
  -5  -1   4   10532     454
  -5  -1   3   28066     828
  -5  -1   2   58592    2048
  -5  -1   2   57641    1915
  -5  -1   1   11762     457
  -5  -1   1   11897     376
  -5  -1   0     512      99
  -5  -1   0     611     161
  -5  -1  -1   11932     428
  -5  -1  -1   11810     476
  -5  -1  -2   57657    2051
  -5  -1  -2   59657    1984
  -5  -1  -3   30487     870
  -5  -1  -3   30840     900
  -5  -1  -4    9762     409
  -5  -1  -5    8075     347
  -5  -1  -5    7713     345
   5   1   5    7431     290
  -5  -1  -6    9771     488
  -5  -1  -6   10092     481
   5   1   6    9418     429
  -5  -1  -7    6211     347
  -5  -1  -7    6021     360
   5   1   7    6374     312
  -5  -1  -8     335     188
  -5  -1  -8     317     180
   5   1   8     316     153
  -5  -1  -9    1630     302
   5   1   9    2172     230
  -5  -1 -10    7475     465
   5   1  10    6780     412
  -5  -1 -11     680     282
   5   1  11     696     220
  -5  -1 -12     141     225
  -5  -1 -13      32     267
  -5  -1 -14     238     242
  -5  -1 -15     238     293
  -6   0  15       1     292
  -6   0  14     181     258
  -6   0  13     312     251
  -6   0  13       0     245
  -6   0  12     445     262
  -6   0  11     819     266
  -6   0  10    3638     367
   6   0 -10    3259     257
  -6   0   9    2499     309
   6   0  -9    2619     207
  -6   0   8      17     203
   6   0  -8      17     106
  -6   0   7     571     187
   6   0  -7     500      98
  -6   0   6    3960     307
   6   0  -6    3493     183
  -6   0   5    7394     433
  -6   0   4   12462     560
  -6   0   3   11986     542
  -6   0   2   22244     833
   6   0  -2   21749     726
  -6   0   1    4099     317
  -6   0   1    4246     223
  -6   0   0   13757     580
  -6   0   0   13316     645
  -6   0  -1    4808     263
  -6   0  -1    4033     302
  -6   0  -2   21814     833
  -6   0  -2   22185     786
  -6   0  -3   12576     538
  -6   0  -3   13051     575
  -6   0  -4   12111     534
  -6   0  -4   12835     564
  -6   0  -5    7780     420
  -6   0  -5    7705     435
   6   0   5    7560     349
  -6   0  -6    3674     316
   6   0   6    3466     226
  -6   0  -7     393     198
  -6   0  -7     624     166
   6   0   7     256     116
  -6   0  -8       1     217
  -6   0  -8       3     182
   6   0   8      46     139
  -6   0  -9    1989     290
   6   0   9    2589     229
  -6   0 -10    3186     351
   6   0  10    3493     289
  -6   0 -11     496     282
  -6   0 -12     505     286
  -6   0 -13     504     290
  -6   0 -14       7     234
  -6   0 -15       2     293
  -7   1  15     442     279
  -7   1  14     165     267
  -7   1  13       1     226
  -7   1  13      50     245
  -7   1  12     108     246
  -7   1  12     376     252
  -7   1  11      18     229
  -7   1  11     247     232
  -7   1  10     388     253
  -7   1   9    4137     347
   7  -1  -9    3596     235
  -7   1   8     858     222
   7  -1  -8     761     125
  -7   1   7    3980     344
   7  -1  -7    2819     188
  -7   1   6     283     185
   7  -1  -6     233      72
  -7   1   5    8106     410
  -7   1   4    2682     262
  -7   1   3   17777     634
  -7   1   2     387     163
   7  -1  -2     178      74
  -7   1   1    7902     329
  -7   1   1    8159     238
  -7   1   0   11038     488
  -7   1   0   10922     423
  -7   1  -1    8413     278
  -7   1  -1    7911     333
  -7   1  -2     215     138
  -7   1  -2     208     118
  -7   1  -3   19395     669
  -7   1  -3   19826     713
  -7   1  -4    2302     221
  -7   1  -4    2690     273
  -7   1  -5    7021     379
  -7   1  -5    7159     394
  -7   1  -6      57     182
  -7   1  -6     371     192
   7  -1   6     180      83
  -7   1  -7    3317     342
  -7   1  -7    3369     337
   7  -1   7    3142     217
  -7   1  -8     612     215
  -7   1  -8     377     129
   7  -1   8     531     140
  -7   1  -9    4152     388
  -7   1  -9    2097     271
   7  -1   9    3671     260
  -7   1 -10      52     266
  -7   1 -11     544     237
  -7   1 -12     876     314
  -7   1 -13      63     241
  -7   1 -14      75     247
  -7   1 -15     757     294
  -8   2  15       6     285
  -8   2  14     359     282
  -8   2  13     576     252
  -8   2  12     661     269
  -8   2  12      43     241
  -8   2  11     437     245
  -8   2  11      90     233
  -8   2  10       5     238
  -8   2  10       5     233
  -8   2   9    1690     288
  -8   2   9    2240     306
  -8   2   8     143     204
   8  -2  -8      26     106
  -8   2   7    3634     319
   8  -2  -7    3301     191
  -8   2   6    6214     376
   8  -2  -6    6480     254
  -8   2   5    1433     210
   8  -2  -5    1118      83
  -8   2   4    1217     208
   8  -2  -4    1404      98
  -8   2   3     898     196
   8  -2  -3    1285     125
  -8   2   2    1063     187
   8  -2  -2    1459     134
  -8   2   1    6573     300
   8  -2  -1    6555     229
  -8   2   0    4280     320
  -8   2   0    4030     241
  -8   2  -1    6427     247
  -8   2  -1    5935     285
  -8   2  -1    6151     206
  -8   2  -2    1212     197
  -8   2  -2    1545     177
  -8   2  -2    1255     101
  -8   2  -3    1403     227
  -8   2  -3    1207     171
  -8   2  -4    1110     195
  -8   2  -4    1252     222
  -8   2  -5    1434     216
  -8   2  -5    1372     220
  -8   2  -6    6719     419
  -8   2  -6    6749     404
  -8   2  -7    3728     352
  -8   2  -7    4449     382
   8  -2   7    3321     198
  -8   2  -8      23     191
  -8   2  -8     299     241
   8  -2   8      23     112
  -8   2  -9    1693     286
  -8   2  -9    2007     300
  -8   2 -10     236     275
  -8   2 -11     515     249
  -8   2 -12    1066     277
  -8   2 -13     230     306
  -8   2 -14     217     316
  -8   2 -15     188     333
  -9   3  15      21     278
  -9   3  14     490     261
  -9   3  13       8     211
  -9   3  12    1138     302
  -9   3  11     223     237
  -9   3  11     121     251
  -9   3  10       2     194
  -9   3  10      34     230
  -9   3   9     201     230
  -9   3   9      63     231
  -9   3   8    2243     278
  -9   3   8    2062     293
   9  -3  -8    2113     172
  -9   3   7     773     220
  -9   3   7     337     215
   9  -3  -7     577     112
  -9   3   6   18501     748
  -9   3   6   17694     760
   9  -3  -6   18191     630
  -9   3   5    3709     310
  -9   3   5    3840     315
   9  -3  -5    3888     193
  -9   3   4      24     134
  -9   3   4      24     167
   9  -3  -4      11      93
  -9   3   3      72     124
  -9   3   3     157     169
   9  -3  -3      72     114
  -9   3   2     582      95
  -9   3   2     450     155
   9  -3  -2     642     118
  -9   3   1     875     193
  -9   3   1     635     122
   9  -3  -1    1028     124
  -9   3   0   31934    1313
  -9   3   0   30214    1380
   9  -3   0   31822    1301
  -9   3  -1     691     195
  -9   3  -1     869     103
  -9   3  -1     938     139
  -9   3  -2     320      79
  -9   3  -2     620     148
  -9   3  -2     487     163
  -9   3  -3      60     138
  -9   3  -3     334     190
  -9   3  -4      22     175
  -9   3  -4      22     157
  -9   3  -5    3707     344
  -9   3  -5    3785     320
  -9   3  -6   19426     834
  -9   3  -6   19365     798
  -9   3  -7     499     238
  -9   3  -7     377     210
  -9   3  -8    2434     327
  -9   3  -8    2293     330
  -9   3  -9       2     212
  -9   3  -9      39     258
  -9   3 -10       1     224
  -9   3 -11     259     250
  -9   3 -12    1576     352
  -9   3 -13       3     294
  -9   3 -14     656     334
  -9   3 -15      21     253
 -10   4  14      20     280
 -10   4  13     122     241
 -10   4  12     693     291
 -10   4  11     369     265
 -10   4  11     323     247
 -10   4  10     365     255
 -10   4  10       0     244
 -10   4   9     403     263
 -10   4   9     592     258
 -10   4   8    1117     279
 -10   4   8     768     242
 -10   4   7   10306     526
 -10   4   7    9872     542
  10  -4  -7   10153     392
 -10   4   6    3927     366
 -10   4   6    4595     363
  10  -4  -6    5040     253
 -10   4   5    9602     494
 -10   4   5   10413     505
  10  -4  -5    9174     389
 -10   4   4     848     201
 -10   4   4     952     197
  10  -4  -4     674     139
 -10   4   3    4489     330
 -10   4   3    4581     314
  10  -4  -3    4110     251
 -10   4   2     273     182
 -10   4   2      88      39
  10  -4  -2      92     122
 -10   4   1   15141     592
 -10   4   1   15355     652
  10  -4  -1   15426     576
 -10   4   0    9999     356
 -10   4   0    9657     420
  10  -4   0   10166     364
 -10   4  -1   14578     633
 -10   4  -1   15292     553
 -10   4  -1   15120     579
 -10   4  -2      37      93
 -10   4  -2     138     140
 -10   4  -2      64     188
 -10   4  -3    5190     371
 -10   4  -3    4430     307
 -10   4  -4     848     200
 -10   4  -4     720     232
 -10   4  -5    9458     472
 -10   4  -5    9776     534
 -10   4  -6    5492     439
 -10   4  -6    4961     398
 -10   4  -7    9698     555
 -10   4  -7   10606     543
 -10   4  -8    1006     305
 -10   4  -8     707     258
 -10   4  -9     489     270
 -10   4  -9     359     246
 -10   4 -10       0     224
 -10   4 -11      62     236
 -10   4 -12     593     279
 -10   4 -13     706     331
 -10   4 -14     132     331
 -11   5  14      99     299
 -11   5  13     922     311
 -11   5  12     309     237
 -11   5  11     178     228
 -11   5  10       3     237
 -11   5  10     155     251
 -11   5   9      42     202
 -11   5   9     198     244
 -11   5   8     165     243
 -11   5   8     171     232
 -11   5   7    6636     454
 -11   5   7    7226     476
  11  -5  -7    7731     336
 -11   5   6    2661     304
 -11   5   6    2740     314
  11  -5  -6    2570     206
 -11   5   5    4381     356
 -11   5   5    4352     349
  11  -5  -5    4192     265
 -11   5   4     753     218
 -11   5   4     991     201
  11  -5  -4     865     173
 -11   5   3     479     194
 -11   5   3     335     158
  11  -5  -3     131     147
 -11   5   2    1959     257
  11  -5  -2    2159     207
 -11   5   1    9777     512
 -11   5   1    8597     433
  11  -5  -1    8523     427
 -11   5   0    1692     209
 -11   5   0    1864     283
  11  -5   0    1745     226
 -11   5  -1    8865     394
 -11   5  -1    8855     478
  11  -5   1    7742     405
 -11   5  -2    2138     260
 -11   5  -2    2157     224
 -11   5  -2    2077     169
  11  -5   2    2105     224
 -11   5  -3      73     155
 -11   5  -3      73     170
 -11   5  -4     820     193
 -11   5  -4     854     250
 -11   5  -5    4984     410
 -11   5  -5    4397     366
 -11   5  -6    2453     313
 -11   5  -6    2895     318
 -11   5  -7    7253     495
 -11   5  -7    6616     429
 -11   5  -8     122     234
 -11   5  -8     319     277
 -11   5  -9      34     263
 -11   5  -9      41     225
 -11   5 -10      71     239
 -11   5 -11     385     298
 -11   5 -12       9     297
 -11   5 -13     705     335
 -11   5 -14     423     291
 -12   6  14      12     301
 -12   6  13     475     299
 -12   6  12     230     285
 -12   6  11     260     271
 -12   6  10     627     277
 -12   6  10     374     256
 -12   6   9     364     268
 -12   6   9     454     252
 -12   6   8       1     235
 -12   6   8     112     249
 -12   6   7      80     241
 -12   6   7     459     247
 -12   6   6    4715     416
 -12   6   6    4554     387
  12  -6  -6    5298     309
 -12   6   5    3202     340
 -12   6   5    3014     326
  12  -6  -5    2715     270
 -12   6   4    4717     339
 -12   6   4    4891     330
  12  -6  -4    4450     296
 -12   6   3    1983     275
 -12   6   3    2100     245
  12  -6  -3    1980     240
 -12   6   2     908     241
 -12   6   2     223     115
  12  -6  -2     822     186
 -12   6   1    8551     451
 -12   6   1    8736     506
  12  -6  -1    9181     454
 -12   6   0    1373     235
 -12   6   0    1651     199
  12  -6   0    1624     223
 -12   6  -1    8929     430
 -12   6  -1    8217     495
  12  -6   1    9494     458
 -12   6  -2     794     249
 -12   6  -2     650     147
  12  -6   2     669     192
 -12   6  -3    2311     313
  12  -6   3    2285     264
 -12   6  -4    4458     314
 -12   6  -4    5053     390
 -12   6  -5    2949     334
 -12   6  -5    2500     342
 -12   6  -6    4828     423
 -12   6  -6    5563     470
 -12   6  -7     140     274
 -12   6  -7     168     231
 -12   6  -8       4     276
 -12   6  -8      29     242
 -12   6  -9     345     288
 -12   6  -9     511     294
 -12   6 -10     752     270
 -12   6 -11      64     246
 -12   6 -12     423     331
 -12   6 -13     126     319
 -12   6 -14      21     332
 -13   7  13     134     259
 -13   7  12     668     296
 -13   7  11      14     268
 -13   7  10      12     273
 -13   7   9     292     259
 -13   7   9    1149     275
 -13   7   8    1201     311
 -13   7   8    1459     294
 -13   7   7     405     233
 -13   7   7     647     272
 -13   7   6       8     236
 -13   7   6     198     238
  13  -7  -6      49     181
 -13   7   5      18     213
 -13   7   5     353     243
  13  -7  -5      18     193
 -13   7   4    6159     409
 -13   7   4    5930     418
  13  -7  -4    5758     386
 -13   7   3    3219     309
 -13   7   3    3565     346
  13  -7  -3    4215     320
 -13   7   2     277     222
 -13   7   2     132     169
  13  -7  -2     179     194
 -13   7   1     500     185
 -13   7   1     390     232
  13  -7  -1     551     205
 -13   7   0     302     173
 -13   7   0     399     244
  13  -7   0     207     137
 -13   7  -1     486     218
 -13   7  -1     453     179
  13  -7   1     763     216
 -13   7  -2      88     241
 -13   7  -2      44     157
  13  -7   2     480     189
 -13   7  -3    3679     377
  13  -7   3    3979     338
 -13   7  -4    6097     473
  13  -7   4    6486     425
 -13   7  -5      18     236
 -13   7  -5      18     258
  13  -7   5      18     224
 -13   7  -6      10     274
 -13   7  -6      17     249
 -13   7  -7     641     313
 -13   7  -7     500     251
 -13   7  -8    1209     295
 -13   7  -8    1099     325
 -13   7  -9     996     331
 -13   7  -9    1023     324
 -13   7 -10     380     301
 -13   7 -11       2     296
 -13   7 -12      17     300
 -13   7 -13       1     273
 -14   8  13       1     247
 -14   8  12     142     301
 -14   8  11     357     294
 -14   8  10       6     257
 -14   8   9     786     291
 -14   8   9    1119     280
 -14   8   8     178     262
 -14   8   8     223     234
 -14   8   7     839     286
 -14   8   7    1208     277
 -14   8   6     629     260
 -14   8   6    1087     262
  14  -8  -6     861     230
 -14   8   5    2136     328
 -14   8   5    2664     316
  14  -8  -5    1866     278
 -14   8   4     258     258
 -14   8   4     335     251
  14  -8  -4     209     245
 -14   8   3    9455     558
 -14   8   3   10220     570
  14  -8  -3    9386     551
 -14   8   2     178     213
 -14   8   2     405     242
  14  -8  -2     367     208
 -14   8   1    2095     314
 -14   8   1    2334     267
  14  -8  -1    2449     285
 -14   8   0    7586     512
 -14   8   0    8389     446
 -14   8  -1    1960     324
 -14   8  -1    1847     246
  14  -8   1    2088     270
 -14   8  -2     576     189
 -14   8  -2     323     238
  14  -8   2     409     232
 -14   8  -3    9300     584
  14  -8   3   10034     555
 -14   8  -4     480     280
  14  -8   4     520     213
 -14   8  -5    2726     385
  14  -8   5    2019     291
 -14   8  -6    1004     332
  14  -8   6     655     246
 -14   8  -7     815     270
 -14   8  -7    1085     340
  14  -8   7    1044     273
 -14   8  -8     118     294
 -14   8  -8     579     291
 -14   8  -9    1421     360
 -14   8  -9     826     281
 -14   8 -10       6     243
 -14   8 -11     689     338
 -14   8 -12     200     326
 -14   8 -13       2     249
 -15   9  12      13     288
 -15   9  11      18     289
 -15   9  10     233     251
 -15   9   9     185     270
 -15   9   8      21     256
 -15   9   8     412     248
 -15   9   7    1147     289
 -15   9   7     823     273
 -15   9   6     112     222
 -15   9   6      50     240
 -15   9   5    1152     281
 -15   9   5     801     292
  15  -9  -5     698     260
 -15   9   4    1063     283
 -15   9   4    1135     277
  15  -9  -4    1480     291
 -15   9   3    1113     257
 -15   9   3    1090     287
  15  -9  -3     513     274
 -15   9   2    2741     306
 -15   9   2    3025     360
  15  -9  -2    3359     355
 -15   9   1    2543     361
 -15   9   1    1757     281
  15  -9  -1    2160     305
 -15   9   0    4519     404
 -15   9   0    4505     337
  15  -9   0    3234     295
 -15   9  -1    1861     344
 -15   9  -1    1552     251
  15  -9   1    2182     313
 -15   9  -2    2919     389
 -15   9  -2    2963     283
  15  -9   2    2948     344
 -15   9  -3     920     316
  15  -9   3     986     285
 -15   9  -4    1286     296
  15  -9   4     786     269
 -15   9  -5     709     325
  15  -9   5     933     260
 -15   9  -6       9     239
  15  -9   6     107     227
 -15   9  -7     355     316
  15  -9   7    1114     313
 -15   9  -8      19     271
  15  -9   8     244     239
 -15   9  -9     387     317
  15  -9   9     980     326
 -15   9 -10     375     272
  15  -9  10     491     268
 -15   9 -11      19     307
  15  -9  11     358     305
 -15   9 -12     181     284
  15  -9  12     316     266
 -16  10  11      61     306
 -16  10  10     127     289
 -16  10   9     398     286
 -16  10   8      38     227
 -16  10   8      94     264
 -16  10   7     682     264
 -16  10   7     388     268
 -16  10   6     245     247
 -16  10   6     354     274
 -16  10   5     348     236
 -16  10   5     648     258
  16 -10  -5       9     258
 -16  10   4     307     243
 -16  10   4     255     243
  16 -10  -4     138     266
 -16  10   3    1708     315
 -16  10   3    1964     351
  16 -10  -3    1372     332
 -16  10   2    1336     296
 -16  10   2    1352     327
  16 -10  -2    2067     349
 -16  10   1    1456     278
 -16  10   1    1632     330
  16 -10  -1    1894     302
 -16  10   0       9     235
 -16  10   0     135     279
  16 -10   0     117     260
 -16  10  -1     972     318
 -16  10  -1    1102     257
  16 -10   1    1112     287
 -16  10  -2    1665     354
  16 -10   2    1739     318
 -16  10  -3    1778     366
  16 -10   3    1556     323
 -16  10  -4      17     292
  16 -10   4      17     210
 -16  10  -5     517     298
  16 -10   5     645     239
 -16  10  -6       6     307
  16 -10   6      94     252
 -16  10  -7     593     328
  16 -10   7     601     264
 -16  10  -8      38     279
  16 -10   8      50     285
 -16  10  -9     924     361
  16 -10   9     114     304
  16 -10  10     379     288
  16 -10  11      77     270
 -17  11  11     146     304
 -17  11  10       6     281
 -17  11   9     193     290
 -17  11   8     456     292
 -17  11   7     441     284
 -17  11   7     492     258
 -17  11   6     227     254
 -17  11   6     188     277
 -17  11   5     302     263
 -17  11   5       6     261
 -17  11   4     774     265
 -17  11   4     530     263
  17 -11  -4     443     286
 -17  11   3     150     228
 -17  11   3     112     256
  17 -11  -3     129     298
 -17  11   2      21     245
 -17  11   2     163     258
  17 -11  -2       1     261
 -17  11   1       1     245
 -17  11   1     248     262
  17 -11  -1      23     191
 -17  11   0      28     256
 -17  11   0       1     234
  17 -11   0     140     278
 -17  11  -1       4     268
  17 -11   1       1     243
 -17  11  -2       1     230
  17 -11   2       1     250
 -17  11  -3     711     314
  17 -11   3      66     250
 -17  11  -4      89     281
  17 -11   4     654     273
 -17  11  -5       9     275
  17 -11   5     228     235
 -17  11  -6     272     303
  17 -11   6     224     239
 -17  11  -7     758     326
  17 -11   7     318     286
 -17  11  -8    1019     353
  17 -11   8     541     310
 -17  11  -9     353     290
  17 -11   9     594     327
  17 -11  10       7     241
  17 -11  11     212     326
 -18  12  10       6     302
 -18  12   9     399     316
 -18  12   8     280     321
 -18  12   7     118     317
 -18  12   7     190     271
 -18  12   6     415     325
 -18  12   6     625     288
 -18  12   5      72     274
 -18  12   5      10     263
 -18  12   4     736     290
 -18  12   4     110     264
  18 -12  -4     242     299
 -18  12   3      24     159
 -18  12   3     471     265
  18 -12  -3     357     306
 -18  12   2      10     249
 -18  12   2      91     258
  18 -12  -2      10     263
 -18  12   1     754     284
 -18  12   1     330     261
 -18  12   0      57     265
 -18  12   0       2     246
  18 -12   0       2     255
 -18  12  -1     459     293
  18 -12   1     315     274
 -18  12  -2     238     285
  18 -12   2       7     262
 -18  12  -3     870     287
  18 -12   3       3     273
 -18  12  -4     528     265
  18 -12   4     895     301
 -18  12  -5     435     323
  18 -12   5     348     254
 -18  12  -6     431     330
  18 -12   6     510     277
 -18  12  -7     627     338
  18 -12   7     263     321
 -18  12  -8      10     305
  18 -12   8     108     314
  18 -12   9       0     237
  18 -12  10     450     328
 -19  13   9     100     322
 -19  13   8      10     308
 -19  13   7       6     318
 -19  13   6     101     271
 -19  13   6     530     338
 -19  13   5     261     286
 -19  13   5     454     330
 -19  13   4     110     264
 -19  13   4      80     304
 -19  13   3    1255     321
  19 -13  -3    1241     347
 -19  13   2     133     277
 -19  13   2     287     298
  19 -13  -2     542     326
 -19  13   1       2     268
 -19  13   1      58     261
  19 -13  -1      10     187
 -19  13   0     513     300
  19 -13   0     439     325
 -19  13  -1     182     295
  19 -13   1     220     291
 -19  13  -2     315     295
  19 -13   2      58     285
 -19  13  -3    1370     364
  19 -13   3    1819     369
 -19  13  -4      56     302
  19 -13   4      18     289
 -19  13  -5     363     323
  19 -13   5      20     282
 -19  13  -6     255     279
  19 -13   6     100     299
 -19  13  -7     129     281
  19 -13   7       7     262
 -19  13  -8      10     288
  19 -13   8      10     259
  19 -13   9     987     393
 -20  14   8      93     338
 -20  14   7      15     342
 -20  14   6       4     319
 -20  14   5      32     318
 -20  14   5     315     293
 -20  14   4     443     329
 -20  14   4     730     288
 -20  14   3      46     154
 -20  14   3     584     293
  20 -14  -3     740     371
 -20  14   2     430     295
 -20  14   2     326     320
  20 -14  -2     259     327
 -20  14   1      94     275
  20 -14  -1     305     293
 -20  14   0      37     295
  20 -14   0      22     294
 -20  14  -1     258     292
  20 -14   1       6     314
 -20  14  -2     360     304
  20 -14   2     300     311
 -20  14  -3     978     343
  20 -14   3     227     269
 -20  14  -4     339     327
  20 -14   4     362     327
 -20  14  -5      33     287
  20 -14   5     193     324
 -20  14  -6     171     332
  20 -14   6       3     247
 -20  14  -7      34     321
  20 -14   7      17     313
 -20  14  -8     227     339
 -21  15   6       3     344
 -21  15   5       7     333
 -21  15   5      78     286
 -21  15   4     880     323
 -21  15   4     250     338
 -21  15   3      35     277
 -21  15   3     323     289
 -21  15   2       4     278
  21 -15  -2      19     305
 -21  15   1       8     290
  21 -15  -1     301     330
 -21  15   0     490     307
  21 -15   0     462     327
 -21  15  -1      10     277
  21 -15   1     257     328
 -21  15  -2     145     300
  21 -15   2       9     328
 -21  15  -3      86     307
  21 -15   3      32     249
 -21  15  -4     697     344
  21 -15   4      31     322
 -21  15  -5       8     239
  21 -15   5       8     317
 -21  15  -6       2     310
  21 -15   6      33     343
 -22  16   4     352     310
 -22  16   4      12     316
 -22  16   3     414     318
 -22  16   2      10     288
 -22  16   1     503     342
  22 -16  -1     639     381
 -22  16   0     312     329
  22 -16   0     588     360
 -22  16  -1       2     292
  22 -16   1       2     305
 -22  16  -2     358     331
  22 -16   2      10     345
 -22  16  -3     295     345
  22 -16   3       5     332
 -22  16  -4      40     327
  22 -16   4      12     322
  15 -22   4      21     399
  15 -22   3     624     418
  15 -22   2      16     321
  15 -22   1       8     377
  15 -22   0      36     402
  15 -22  -1      12     326
  15 -22  -2      18     398
  15 -22  -3     685     401
  15 -22  -4      39     389
  14 -21   6       6     379
  14 -21   5      23     371
  14 -21   4      16     368
  14 -21   3     771     427
  14 -21   2       3     308
  14 -21   1     498     331
  14 -21   0       1     332
  14 -21  -1       0     380
  14 -21  -2     192     393
  14 -21  -3     213     337
  14 -21  -4     406     386
  14 -21  -5      23     286
 -14  21   5     202     346
  14 -21  -6     579     404
 -14  21   6       7     330
  13 -20   8       7     380
  13 -20   7      28     357
  13 -20   6       3     380
  13 -20   5      30     309
  13 -20   4     689     351
  13 -20   3      29     372
  13 -20   2     688     337
  13 -20   1      86     373
  13 -20   0     282     327
  13 -20  -1       6     331
  13 -20  -2     603     336
  13 -20  -3      97     359
  13 -20  -4     290     361
  13 -20  -5      28     297
 -13  20   5     152     343
  13 -20  -6      12     305
 -13  20   6     203     344
  13 -20  -7     160     303
 -13  20   7     131     349
  13 -20  -8     253     314
 -13  20   8       5     349
  12 -19   9       3     297
  12 -19   8      15     320
  12 -19   7     107     306
  12 -19   6     132     318
  12 -19   5     131     373
  12 -19   4     663     387
  12 -19   3      10     329
  12 -19   2     501     367
  12 -19   1     468     329
  12 -19   0       9     298
  12 -19  -1     399     326
  12 -19  -2     416     361
  12 -19  -3     901     376
  12 -19  -4       5     346
 -12  19   4       5     317
  12 -19  -5     259     361
 -12  19   5     820     373
  12 -19  -6     446     364
 -12  19   6       3     277
  12 -19  -7      75     298
 -12  19   7     138     279
  12 -19  -8     149     337
 -12  19   8      15     336
  12 -19  -9       3     342
 -12  19   9     237     366
  11 -18  10       1     330
  11 -18   9       8     259
  11 -18   8       3     314
  11 -18   7     166     295
  11 -18   6     486     360
  11 -18   5     118     301
  11 -18   4      17     343
  11 -18   3     108     334
  11 -18   2     791     328
  11 -18   1      58     350
  11 -18   0     115     294
  11 -18  -1     176     351
  11 -18  -2     401     373
  11 -18  -3      73     334
  11 -18  -4       9     288
 -11  18   4       3     298
  11 -18  -5       3     318
 -11  18   5     105     311
  11 -18  -6     397     304
 -11  18   6     612     340
  11 -18  -7     836     382
 -11  18   7     269     349
  11 -18  -8       3     307
 -11  18   8       3     325
  11 -18  -9       8     259
 -11  18   9     282     343
  11 -18 -10     209     322
 -11  18  10      46     341
  10 -17  11       4     331
  10 -17  10       2     254
  10 -17   9     495     346
  10 -17   8       5     324
  10 -17   7       0     260
  10 -17   6    1204     381
  10 -17   5      38     308
  10 -17   4     546     351
  10 -17   3     280     340
  10 -17   2      14     331
  10 -17   1     716     352
  10 -17   0     944     368
  10 -17  -1     768     370
  10 -17  -2     397     355
  10 -17  -3     210     298
  10 -17  -4      12     270
 -10  17   4       9     303
  10 -17  -5      37     322
 -10  17   5     190     315
  10 -17  -6    1200     389
 -10  17   6     998     358
  10 -17  -7      87     282
 -10  17   7     469     353
  10 -17  -8      80     315
 -10  17   8     160     285
  10 -17  -9      88     339
 -10  17   9     219     284
  10 -17 -10       2     313
 -10  17  10       2     330
  10 -17 -11     102     311
 -10  17  11       5     327
   9 -16  12      81     347
   9 -16  11      22     311
   9 -16  10     193     316
   9 -16   9     344     331
   9 -16   8      28     262
   9 -16   7     776     337
   9 -16   6     801     295
   9 -16   5     476     333
   9 -16   4     640     346
   9 -16   3     638     323
   9 -16   2     425     309
   9 -16   1    1203     342
   9 -16   0    1024     334
   9 -16  -1     656     372
   9 -16  -2     940     334
   9 -16  -3    1034     336
  -9  16   3     556     307
   9 -16  -4      14     318
  -9  16   4      14     299
   9 -16  -5     579     359
  -9  16   5     484     324
   9 -16  -6    1538     378
  -9  16   6    1432     371
   9 -16  -7       2     315
  -9  16   7       2     255
   9 -16  -8     147     309
  -9  16   8      30     297
   9 -16  -9     328     335
  -9  16   9      14     303
   9 -16 -10     168     313
  -9  16  10      45     313
   9 -16 -11      21     300
  -9  16  11       9     316
   9 -16 -12     200     319
  -9  16  12     127     356
   8 -15  12       7     288
   8 -15  11      19     243
   8 -15  10     149     312
   8 -15   9       6     296
   8 -15   8      94     250
   8 -15   7     109     297
   8 -15   6     486     311
   8 -15   5      14     256
   8 -15   4    1167     374
   8 -15   3    1678     385
   8 -15   2     567     297
   8 -15   1    1956     365
   8 -15   0     258     278
   8 -15  -1    1793     357
   8 -15  -2     197     293
   8 -15  -3    2042     393
  -8  15   3    1917     377
   8 -15  -4    1386     345
  -8  15   4    1503     364
   8 -15  -5      18     329
  -8  15   5      15     294
   8 -15  -6     873     301
  -8  15   6     257     277
   8 -15  -7     102     257
  -8  15   7      55     300
   8 -15  -8     742     300
  -8  15   8     412     316
   8 -15  -9     408     307
  -8  15   9     282     317
   8 -15 -10     297     321
  -8  15  10      64     268
   8 -15 -11      17     278
  -8  15  11      17     300
   8 -15 -12       7     286
  -8  15  12      13     336
   7 -14  13       2     304
   7 -14  12       2     287
   7 -14  11       4     288
   7 -14  10       8     280
   7 -14   9     164     277
   7 -14   8     949     261
   7 -14   7    1177     330
   7 -14   6       4     286
   7 -14   5     176     287
   7 -14   4    3842     428
   7 -14   3     730     308
   7 -14   2    1505     328
   7 -14   1    1504     329
   7 -14   0    3843     413
   7 -14  -1    1383     324
   7 -14  -2    1206     317
   7 -14  -3     673     350
  -7  14   3    1045     310
   7 -14  -4    3071     418
  -7  14   4    3414     405
   7 -14  -5      33     303
  -7  14   5     375     303
   7 -14  -6       4     262
  -7  14   6       4     294
   7 -14  -7    1079     334
  -7  14   7    1602     307
   7 -14  -8      38     297
  -7  14   8     415     252
   7 -14  -9     264     296
  -7  14   9      73     286
   7 -14 -10     330     307
  -7  14  10     140     311
   7 -14 -11      24     245
  -7  14  11     381     328
   7 -14 -12       2     269
  -7  14  12       2     301
   7 -14 -13     113     299
  -7  14  13       3     317
   6 -13  13     353     290
   6 -13  12      20     271
   6 -13  11      62     272
   6 -13  10      27     272
   6 -13   9     852     300
   6 -13   8     810     315
   6 -13   7     524     298
   6 -13   6       9     233
   6 -13   5     485     280
   6 -13   4    6373     451
   6 -13   3    3849     382
   6 -13   2     337     246
   6 -13   1     458     254
   6 -13   0     367     252
   6 -13  -1     393     290
   6 -13  -2     365     245
   6 -13  -3    4095     416
  -6  13   3    3434     382
   6 -13  -4    5955     449
  -6  13   4    5753     454
   6 -13  -5      20     246
  -6  13   5     585     300
   6 -13  -6       9     284
  -6  13   6       9     286
   6 -13  -7     624     293
  -6  13   7     432     306
   6 -13  -8    1411     358
  -6  13   8    1166     331
   6 -13  -9     355     293
  -6  13   9     621     313
   6 -13 -10     259     292
  -6  13  10       1     294
   6 -13 -11       3     277
  -6  13  11      44     299
   6 -13 -12      19     287
  -6  13  12     224     328
   6 -13 -13     424     306
  -6  13  13     526     339
   5 -12  14      92     276
   5 -12  13     107     262
   5 -12  12     332     276
   5 -12  11      10     248
   5 -12  10     708     278
   5 -12   9    2032     336
   5 -12   8     307     277
   5 -12   7     491     280
   5 -12   6    2259     347
   5 -12   5    1777     321
   5 -12   4     410     267
   5 -12   3    6577     437
   5 -12   2      55     245
   5 -12   1    6404     461
   5 -12   0    4450     398
   5 -12  -1    5996     456
   5 -12  -2      16     209
   5 -12  -3    6888     452
  -5  12   3    7449     468
   5 -12  -4     221     281
  -5  12   4     327     268
   5 -12  -5    1567     303
   5 -12  -5    1509     146
  -5  12   5    1475     332
   5 -12  -6    2129     329
  -5  12   6    2125     355
   5 -12  -7     178     310
  -5  12   7     599     295
   5 -12  -8     162     256
  -5  12   8     296     292
   5 -12  -9    2034     373
  -5  12   9    1542     343
   5 -12 -10     164     242
  -5  12  10     254     290
   5 -12 -11     627     263
  -5  12  11     379     303
   5 -12 -12    1406     357
  -5  12  12     193     307
   5 -12 -13     331     299
  -5  12  13     465     365
   5 -12 -14     331     318
  -5  12  14      71     324
   4 -11  14      15     279
   4 -11  13     203     266
   4 -11  12    1060     323
   4 -11  11      22     232
   4 -11  10    1960     324
   4 -11   9      34     233
   4 -11   8     770     274
   4 -11   7     920     271
   4 -11   6    2946     312
   4 -11   5     644     243
   4 -11   4     881     232
   4 -11   3     166     238
   4 -11   2    3436     306
   4 -11   1     892     256
   4 -11   0   20902     854
   4 -11  -1     852     225
   4 -11  -2    4034     347
   4 -11  -3     295     213
  -4  11   3     711     253
   4 -11  -4    1088     284
   4 -11  -4    1251     149
  -4  11   4    1006     278
   4 -11  -5     272     100
   4 -11  -5     359     222
  -4  11   5     599     234
   4 -11  -6    2984     352
  -4  11   6    2585     350
   4 -11  -7     392     246
  -4  11   7     499     276
   4 -11  -8     980     290
  -4  11   8    1230     322
   4 -11  -9      35     276
  -4  11   9      35     274
   4 -11 -10    2093     333
  -4  11  10    1840     353
   4 -11 -11     475     286
  -4  11  11     657     307
   4 -11 -12    1628     349
  -4  11  12    1073     341
   4 -11 -13     394     294
  -4  11  13       0     284
   4 -11 -14      87     293
  -4  11  14     152     328
   3 -10  14      44     244
   3 -10  13     375     278
   3 -10  12     442     251
   3 -10  11     285     263
   3 -10  10     253     232
   3 -10   9     793     250
   3 -10   8     756     249
   3 -10   7    6781     439
   3 -10   6     617     234
   3 -10   5    4920     368
   3 -10   4     192     180
   3 -10   3   10671     519
   3 -10   2    2656     308
   3 -10   1    9667     499
   3 -10   0   14329     627
   3 -10  -1    8466     437
   3 -10  -2    3245     332
   3 -10  -3    9876     398
   3 -10  -3   10122     512
  -3  10   3   10539     524
   3 -10  -4     628     215
   3 -10  -4     452     113
  -3  10   4     228     225
   3 -10  -5    5059     365
  -3  10   5    5328     422
   3 -10  -6     709     252
  -3  10   6     679     264
   3 -10  -7    6657     482
  -3  10   7    6232     483
   3 -10  -8     605     288
  -3  10   8     700     290
   3 -10  -9    1035     304
  -3  10   9     164     303
   3 -10 -10       3     277
  -3  10  10     346     287
   3 -10 -11     145     233
  -3  10  11     613     288
   3 -10 -12     683     303
  -3  10  12      80     305
   3 -10 -13     619     300
  -3  10  13       1     281
   3 -10 -14     287     272
  -3  10  14      45     303
   2  -9  15     120     284
   2  -9  14     317     290
   2  -9  13     888     292
   2  -9  12     319     240
   2  -9  11     357     253
   2  -9  10      29     235
   2  -9   9     470     225
   2  -9   8    4192     361
   2  -9   7    3075     310
   2  -9   6    3447     310
   2  -9   5    2964     266
   2  -9   4   12434     547
   2  -9   3    6573     373
   2  -9   2     604     200
   2  -9   1    7532     421
   2  -9   0    4839     331
   2  -9  -1    8618     474
   2  -9  -2     283     195
   2  -9  -2     383     128
   2  -9  -3    5854     267
   2  -9  -3    6032     350
  -2   9   3    6329     386
   2  -9  -4   11582     544
   2  -9  -4   11345     448
  -2   9   4   13242     589
   2  -9  -5    3059     290
   2  -9  -5    2623     135
  -2   9   5    3036     295
   2  -9  -6    3196     317
  -2   9   6    3020     324
   2  -9  -7    3251     360
  -2   9   7    3280     349
   2  -9  -8    4010     392
  -2   9   8    4106     410
   2  -9  -9     922     305
  -2   9   9     361     268
   2  -9 -10      27     222
  -2   9  10     234     282
   2  -9 -11     367     288
  -2   9  11      11     272
   2  -9 -12     459     291
  -2   9  12      86     265
   2  -9 -13     513     301
  -2   9  13       5     291
   2  -9 -14      17     279
  -2   9  14     109     320
   2  -9 -15     627     318
  -2   9  15      32     306
   1  -8  15     101     313
   1  -8  14     280     286
   1  -8  13     476     283
   1  -8  13      30     235
   1  -8  12     145     232
   1  -8  12       6     259
   1  -8  11     125     231
   1  -8  10     682     264
   1  -8   9    2555     280
   1  -8   8    3657     321
   1  -8   7    3826     305
   1  -8   6    3738     297
   1  -8   5    3788     284
   1  -8   4   17706     676
   1  -8   3    1778     235
   1  -8   2     778     205
   1  -8   1   12554     597
   1  -8   0     624     161
   1  -8   0     337     122
   1  -8  -1   12461     604
   1  -8  -1   11648     559
   1  -8  -2     718     211
   1  -8  -2     894     148
   1  -8  -3    1686     161
   1  -8  -3    1651     229
  -1   8   3    1546     233
   1  -8  -4   16884     685
   1  -8  -4   18083     611
  -1   8   4   17979     715
   1  -8  -5    2654     141
   1  -8  -5    2565     253
  -1   8   5    2770     269
   1  -8  -6    3603     333
  -1   8   6    3260     309
   1  -8  -7    4287     373
  -1   8   7    4048     355
   1  -8  -8    3139     351
  -1   8   8    3952     374
   1  -8  -9    2385     313
  -1   8   9    2404     320
   1  -8 -10     571     297
  -1   8  10     965     284
   1  -8 -11     256     269
  -1   8  11     463     276
   1  -8 -12     371     241
  -1   8  12     150     252
   1  -8 -13       3     264
  -1   8  13     103     296
   1  -8 -14       7     279
  -1   8  14       7     287
   1  -8 -15     145     305
  -1   8  15      29     286
   0  -7  15     438     296
   0  -7  14     357     312
   0  -7  13     271     272
   0  -7  12       9     211
   0  -7  12      51     247
   0  -7  11      17     207
   0  -7  11      25     235
   0  -7  10       0     182
   0  -7  10     228     274
   0  -7   9    3862     332
   0  -7   8    3649     310
   0  -7   7       1     162
   0  -7   6    3744     290
   0  -7   5    5961     319
   0  -7   4   28900     994
   0  -7   3    4723     373
   0  -7   2    4146     260
   0  -7   2    3793     258
   0  -7   1     917     145
   0  -7   1    1242     176
   0  -7   0      84     152
   0  -7   0      97     126
   0  -7  -1     988     130
   0  -7  -1    1208     156
   0  -7  -2    4059     210
   0  -7  -2    3990     245
   0  -7  -3    4603     379
   0  -7  -3    4498     326
   0   7   3    4708     407
   0  -7  -4   28119     945
   0  -7  -4   28821    1008
   0   7   4   28763    1021
   0  -7  -5    6009     348
   0  -7  -5    5805     247
   0   7   5    5336     358
   0  -7  -6    3294     298
   0   7   6    3858     348
   0  -7  -7      18     190
   0   7   7       6     200
   0  -7  -8    3730     373
   0   7   8    3438     337
   0  -7  -9    3306     350
   0   7   9    3287     345
   0  -7 -10       0     221
   0   7  10      80     233
   0  -7 -11     163     271
   0   7  11     181     269
   0  -7 -12      41     226
   0   7  12       3     237
   0  -7 -13     305     245
   0   7  13       0     271
   0  -7 -14     241     288
   0   7  14       4     278
   0  -7 -15     285     304
   0   7  15     245     313
  -1  -6  15     308     311
  -1  -6  14     287     277
  -1  -6  13      27     266
  -1  -6  12     359     204
  -1  -6  12     935     309
  -1  -6  11     350     204
  -1  -6  11     669     273
  -1  -6  10     384     200
  -1  -6  10     340     264
  -1  -6   9    3620     378
  -1  -6   9    4147     317
  -1  -6   8     783     190
  -1  -6   8     510     249
  -1  -6   7    3082     354
  -1  -6   7    3470     271
  -1  -6   6     237     203
  -1  -6   6      88     140
  -1  -6   5    7475     402
  -1  -6   5    7806     359
  -1  -6   4    2549     249
  -1  -6   4    2560     228
  -1  -6   3   19528     701
  -1  -6   3   18944     648
  -1  -6   2     261     151
  -1  -6   2     203     145
  -1  -6   1    7948     299
  -1  -6   1    7295     283
  -1  -6   0   11119     480
  -1  -6   0   11682     483
  -1  -6  -1    7693     289
  -1  -6  -2     345     123
  -1  -6  -2     123     124
  -1  -6  -3   19889     667
  -1  -6  -3   19851     702
  -1  -6  -4    2408     200
  -1  -6  -4    2671     257
   1   6   4    2648     260
  -1  -6  -5    6716     367
  -1  -6  -5    6695     297
   1   6   5    7270     381
  -1  -6  -6     165     201
  -1  -6  -6     345     103
   1   6   6     285     175
  -1  -6  -7    2851     194
  -1  -6  -7    3449     355
   1   6   7    3789     360
  -1  -6  -8     504     220
   1   6   8     677     222
  -1  -6  -9    3440     373
   1   6   9    3888     355
  -1  -6 -10      97     229
   1   6  10       0     244
  -1  -6 -11     317     238
   1   6  11     718     265
  -1  -6 -12     246     232
   1   6  12     117     250
  -1  -6 -13     283     282
   1   6  13     155     269
  -1  -6 -14      11     277
   1   6  14      11     272
  -1  -6 -15     199     285
   1   6  15     153     296
  -2  -5  15      16     278
  -2  -5  14     107     292
  -2  -5  13       4     247
  -2  -5  12     860     286
  -2  -5  11     268     259
  -2  -5  11      19     180
  -2  -5  10    1150     294
  -2  -5  10    1266     220
  -2  -5   9    1498     203
  -2  -5   9    1427     290
  -2  -5   8     547     211
  -2  -5   8    1128     185
  -2  -5   7     559     142
  -2  -5   7     684     198
  -2  -5   6    2707     212
  -2  -5   6    3129     294
  -2  -5   5    1925     164
  -2  -5   5    1667     219
  -2  -5   4    2154     183
  -2  -5   4    2107     241
  -2  -5   3    3932     221
  -2  -5   3    3912     258
  -2  -5   2    8414     421
  -2  -5   2    8293     449
  -2  -5   1    3645     263
  -2  -5   1    3608     280
  -2  -5   0   35769    1365
  -2  -5   0   37358    1410
  -2  -5  -1    1513     143
  -2  -5  -2    7179     390
  -2  -5  -2    7197     401
  -2  -5  -3    3935     241
  -2  -5  -3    3614     207
  -2  -5  -4    2147     184
  -2  -5  -4    2492     238
   2   5   4    2228     218
  -2  -5  -5    1795     199
  -2  -5  -5    1879     152
   2   5   5    1699     185
  -2  -5  -6    2812     260
  -2  -5  -6    3109     195
   2   5   6    3086     255
  -2  -5  -7     334     115
  -2  -5  -7     213     174
   2   5   7     453     190
  -2  -5  -8     933     255
   2   5   8     789     225
  -2  -5  -9    1336     291
   2   5   9    1117     230
  -2  -5 -10    1295     312
   2   5  10    1146     263
  -2  -5 -11      97     228
   2   5  11      88     235
  -2  -5 -12    1180     310
   2   5  12     740     264
  -2  -5 -13       3     274
   2   5  13       3     247
  -2  -5 -14       5     274
   2   5  14       5     250
  -2  -5 -15      16     266
  -3  -4  15      10     287
  -3  -4  14       2     271
  -3  -4  13    1102     297
  -3  -4  12      45     242
  -3  -4  11     219     170
  -3  -4  11     614     265
  -3  -4  10    1074     205
  -3  -4  10    1222     285
  -3  -4   9     247     155
  -3  -4   9     420     241
  -3  -4   8     588     229
  -3  -4   8     703     153
  -3  -4   7    2360     200
  -3  -4   7    2407     292
  -3  -4   6    2582     185
  -3  -4   6    2551     252
  -3  -4   5   12563     585
  -3  -4   5   12926     497
  -3  -4   4     329     178
  -3  -4   4     373     126
  -3  -4   3    3905     278
  -3  -4   3    3815     219
  -3  -4   2     222     154
  -3  -4   2     136     104
  -3  -4   1   19109     730
  -3  -4   1   19671     787
  -3  -4   0    5089     333
  -3  -4   0    4579     355
  -3  -4  -1   19834     778
  -3  -4  -1   21199     807
  -3  -4  -2      32     109
  -3  -4  -2      14     103
  -3  -4  -3    3799     265
  -3  -4  -3    3495     245
  -3  -4  -4     190     147
  -3  -4  -4      95     137
   3   4   4     240     142
  -3  -4  -5   12602     552
  -3  -4  -5   12433     521
   3   4   5   12942     543
  -3  -4  -6    2502     263
  -3  -4  -6    2679     203
   3   4   6    2482     219
  -3  -4  -7    2080     202
  -3  -4  -7    2553     294
   3   4   7    2386     241
  -3  -4  -8     675     238
  -3  -4  -8     923     163
   3   4   8     832     206
  -3  -4  -9     116     245
   3   4   9     384     205
  -3  -4 -10    1129     267
   3   4  10    1026     247
  -3  -4 -11      35     225
   3   4  11     362     230
  -3  -4 -12     268     241
   3   4  12       5     224
  -3  -4 -13    1019     318
   3   4  13    1566     296
  -3  -4 -14       2     277
  -3  -4 -15      10     247
  -4  -3  15      11     274
  -4  -3  14       2     270
  -4  -3  13    1367     308
  -4  -3  12     117     246
  -4  -3  11     256     269
  -4  -3  10    1015     292
  -4  -3  10    1065     186
  -4  -3   9     628     152
  -4  -3   9     644     242
  -4  -3   8     993     148
  -4  -3   8     910     233
  -4  -3   7    2160     179
  -4  -3   7    1869     264
  -4  -3   6    2684     269
  -4  -3   6    2285     164
  -4  -3   5   12869     577
  -4  -3   5   12589     472
  -4  -3   4     189      94
  -4  -3   4     184     174
  -4  -3   3    4007     192
  -4  -3   3    3466     278
  -4  -3   2     111      78
  -4  -3   2      86     146
  -4  -3   1   19818     733
  -4  -3   1   20380     804
  -4  -3   0    4513     350
  -4  -3   0    4352     294
  -4  -3  -1   19699     801
  -4  -3  -1   19914     761
  -4  -3  -2      80     127
  -4  -3  -2     158     136
  -4  -3  -3    2564     223
  -4  -3  -3    3876     247
  -4  -3  -4     253     146
  -4  -3  -4     350     170
  -4  -3  -5   12798     541
  -4  -3  -5   13208     568
   4   3   5   12338     529
  -4  -3  -6    2498     217
  -4  -3  -6    2561     243
   4   3   6    2268     200
  -4  -3  -7    2083     256
  -4  -3  -7    2468     227
   4   3   7    1746     216
  -4  -3  -8    1263     188
  -4  -3  -8     636     241
   4   3   8     760     186
  -4  -3  -9     159     212
   4   3   9     574     205
  -4  -3 -10    1024     308
   4   3  10     783     237
  -4  -3 -11     468     244
   4   3  11      44     218
  -4  -3 -12     187     271
   4   3  12     288     233
  -4  -3 -13    1407     336
  -4  -3 -14     142     249
  -4  -3 -15     142     284
  -5  -2  15      80     257
  -5  -2  14      93     283
  -5  -2  13     133     274
  -5  -2  12    1148     294
  -5  -2  11      20     256
  -5  -2  10     861     273
   5   2 -10    1222     208
  -5  -2   9    1379     267
  -5  -2   8    1380     254
  -5  -2   8    1002     141
  -5  -2   7     493     204
  -5  -2   7     560     101
  -5  -2   6    3024     159
  -5  -2   6    3760     299
  -5  -2   5    1916     104
  -5  -2   5    1951     221
  -5  -2   4    2201     236
  -5  -2   3    3608     223
  -5  -2   2    6733     421
  -5  -2   2    7353     325
  -5  -2   1    3390     198
  -5  -2   1    3269     265
  -5  -2   0   36652    1422
  -5  -2   0   36334    1340
  -5  -2  -1    3486     289
  -5  -2  -1    3471     234
  -5  -2  -2    8682     454
  -5  -2  -2    8029     418
  -5  -2  -3    3726     229
  -5  -2  -3    3465     217
  -5  -2  -4    1841     201
  -5  -2  -4     396     116
  -5  -2  -5    1460     185
  -5  -2  -5    2024     198
   5   2   5    1595     146
  -5  -2  -6    2616     252
  -5  -2  -6    2969     246
   5   2   6    2792     214
  -5  -2  -7     653     176
  -5  -2  -7     292     173
   5   2   7     418     145
  -5  -2  -8     885     209
  -5  -2  -8    1147     239
   5   2   8     958     185
  -5  -2  -9    1386     216
  -5  -2  -9    1403     289
   5   2   9    1156     209
  -5  -2 -10    1245     309
   5   2  10    1274     238
  -5  -2 -11     221     261
   5   2  11      20     196
  -5  -2 -12     805     260
  -5  -2 -13     433     259
  -5  -2 -14       6     240
  -5  -2 -15      15     240
  -6  -1  15     179     273
  -6  -1  14      12     263
  -6  -1  14      12     243
  -6  -1  13       1     257
  -6  -1  12     469     247
  -6  -1  11     891     271
  -6  -1  10       0     221
  -6  -1   9    4082     366
   6   1  -9    3315     227
  -6  -1   8    1071     244
   6   1  -8     782     126
  -6  -1   7    3025     320
  -6  -1   7    3134     182
  -6  -1   6     256     191
  -6  -1   6     262      62
  -6  -1   5    7350     398
  -6  -1   4    2735     271
  -6  -1   3   19609     713
  -6  -1   2      64     132
  -6  -1   2     161      56
  -6  -1   1    7982     332
  -6  -1   1    8438     240
  -6  -1   0   11390     508
  -6  -1   0   11453     433
  -6  -1  -1    7807     262
  -6  -1  -1    7404     318
  -6  -1  -2     401     165
  -6  -1  -2     220     103
  -6  -1  -3   19780     700
  -6  -1  -3   19308     659
  -6  -1  -4    2361     225
  -6  -1  -4    2769     259
  -6  -1  -5    7416     376
  -6  -1  -6     114     173
  -6  -1  -6     186     190
   6   1   6     298     123
  -6  -1  -7    2958     301
  -6  -1  -7    3037     301
   6   1   7    2937     247
  -6  -1  -8     783     213
  -6  -1  -8     661     214
   6   1   8     772     168
  -6  -1  -9    3411     345
  -6  -1  -9    3956     335
   6   1   9    3737     297
  -6  -1 -10     353     245
   6   1  10     184     191
  -6  -1 -11     311     277
  -6  -1 -12     308     241
  -6  -1 -13      60     280
  -6  -1 -14      11     282
  -6  -1 -15      14     293
  -7   0  15      27     277
  -7   0  14       3     245
  -7   0  13     199     263
  -7   0  13       0     239
  -7   0  12       8     242
  -7   0  11      27     244
  -7   0  10       0     221
  -7   0   9    3458     347
  -7   0   8    3886     346
   7   0  -8    3341     194
  -7   0   7      40     198
  -7   0   6    3434     312
  -7   0   5    5771     354
  -7   0   4   29058    1038
  -7   0   3    4613     395
  -7   0   2    4040     276
  -7   0   2    3871     145
  -7   0   1    1139      92
  -7   0   1     900     152
  -7   0   0      83      96
  -7   0   0     115     165
  -7   0  -1    1007     157
  -7   0  -1     817     121
  -7   0  -2    3996     275
  -7   0  -2    3908     204
  -7   0  -3    4456     400
  -7   0  -3    4784     363
  -7   0  -4   28235     994
  -7   0  -4   29466    1042
  -7   0  -5    5942     346
  -7   0  -5    5810     373
  -7   0  -6    3848     327
  -7   0  -6    4104     342
   7   0   6    3791     213
  -7   0  -7      42     176
   7   0   7      42     109
  -7   0  -8    3394     322
  -7   0  -8    3970     355
   7   0   8    3494     251
  -7   0  -9    3580     376
  -7   0  -9    3593     341
   7   0   9    3185     249
  -7   0 -10       0     214
  -7   0 -11     129     271
  -7   0 -12       9     264
  -7   0 -13       0     262
  -7   0 -14      60     299
  -7   0 -15     381     281
  -8   1  15      29     266
  -8   1  14     175     275
  -8   1  13     556     271
  -8   1  13     288     280
  -8   1  12     182     247
  -8   1  12     397     260
  -8   1  11     407     255
  -8   1  11     430     242
  -8   1  10     991     291
  -8   1   9    2893     337
  -8   1   8    4085     375
  -8   1   7    4437     348
   8  -1  -7    3761     163
  -8   1   6    3610     304
  -8   1   5    3060     276
  -8   1   4   18719     726
  -8   1   3    1592     232
   8  -1  -3    1257     100
  -8   1   2     845     207
   8  -1  -2     805     103
  -8   1   1   12008     607
  -8   1   1   11929     511
  -8   1   0     354     100
  -8   1   0     409     176
  -8   1  -1   12824     551
  -8   1  -1   12414     619
  -8   1  -2     713     156
  -8   1  -2    1046     223
  -8   1  -3    1720     209
  -8   1  -3    1486     236
  -8   1  -4   18308     733
  -8   1  -4   18250     694
  -8   1  -5    2942     284
  -8   1  -5    3443     284
  -8   1  -6    4023     342
  -8   1  -6    3583     316
  -8   1  -7    4327     355
  -8   1  -7    3751     329
   8  -1   7    3899     203
  -8   1  -8    3524     351
  -8   1  -8    4471     388
   8  -1   8    3711     251
  -8   1  -9    2554     317
  -8   1 -10     972     311
  -8   1 -11     558     245
  -8   1 -12     433     255
  -8   1 -13     255     299
  -8   1 -14     177     308
  -8   1 -15     255     331
  -9   2  15     109     294
  -9   2  14      13     265
  -9   2  13     334     235
  -9   2  12     232     257
  -9   2  12     505     274
  -9   2  11     176     254
  -9   2  11     273     243
  -9   2  10      91     229
  -9   2  10     103     234
  -9   2   9      26     191
  -9   2   9     565     247
  -9   2   8    4434     398
  -9   2   7    3492     322
  -9   2   6    3941     335
  -9   2   5    3652     299
  -9   2   4   11629     551
   9  -2  -4   12315     406
  -9   2   3    5693     350
   9  -2  -3    5565     232
  -9   2   2     220     187
   9  -2  -2     287      95
  -9   2   1    8428     465
   9  -2  -1    8694     369
  -9   2   0    4706     289
  -9   2   0    4480     219
  -9   2  -1    8621     394
  -9   2  -1    8174     471
  -9   2  -2     239      70
  -9   2  -2     260     127
  -9   2  -2     131     183
  -9   2  -3    6614     378
  -9   2  -3    6121     322
  -9   2  -4   12196     521
  -9   2  -4   12801     591
  -9   2  -5    3164     258
  -9   2  -5    3239     300
  -9   2  -6    2861     292
  -9   2  -6    3611     351
  -9   2  -7    3271     347
  -9   2  -7    3190     333
  -9   2  -8    3616     381
  -9   2  -8    3789     367
  -9   2  -9     548     241
  -9   2  -9     480     275
  -9   2 -10      27     217
  -9   2 -10     142     260
  -9   2 -11      11     221
  -9   2 -12     280     260
  -9   2 -13     491     270
  -9   2 -14      18     297
  -9   2 -15       2     263
 -10   3  14      45     233
 -10   3  13     582     278
 -10   3  12     274     265
 -10   3  12     580     278
 -10   3  11     314     251
 -10   3  11     173     252
 -10   3  10     180     256
 -10   3  10     151     240
 -10   3   9     178     238
 -10   3   9    1098     285
 -10   3   8     577     266
 -10   3   8     661     246
 -10   3   7    6392     416
 -10   3   7    7003     436
 -10   3   6     270     223
 -10   3   6     365     209
  10  -3  -6     621      91
 -10   3   5    5205     351
 -10   3   5    4540     361
  10  -3  -5    5209     212
 -10   3   4     545     170
 -10   3   4     481     212
  10  -3  -4     443     110
 -10   3   3    9590     470
 -10   3   3   10330     446
  10  -3  -3   10248     392
 -10   3   2    3162     305
  10  -3  -2    2228     191
 -10   3   1    9146     459
 -10   3   1    8746     384
  10  -3  -1    8363     356
 -10   3   0   14993     570
 -10   3   0   14705     642
  10  -3   0   14837     568
 -10   3  -1    8303     370
 -10   3  -1    8502     340
 -10   3  -1    8511     461
 -10   3  -2    2491     160
 -10   3  -2    2681     234
 -10   3  -2    2359     281
 -10   3  -3   10248     455
 -10   3  -3   10514     516
 -10   3  -4     212     211
 -10   3  -4     635     195
 -10   3  -5    5276     404
 -10   3  -5    5533     369
 -10   3  -6     643     223
 -10   3  -6     970     276
 -10   3  -7    7630     487
 -10   3  -7    5928     414
 -10   3  -8     939     277
 -10   3  -8     497     282
 -10   3  -9     366     264
 -10   3  -9     801     271
 -10   3 -10     374     294
 -10   3 -10     626     284
 -10   3 -11     559     258
 -10   3 -12     520     298
 -10   3 -13     361     269
 -10   3 -14      25     272
 -11   4  14      15     281
 -11   4  13      27     263
 -11   4  12    1003     312
 -11   4  11     365     266
 -11   4  11      15     238
 -11   4  10    2635     339
 -11   4  10    2205     340
 -11   4   9      72     249
 -11   4   9      34     249
 -11   4   8     604     275
 -11   4   8     435     230
 -11   4   7     484     239
 -11   4   7     469     265
 -11   4   6    2421     297
 -11   4   6    2612     306
  11  -4  -6    2616     175
 -11   4   5     438     223
 -11   4   5     499     194
  11  -4  -5     724     121
 -11   4   4    1007     210
 -11   4   4    1548     260
  11  -4  -4     772     159
 -11   4   3     332     223
 -11   4   3     610     181
  11  -4  -3     453     158
 -11   4   2    4503     329
  11  -4  -2    3193     217
 -11   4   1     784     151
 -11   4   1     745     228
  11  -4  -1     673     152
 -11   4   0   21357     794
 -11   4   0   22048     893
  11  -4   0   21678     798
 -11   4  -1     839     129
 -11   4  -1     637     226
 -11   4  -1     769     159
  11  -4   1     498      93
 -11   4  -2    3261     182
 -11   4  -2    3336     247
 -11   4  -2    3069     281
 -11   4  -3     600     243
 -11   4  -3     393     184
 -11   4  -4     795     237
 -11   4  -4     963     225
 -11   4  -5     685     226
 -11   4  -5     268     239
 -11   4  -6    2569     345
 -11   4  -6    2853     307
 -11   4  -7     835     284
 -11   4  -7     835     285
 -11   4  -8     468     304
 -11   4  -8     342     281
 -11   4  -9      84     271
 -11   4  -9      35     266
 -11   4 -10    1905     321
 -11   4 -10    2001     350
 -11   4 -11     223     298
 -11   4 -12    1166     350
 -11   4 -13     260     275
 -11   4 -14     109     270
 -12   5  14       2     282
 -12   5  13      84     291
 -12   5  12     331     284
 -12   5  11      10     256
 -12   5  10     230     258
 -12   5  10     146     254
 -12   5   9    1869     310
 -12   5   9    1551     304
 -12   5   8      32     246
 -12   5   8     528     250
 -12   5   7     617     276
 -12   5   7     466     250
 -12   5   6    2415     318
 -12   5   6    2525     319
 -12   5   5    1647     286
 -12   5   5    1661     272
  12  -5  -5    1689     189
 -12   5   4     195     195
 -12   5   4     253     230
  12  -5  -4     298     177
 -12   5   3    6812     430
 -12   5   3    7074     385
  12  -5  -3    6299     352
 -12   5   2      17     205
 -12   5   2      17     151
  12  -5  -2      17     133
 -12   5   1    5822     362
 -12   5   1    5658     417
  12  -5  -1    6067     361
 -12   5   0    3840     315
 -12   5   0    3993     250
  12  -5   0    3725     248
 -12   5  -1    6103     443
 -12   5  -1    5980     340
 -12   5  -2      17     112
 -12   5  -2      17     213
 -12   5  -2      17     163
  12  -5   2       9     149
 -12   5  -3    6811     375
 -12   5  -3    7295     471
 -12   5  -4     221     216
 -12   5  -4      38     212
 -12   5  -5    1510     318
 -12   5  -5    1850     264
 -12   5  -6    1767     277
 -12   5  -6    2441     363
 -12   5  -7     669     243
 -12   5  -7     708     302
 -12   5  -8      20     277
 -12   5  -8     285     291
 -12   5  -9    1878     351
 -12   5  -9    1953     315
 -12   5 -10     367     251
 -12   5 -10      12     259
 -12   5 -11     238     257
 -12   5 -12    1061     313
 -12   5 -13      12     258
 -12   5 -14       2     317
 -13   6  13       0     285
 -13   6  12     336     286
 -13   6  11     181     244
 -13   6  10      91     261
 -13   6  10     420     262
 -13   6   9     947     288
 -13   6   9     904     295
 -13   6   8    1340     301
 -13   6   8     849     288
 -13   6   7     437     262
 -13   6   7     248     245
 -13   6   6      10     229
 -13   6   6      10     257
 -13   6   5      19     227
 -13   6   5      19     200
  13  -6  -5      46     174
 -13   6   4    6096     421
 -13   6   4    6316     400
  13  -6  -4    4980     355
 -13   6   3    4008     327
 -13   6   3    3791     354
  13  -6  -3    4057     313
 -13   6   2     247     182
 -13   6   2     211     239
  13  -6  -2      19     167
 -13   6   1     587     180
 -13   6   1      87     229
  13  -6  -1     651     196
 -13   6   0     381     161
 -13   6   0     522     214
  13  -6   0     450     178
 -13   6  -1     599     257
 -13   6  -1     427     156
  13  -6   1     262     102
 -13   6  -2     118     138
 -13   6  -2      80     241
  13  -6   2     683     191
 -13   6  -3    3548     356
  13  -6   3    4092     331
 -13   6  -4    5230     426
 -13   6  -4    6535     409
 -13   6  -5      18     264
 -13   6  -5      89     241
 -13   6  -6       8     272
 -13   6  -6       8     210
 -13   6  -7     167     293
 -13   6  -7      86     280
 -13   6  -8    1051     284
 -13   6  -8    1164     343
 -13   6  -9     720     273
 -13   6  -9     711     297
 -13   6 -10     471     307
 -13   6 -10     284     275
 -13   6 -11      14     271
 -13   6 -12      19     248
 -13   6 -13       0     280
 -14   7  13     157     311
 -14   7  12       2     281
 -14   7  11     649     300
 -14   7  10       8     272
 -14   7   9      73     242
 -14   7   9       0     248
 -14   7   8    1024     269
 -14   7   8     357     225
 -14   7   7    1353     299
 -14   7   7    1567     281
 -14   7   6       4     243
 -14   7   6       4     232
 -14   7   5      35     223
 -14   7   5     105     262
  14  -7  -5      35     183
 -14   7   4    3210     323
 -14   7   4    3307     365
  14  -7  -4    4243     335
 -14   7   3     917     244
 -14   7   3    1112     313
  14  -7  -3    1057     268
 -14   7   2    1668     267
 -14   7   2    1433     304
  14  -7  -2    1954     269
 -14   7   1    1515     233
 -14   7   1     950     281
  14  -7  -1    1450     254
 -14   7   0    3768     282
 -14   7   0    3810     368
  14  -7   0    3990     321
 -14   7  -1    1895     340
 -14   7  -1    1374     218
  14  -7   1    1362     256
 -14   7  -2    2034     349
 -14   7  -2    1392     212
  14  -7   2    2362     294
 -14   7  -3     826     324
  14  -7   3     971     274
 -14   7  -4    3637     405
  14  -7   4    4338     374
 -14   7  -5     398     252
 -14   7  -5     365     250
  14  -7   5      35     217
 -14   7  -6      59     300
 -14   7  -6      51     221
 -14   7  -7    1518     347
 -14   7  -7    1546     282
 -14   7  -8     335     284
 -14   7  -8     519     250
 -14   7  -9       0     255
 -14   7  -9       0     221
 -14   7 -10     208     289
 -14   7 -10     140     251
 -14   7 -11     498     280
 -14   7 -12     524     289
 -14   7 -13       2     318
 -15   8  12       7     269
 -15   8  11      17     283
 -15   8  10     139     292
 -15   8   9      14     269
 -15   8   9     420     273
 -15   8   8      32     254
 -15   8   8     471     256
 -15   8   7      90     246
 -15   8   7      64     238
 -15   8   6     603     252
 -15   8   6     922     285
 -15   8   5      34     252
 -15   8   5     145     242
 -15   8   4    1216     284
 -15   8   4     667     279
  15  -8  -4     838     265
 -15   8   3    2111     314
 -15   8   3    1072     203
  15  -8  -3    1818     291
 -15   8   2       1     209
 -15   8   2     332     260
  15  -8  -2     750     244
 -15   8   1    2182     338
 -15   8   1    1362     252
  15  -8  -1    1851     290
 -15   8   0       9     193
 -15   8   0       9     262
  15  -8   0     357     215
 -15   8  -1    1422     241
 -15   8  -1    2190     357
  15  -8   1    2082     293
 -15   8  -2     149     284
 -15   8  -2     281     198
  15  -8   2     122     221
 -15   8  -3    2015     359
  15  -8   3    1717     288
 -15   8  -4    1499     352
  15  -8   4    1014     278
 -15   8  -5     175     258
  15  -8   5      15     243
 -15   8  -6      23     245
  15  -8   6     408     266
 -15   8  -7     110     268
 -15   8  -7     289     301
  15  -8   7     239     260
 -15   8  -8     376     245
 -15   8  -8     159     298
 -15   8  -9       3     293
 -15   8  -9       6     275
 -15   8 -10     546     325
 -15   8 -10     519     323
 -15   8 -11     502     286
 -15   8 -12     102     278
 -16   9  12       9     286
 -16   9  11       5     293
 -16   9  10      12     278
 -16   9   9      14     268
 -16   9   8      61     263
 -16   9   8     170     260
 -16   9   7     611     272
 -16   9   7     409     267
 -16   9   6    1403     299
 -16   9   6     612     276
 -16   9   5     147     268
 -16   9   5     364     273
 -16   9   4      15     254
 -16   9   4      15     245
  16  -9  -4      15     247
 -16   9   3     122     114
 -16   9   3     528     274
  16  -9  -3    1135     300
 -16   9   2     464     285
 -16   9   2     573     250
  16  -9  -2     863     274
 -16   9   1     987     257
 -16   9   1    1304     327
  16  -9  -1    1089     284
 -16   9   0     969     313
 -16   9   0     955     253
  16  -9   0     383     180
 -16   9  -1     902     240
 -16   9  -1    1066     318
  16  -9   1    1142     293
 -16   9  -2     152     284
  16  -9   2     521     255
 -16   9  -3     854     321
  16  -9   3     128     255
 -16   9  -4     281     247
  16  -9   4     395     254
 -16   9  -5     146     288
  16  -9   5     160     256
 -16   9  -6    1481     358
  16  -9   6     908     299
 -16   9  -7     600     319
  16  -9   7     296     248
 -16   9  -8     199     322
  16  -9   8      30     276
 -16   9  -9     525     331
  16  -9   9     400     295
 -16   9 -10     399     327
  16  -9  10     163     313
 -16   9 -11      22     260
  16  -9  11      73     255
 -16   9 -12      11     331
  16  -9  12      87     307
 -17  10  11       5     305
 -17  10  10       2     280
 -17  10   9       1     285
 -17  10   8     324     291
 -17  10   8     433     264
 -17  10   7      19     256
 -17  10   7      23     262
 -17  10   6    1459     316
 -17  10   6    1230     302
 -17  10   5      37     240
 -17  10   5      10     239
 -17  10   4     145     257
 -17  10   4     152     243
  17 -10  -4      12     239
 -17  10   3      11      81
 -17  10   3     585     268
  17 -10  -3     146     262
 -17  10   2     143     271
 -17  10   2      14     242
  17 -10  -2     235     274
 -17  10   1     586     280
 -17  10   1     201     234
  17 -10  -1      30     256
 -17  10   0     734     254
 -17  10   0     798     304
 -17  10  -1     447     276
  17 -10   1     337     247
 -17  10  -2      37     277
  17 -10   2     167     246
 -17  10  -3     499     295
  17 -10   3     662     263
 -17  10  -4     256     298
  17 -10   4      13     222
 -17  10  -5      78     282
  17 -10   5     137     229
 -17  10  -6    1287     348
  17 -10   6    1758     314
 -17  10  -7      27     303
  17 -10   7      27     267
 -17  10  -8     269     315
  17 -10   8       5     238
 -17  10  -9     135     335
  17 -10   9     361     274
  17 -10  10     133     318
  17 -10  11      59     326
 -18  11  10       1     294
 -18  11   9       8     275
 -18  11   8     141     285
 -18  11   7    1151     313
 -18  11   7     332     298
 -18  11   6    1083     331
 -18  11   6     757     290
 -18  11   5     115     241
 -18  11   5     308     262
 -18  11   4       3     261
 -18  11   4       3     246
 -18  11   3      30     169
 -18  11   3     442     270
  18 -11  -3     209     285
 -18  11   2     374     279
 -18  11   2     161     249
  18 -11  -2     746     288
 -18  11   1     441     283
 -18  11   1     508     255
  18 -11  -1     711     273
 -18  11   0     213     276
  18 -11   0     123     157
 -18  11  -1     144     280
  18 -11   1     286     257
 -18  11  -2     315     303
  18 -11   2     513     273
 -18  11  -3     213     294
  18 -11   3      89     253
 -18  11  -4     215     261
  18 -11   4      39     271
 -18  11  -5       4     286
  18 -11   5     219     295
 -18  11  -6    1270     329
  18 -11   6     296     253
 -18  11  -7     659     354
  18 -11   7     264     305
 -18  11  -8       3     277
  18 -11   8     273     267
 -18  11  -9     135     326
  18 -11   9       7     254
  18 -11  10       1     308
 -19  12   9     156     315
 -19  12   8      24     305
 -19  12   7       6     290
 -19  12   7     204     274
 -19  12   6       3     275
 -19  12   6       3     270
 -19  12   5     271     308
 -19  12   5      99     273
 -19  12   4     296     269
 -19  12   4       5     260
 -19  12   3      10     225
 -19  12   3     627     309
  19 -12  -3     234     305
 -19  12   2      36     265
 -19  12   2      87     267
  19 -12  -2     330     305
 -19  12   1     298     283
 -19  12   1     313     271
  19 -12  -1      86     275
 -19  12   0     272     286
  19 -12   0     226     252
 -19  12  -1     244     293
  19 -12   1     599     292
 -19  12  -2     137     292
  19 -12   2       5     263
 -19  12  -3     358     312
  19 -12   3     123     288
 -19  12  -4     578     319
  19 -12   4     156     284
 -19  12  -5     566     326
  19 -12   5      39     289
 -19  12  -6       3     304
  19 -12   6     131     271
 -19  12  -7       5     254
  19 -12   7       5     307
 -19  12  -8      68     332
  19 -12   8     408     340
 -19  12  -9     174     334
  19 -12   9       2     298
 -20  13   8       6     319
 -20  13   7      28     305
 -20  13   6      53     274
 -20  13   6      53     292
 -20  13   5      67     283
 -20  13   5      30     281
 -20  13   4      43     292
 -20  13   4     435     289
 -20  13   3      24     287
 -20  13   3      24     266
 -20  13   2     392     284
 -20  13   2     822     334
  20 -13  -2      40     275
 -20  13   1     131     280
  20 -13  -1       5     237
 -20  13   0     873     326
  20 -13   0     633     331
 -20  13  -1       7     282
  20 -13   1     230     296
 -20  13  -2       8     289
  20 -13   2     671     319
 -20  13  -3     203     305
  20 -13   3      26     280
 -20  13  -4      83     312
  20 -13   4     140     259
 -20  13  -5      28     315
  20 -13   5      86     258
 -20  13  -6     138     337
  20 -13   6      32     309
 -20  13  -7      29     297
  20 -13   7      29     315
 -20  13  -8     139     339
  20 -13   8      26     335
 -21  14   6       7     325
 -21  14   5      24     321
 -21  14   5     381     268
 -21  14   4     381     288
 -21  14   4     162     285
 -21  14   3     726     342
 -21  14   3     351     299
 -21  14   2     152     287
  21 -14  -2       3     353
 -21  14   1     505     308
  21 -14  -1       0     205
 -21  14   0       1     279
  21 -14   0       1     296
 -21  14  -1      47     293
  21 -14   1     279     332
 -21  14  -2     159     305
  21 -14   2       2     301
 -21  14  -3     574     311
  21 -14   3     682     345
 -21  14  -4       9     310
  21 -14   4       9     314
 -21  14  -5     271     334
  21 -14   5      73     329
 -21  14  -6     194     340
  21 -14   6       7     330
 -22  15   4       3     166
 -22  15   4     274     291
 -22  15   3     409     323
 -22  15   2      17     268
 -22  15   1     661     327
 -22  15   0     751     332
  22 -15   0       7     302
 -22  15  -1      12     298
  22 -15   1      84     319
 -22  15  -2     155     319
  22 -15   2      17     324
 -22  15  -3     507     330
  22 -15   3     416     339
 -22  15  -4       3     316
  22 -15   4     437     341
  15 -23   1      18     318
  15 -23   0     123     414
  15 -23  -1     288     409
  14 -22   5     205     346
  14 -22   4     673     419
  14 -22   3     235     399
  14 -22   2      99     387
  14 -22   1      24     381
  14 -22   0     749     416
  14 -22  -1     254     408
  14 -22  -2      62     327
  14 -22  -3     572     355
  14 -22  -4     129     332
  14 -22  -5      24     357
  13 -21   7       1     398
  13 -21   6      49     383
  13 -21   5     215     382
  13 -21   4     116     380
  13 -21   3     168     377
  13 -21   2      16     313
  13 -21   1       8     281
  13 -21   0     264     332
  13 -21  -1      69     397
  13 -21  -2     120     376
  13 -21  -3     560     387
  13 -21  -4      15     324
  13 -21  -5       9     362
  13 -21  -6      49     315
 -13  21   6     144     364
  13 -21  -7     674     397
 -13  21   7       1     329
  12 -20   8     589     406
  12 -20   7     227     385
  12 -20   6      41     369
  12 -20   5     899     405
  12 -20   4      26     294
  12 -20   3     535     389
  12 -20   2     317     373
  12 -20   1     568     381
  12 -20   0     257     330
  12 -20  -1     171     320
  12 -20  -2     290     330
  12 -20  -3     130     366
  12 -20  -4      26     289
  12 -20  -5     433     389
  12 -20  -6     342     390
 -12  20   6      17     343
  12 -20  -7       2     336
 -12  20   7      23     330
  12 -20  -8     160     310
 -12  20   8      13     342
  11 -19   9      24     342
  11 -19   8       8     328
  11 -19   7       3     297
  11 -19   6     826     410
  11 -19   5      30     296
  11 -19   4      30     265
  11 -19   3     368     317
  11 -19   2     685     323
  11 -19   1      90     350
  11 -19   0    1505     422
  11 -19  -1     281     377
  11 -19  -2       1     286
  11 -19  -3      12     336
  11 -19  -4     129     358
  11 -19  -5      31     343
 -11  19   5      31     280
  11 -19  -6     971     397
 -11  19   6     204     336
  11 -19  -7       3     327
 -11  19   7       3     320
  11 -19  -8       9     340
 -11  19   8     364     348
  11 -19  -9      92     364
 -11  19   9      28     339
  10 -18  10      38     339
  10 -18   9       7     327
  10 -18   8     349     345
  10 -18   7    1208     391
  10 -18   6     113     305
  10 -18   5     423     310
  10 -18   4     361     364
  10 -18   3     377     342
  10 -18   2       6     336
  10 -18   1    1053     389
  10 -18   0    1796     376
  10 -18  -1    1065     406
  10 -18  -2     136     294
  10 -18  -3     493     305
  10 -18  -4     685     368
  10 -18  -5     710     382
 -10  18   5     952     358
  10 -18  -6     103     287
 -10  18   6     282     287
  10 -18  -7     884     325
 -10  18   7     963     352
  10 -18  -8     262     353
 -10  18   8     459     354
  10 -18  -9       6     336
 -10  18   9       7     327
  10 -18 -10       7     323
 -10  18  10       7     331
   9 -17  11       6     329
   9 -17  10      27     324
   9 -17   9     428     338
   9 -17   8     292     279
   9 -17   7     448     293
   9 -17   6     737     352
   9 -17   5    1077     343
   9 -17   4       1     328
   9 -17   3     243     292
   9 -17   2     370     349
   9 -17   1    1508     359
   9 -17   0     545     367
   9 -17  -1    1185     407
   9 -17  -2     345     346
   9 -17  -3      44     282
   9 -17  -4       1     315
  -9  17   4       1     309
   9 -17  -5    1577     359
  -9  17   5    1015     348
   9 -17  -6     465     341
  -9  17   6     694     327
   9 -17  -7     579     299
  -9  17   7     290     327
   9 -17  -8       1     322
  -9  17   8       1     304
   9 -17  -9     453     343
  -9  17   9       8     325
   9 -17 -10       6     333
  -9  17  10      27     303
   9 -17 -11      96     318
  -9  17  11       7     316
   8 -16  12       2     316
   8 -16  11      22     301
   8 -16  10     316     332
   8 -16   9     254     324
   8 -16   8      64     303
   8 -16   7     172     311
   8 -16   6    2799     412
   8 -16   5     752     318
   8 -16   4      77     284
   8 -16   3     158     341
   8 -16   2     597     314
   8 -16   1    1008     369
   8 -16   0    1837     417
   8 -16  -1    1394     336
   8 -16  -2     674     369
   8 -16  -3     328     346
   8 -16  -4     309     330
  -8  16   4     494     330
   8 -16  -5     587     309
  -8  16   5     692     332
   8 -16  -6    1450     326
  -8  16   6    1304     343
   8 -16  -7      65     319
  -8  16   7     312     326
   8 -16  -8      64     273
  -8  16   8       6     288
   8 -16  -9     433     313
  -8  16   9     138     311
   8 -16 -10       2     309
  -8  16  10       2     303
   8 -16 -11      57     318
  -8  16  11     285     345
   8 -16 -12       2     279
  -8  16  12     174     320
   7 -15  12       6     300
   7 -15  11     144     301
   7 -15  10      70     302
   7 -15   9     347     306
   7 -15   8     370     297
   7 -15   7       1     233
   7 -15   6     417     308
   7 -15   5     424     289
   7 -15   4    1061     372
   7 -15   3    2274     395
   7 -15   2     548     347
   7 -15   1    2565     416
   7 -15   0     595     295
   7 -15  -1    2198     372
   7 -15  -2     433     288
   7 -15  -3    1193     364
   7 -15  -4    1343     380
  -7  15   4     914     343
   7 -15  -5     102     326
  -7  15   5     191     269
   7 -15  -6     808     335
  -7  15   6     448     323
   7 -15  -7       1     294
  -7  15   7     298     270
   7 -15  -8     385     286
  -7  15   8     198     266
   7 -15  -9     202     320
  -7  15   9       6     286
   7 -15 -10     327     325
  -7  15  10     686     340
   7 -15 -11     122     302
  -7  15  11      18     283
   7 -15 -12       6     275
  -7  15  12      38     308
   6 -14  13       1     309
   6 -14  12      55     326
   6 -14  11     707     310
   6 -14  10     246     301
   6 -14   9     930     285
   6 -14   8      39     235
   6 -14   7    1085     329
   6 -14   6     473     264
   6 -14   5    3224     404
   6 -14   4     749     287
   6 -14   3    9261     583
   6 -14   2     236     267
   6 -14   1    1930     324
   6 -14   0    7842     517
   6 -14  -1    2147     381
   6 -14  -2     544     272
   6 -14  -3    8913     580
   6 -14  -4      71     315
  -6  14   4     242     256
   6 -14  -5    2367     358
  -6  14   5    2541     382
   6 -14  -6     584     299
  -6  14   6     706     335
   6 -14  -7     646     294
  -6  14   7    1172     307
   6 -14  -8     132     306
  -6  14   8      39     287
   6 -14  -9     840     302
  -6  14   9     805     323
   6 -14 -10       5     271
  -6  14  10       5     288
   6 -14 -11     308     269
  -6  14  11     488     314
   6 -14 -12     232     324
  -6  14  12     592     339
   6 -14 -13     746     328
  -6  14  13       1     306
   5 -13  13     155     283
   5 -13  12      69     279
   5 -13  11     286     288
   5 -13  10     655     296
   5 -13   9      25     250
   5 -13   8     802     299
   5 -13   7    2349     358
   5 -13   6     542     256
   5 -13   5    2876     374
   5 -13   4    5271     439
   5 -13   3    3384     402
   5 -13   2    2462     361
   5 -13   1    3641     399
   5 -13   0     395     290
   5 -13  -1    2967     386
   5 -13  -2    2130     316
   5 -13  -3    2617     350
   5 -13  -4    4887     293
   5 -13  -4    3982     418
  -5  13   4    4535     421
   5 -13  -5    3083     406
  -5  13   5    3054     361
   5 -13  -6     608     275
  -5  13   6     397     307
   5 -13  -7    2076     354
  -5  13   7    1850     331
   5 -13  -8    1176     334
  -5  13   8     295     291
   5 -13  -9      11     241
  -5  13   9     270     283
   5 -13 -10    1329     330
  -5  13  10     391     306
   5 -13 -11     900     312
  -5  13  11     972     349
   5 -13 -12       2     265
  -5  13  12      98     304
   5 -13 -13     418     308
  -5  13  13       2     343
   4 -12  14       1     241
   4 -12  13      51     269
   4 -12  12     403     276
   4 -12  11     238     261
   4 -12  10     983     302
   4 -12   9    2918     368
   4 -12   8    1022     299
   4 -12   7    2716     352
   4 -12   6    1118     291
   4 -12   5    1438     318
   4 -12   4    2782     347
   4 -12   3    4491     387
   4 -12   2    5816     397
   4 -12   1    6900     422
   4 -12   0     199     228
   4 -12  -1    7381     468
   4 -12  -2    6508     415
   4 -12  -3    3294     235
   4 -12  -3    3305     338
   4 -12  -4    2336     188
   4 -12  -4    2306     309
  -4  12   4    2201     325
   4 -12  -5    1190     292
   4 -12  -5    1140     154
  -4  12   5    1169     286
   4 -12  -6    1170     335
  -4  12   6    1239     326
   4 -12  -7    2266     367
  -4  12   7    1927     350
   4 -12  -8    1045     346
  -4  12   8     580     299
   4 -12  -9    1759     358
  -4  12   9    2561     370
   4 -12 -10     986     321
  -4  12  10     969     322
   4 -12 -11       2     283
  -4  12  11     314     303
   4 -12 -12     456     302
  -4  12  12       0     294
   4 -12 -13     422     316
  -4  12  13      57     316
   4 -12 -14     365     318
  -4  12  14       1     319
   3 -11  14     298     302
   3 -11  13     176     278
   3 -11  12     468     259
   3 -11  11     320     239
   3 -11  10    1357     288
   3 -11   9    1522     299
   3 -11   8       6     230
   3 -11   7     483     260
   3 -11   6    1371     290
   3 -11   5     426     232
   3 -11   4     384     205
   3 -11   3    6442     400
   3 -11   2     737     251
   3 -11   1    1316     279
   3 -11   0    1681     265
   3 -11  -1     940     235
   3 -11  -2    1058     266
   3 -11  -2     763     159
   3 -11  -3    7024     418
   3 -11  -3    6003     287
   3 -11  -4      86     121
   3 -11  -4     304     213
  -3  11   4     229     242
   3 -11  -5     635     121
   3 -11  -5     628     238
  -3  11   5    1060     242
   3 -11  -6     885     288
  -3  11   6     764     297
   3 -11  -7      90     235
  -3  11   7     447     282
   3 -11  -8      99     296
  -3  11   8     130     268
   3 -11  -9    2062     360
  -3  11   9    1349     333
   3 -11 -10    1398     332
  -3  11  10    1060     318
   3 -11 -11     101     244
  -3  11  11       3     278
   3 -11 -12     449     296
  -3  11  12     331     304
   3 -11 -13      18     283
  -3  11  13       9     288
   3 -11 -14     234     250
  -3  11  14     252     331
   2 -10  14      20     262
   2 -10  13      75     283
   2 -10  13      14     217
   2 -10  12      25     247
   2 -10  11     523     243
   2 -10  10    1283     273
   2 -10   9     313     228
   2 -10   8     853     254
   2 -10   7    2319     295
   2 -10   6    4960     381
   2 -10   5     714     245
   2 -10   4    6762     441
   2 -10   3    4142     329
   2 -10   2    3763     355
   2 -10   1    2394     294
   2 -10   0    3655     289
   2 -10  -1    2083     262
   2 -10  -1    1817     208
   2 -10  -2    4354     331
   2 -10  -2    3501     253
   2 -10  -3    4985     391
   2 -10  -3    4142     269
   2 -10  -4    6010     299
   2 -10  -4    5576     395
  -2  10   4    6227     450
   2 -10  -5     608     277
   2 -10  -5     708     138
  -2  10   5     980     276
   2 -10  -6    3737     368
  -2  10   6    3962     388
   2 -10  -7    2009     305
  -2  10   7    2014     315
   2 -10  -8    1034     305
  -2  10   8     851     291
   2 -10  -9      72     293
  -2  10   9      81     271
   2 -10 -10    1046     291
  -2  10  10    1682     328
   2 -10 -11     796     306
  -2  10  11       7     268
   2 -10 -12     169     284
  -2  10  12     626     297
   2 -10 -13      79     248
  -2  10  13      13     307
   2 -10 -14     466     321
  -2  10  14      20     302
   1  -9  15     840     322
   1  -9  14     146     287
   1  -9  13     146     286
   1  -9  12    1179     265
   1  -9  12    1518     337
   1  -9  11     746     252
   1  -9  11     703     268
   1  -9  10     388     236
   1  -9   9    5191     402
   1  -9   8    2109     282
   1  -9   7    1261     238
   1  -9   6    3067     300
   1  -9   5    3335     318
   1  -9   4    1530     238
   1  -9   3   22694     906
   1  -9   2     272     169
   1  -9   1    2336     265
   1  -9   1    2427     239
   1  -9   0   20632     752
   1  -9   0   20930     774
   1  -9  -1    2545     220
   1  -9  -1    3179     290
   1  -9  -2     463     143
   1  -9  -2     381     186
   1  -9  -3   26542    1025
   1  -9  -3   25723     962
   1  -9  -4    2146     175
   1  -9  -4    2025     278
  -1   9   4    1303     252
   1  -9  -5    2447     320
   1  -9  -5    1887     178
  -1   9   5    3138     325
   1  -9  -6    2314     302
  -1   9   6    2469     314
   1  -9  -7    1052     284
  -1   9   7    1342     273
   1  -9  -8    2345     323
  -1   9   8    2179     339
   1  -9  -9    4415     436
  -1   9   9    4318     421
   1  -9 -10      39     228
  -1   9  10       5     246
   1  -9 -11     695     293
  -1   9  11     788     288
   1  -9 -12    1318     336
  -1   9  12    1454     339
   1  -9 -13     461     294
  -1   9  13     110     317
   1  -9 -14     162     263
  -1   9  14      35     278
  -1   9  15     114     349
   0  -8  15     268     317
   0  -8  14       2     287
   0  -8  13     628     292
   0  -8  12     207     230
   0  -8  12      60     270
   0  -8  11      30     181
   0  -8  11      30     258
   0  -8  10    2635     363
   0  -8  10    2520     293
   0  -8   9    1487     321
   0  -8   9    1226     247
   0  -8   8    4992     364
   0  -8   8    5490     458
   0  -8   7     377     184
   0  -8   6    5278     334
   0  -8   5     173     169
   0  -8   4   11692     543
   0  -8   4   12233     517
   0  -8   3    7500     363
   0  -8   3    8099     392
   0  -8   2   12301     570
   0  -8   2   12504     588
   0  -8   1    7838     404
   0  -8   1    7647     409
   0  -8   0    5917     384
   0  -8   0    6630     386
   0  -8  -1    7547     372
   0  -8  -1    7505     415
   0  -8  -2   12210     537
   0  -8  -2   12844     589
   0  -8  -3    6803     343
   0  -8  -3    7213     298
   0  -8  -4   11182     451
   0  -8  -4   11597     522
   0   8   4   12433     546
   0  -8  -5     264     224
   0  -8  -5     289     122
   0   8   5     154     207
   0  -8  -6    4769     384
   0  -8  -6    5029     225
   0   8   6    4974     388
   0  -8  -7     452     219
   0   8   7     247     217
   0  -8  -8    4917     409
   0   8   8    4884     407
   0  -8  -9    1185     268
   0   8   9    1239     280
   0  -8 -10    2209     321
   0   8  10    2177     322
   0  -8 -11      31     248
   0   8  11     271     285
   0  -8 -12     444     248
   0   8  12     183     261
   0  -8 -13     325     240
   0   8  13     107     264
   0  -8 -14     583     266
   0   8  14       2     297
   0  -8 -15     541     325
   0   8  15       4     312
  -1  -7  15     293     322
  -1  -7  14     169     289
  -1  -7  13     210     312
  -1  -7  12       4     264
  -1  -7  11     521     220
  -1  -7  11     549     287
  -1  -7  10     356     292
  -1  -7  10     813     236
  -1  -7   9    2498     323
  -1  -7   9    2628     270
  -1  -7   8    4163     318
  -1  -7   8    3791     379
  -1  -7   7    4015     298
  -1  -7   7    4206     386
  -1  -7   6    3050     298
  -1  -7   6    3374     262
  -1  -7   5    2707     263
  -1  -7   5    2997     235
  -1  -7   4   18439     677
  -1  -7   4   18277     721
  -1  -7   3    1503     208
  -1  -7   3    1437     216
  -1  -7   2     895     193
  -1  -7   2     918     200
  -1  -7   1   11683     563
  -1  -7   1   11415     545
  -1  -7   0     587     146
  -1  -7   0     362     151
  -1  -7  -1   11183     536
  -1  -7  -2     896     156
  -1  -7  -2     556     187
  -1  -7  -3    1596     222
  -1  -7  -3    1784     186
  -1  -7  -4   17360     653
  -1  -7  -4   18842     717
   1   7   4   18744     719
  -1  -7  -5    2896     284
  -1  -7  -5    2822     196
   1   7   5    3069     269
  -1  -7  -6    3322     193
  -1  -7  -6    3647     305
   1   7   6    3115     291
  -1  -7  -7    3818     196
  -1  -7  -7    3679     340
   1   7   7    3502     327
  -1  -7  -8    4019     372
   1   7   8    3531     355
  -1  -7  -9    2048     306
   1   7   9    2493     309
  -1  -7 -10     727     304
   1   7  10     584     288
  -1  -7 -11     258     238
   1   7  11     577     255
  -1  -7 -12     189     277
   1   7  12       4     264
  -1  -7 -13     328     300
   1   7  13     639     302
  -1  -7 -14       4     236
   1   7  14      11     282
  -1  -7 -15     171     315
  -2  -6  15      34     279
  -2  -6  14      12     267
  -2  -6  13     779     328
  -2  -6  12     516     283
  -2  -6  11       5     250
  -2  -6  11     172     192
  -2  -6  10      87     269
  -2  -6  10      90     200
  -2  -6   9    2233     243
  -2  -6   9    2011     333
  -2  -6   8      25     237
  -2  -6   8      25     151
  -2  -6   7    3555     274
  -2  -6   7    4464     400
  -2  -6   6    6018     318
  -2  -6   6    5969     408
  -2  -6   5    1543     220
  -2  -6   5    1363     170
  -2  -6   4    1381     174
  -2  -6   4    1567     229
  -2  -6   3    1109     172
  -2  -6   3     856     183
  -2  -6   2    1241     200
  -2  -6   2    1058     164
  -2  -6   1    6222     293
  -2  -6   1    6231     269
  -2  -6   0    3912     279
  -2  -6   0    4139     277
  -2  -6  -1    3901     172
  -2  -6  -2    1486     187
  -2  -6  -2    1305     190
  -2  -6  -3    1492     181
  -2  -6  -3    1448     213
  -2  -6  -4    1210     193
  -2  -6  -4    1344     175
  -2  -6  -5    1214     220
  -2  -6  -5    1143     150
   2   6   5    1174     203
  -2  -6  -6    6679     404
  -2  -6  -6    6208     302
   2   6   6    5931     372
  -2  -6  -7    3587     347
  -2  -6  -7    3255     227
   2   6   7    3540     320
  -2  -6  -8      25     202
  -2  -6  -8      11     116
   2   6   8      25     212
  -2  -6  -9    1337     309
   2   6   9    2127     299
  -2  -6 -10       7     257
   2   6  10     159     252
  -2  -6 -11     408     277
   2   6  11       5     232
  -2  -6 -12     356     295
   2   6  12     813     277
  -2  -6 -13     211     255
   2   6  13     319     272
  -2  -6 -14     182     305
   2   6  14      11     257
  -2  -6 -15     111     297
  -3  -5  15      58     307
  -3  -5  14      83     297
  -3  -5  13    1786     335
  -3  -5  12     298     275
  -3  -5  11    1237     319
  -3  -5  10      13     172
  -3  -5  10      12     249
  -3  -5   9    3171     258
  -3  -5   9    2954     328
  -3  -5   8    3245     347
  -3  -5   8    3200     242
  -3  -5   7   10897     548
  -3  -5   7   10579     444
  -3  -5   6      11     118
  -3  -5   6       1     185
  -3  -5   5   22789     809
  -3  -5   5   22479     895
  -3  -5   4   10830     455
  -3  -5   4   11167     530
  -3  -5   3    8866     400
  -3  -5   3    8515     466
  -3  -5   2    4043     221
  -3  -5   2    3937     275
  -3  -5   1   24408     791
  -3  -5   1   24219     739
  -3  -5   0   32866    1014
  -3  -5   0   31921    1055
  -3  -5  -1   21178     687
  -3  -5  -1   22830     718
  -3  -5  -2    2051     193
  -3  -5  -2    3176     207
  -3  -5  -3    8515     442
  -3  -5  -3    9295     441
  -3  -5  -4    8667     439
  -3  -5  -4    9047     426
  -3  -5  -5   21715     849
  -3  -5  -5   21685     817
   3   5   5   21899     836
  -3  -5  -6       9     133
  -3  -5  -6       1     173
   3   5   6       1     160
  -3  -5  -7    9739     422
  -3  -5  -7   10836     516
   3   5   7    9779     477
  -3  -5  -8    3441     251
  -3  -5  -8    3810     368
   3   5   8    3566     312
  -3  -5  -9    3251     365
   3   5   9    2874     309
  -3  -5 -10      11     254
   3   5  10      68     233
  -3  -5 -11    1176     280
   3   5  11     783     268
  -3  -5 -12     345     248
   3   5  12     447     261
  -3  -5 -13    1414     300
   3   5  13    2018     320
  -3  -5 -14       5     224
  -3  -5 -15      16     299
  -4  -4  15      66     325
  -4  -4  14     127     298
  -4  -4  13       0     278
  -4  -4  12    1392     334
  -4  -4  11     192     252
  -4  -4  10     134     251
  -4  -4   9     637     178
  -4  -4   9     455     263
  -4  -4   8    3211     229
  -4  -4   8    3876     357
  -4  -4   7    4785     236
  -4  -4   7    5286     358
  -4  -4   6   11449     568
  -4  -4   6   11006     449
  -4  -4   5    4986     245
  -4  -4   5    5151     348
  -4  -4   4   10406     399
  -4  -4   4    9546     480
  -4  -4   3      25     140
  -4  -4   3       5      96
  -4  -4   2    1643     153
  -4  -4   2    1976     230
  -4  -4   1      91     140
  -4  -4   1     143     103
  -4  -4   0   67210    2113
  -4  -4   0   67689    2199
  -4  -4  -1       5     103
  -4  -4  -1      75     145
  -4  -4  -2    1611     190
  -4  -4  -2    1735     195
  -4  -4  -3     142     155
  -4  -4  -3      46     113
  -4  -4  -4    9683     442
  -4  -4  -4    9267     438
  -4  -4  -5    4412     292
  -4  -4  -5    4216     284
   4   4   5    4899     285
  -4  -4  -6   11210     509
  -4  -4  -6   10546     527
   4   4   6   11645     519
  -4  -4  -7    5055     292
  -4  -4  -7    4521     320
   4   4   7    5053     308
  -4  -4  -8    4053     372
  -4  -4  -8    3529     279
   4   4   8    3826     309
  -4  -4  -9    1049     292
  -4  -4  -9     526     182
   4   4   9     453     232
  -4  -4 -10      89     231
   4   4  10     110     220
  -4  -4 -11      34     231
   4   4  11       0     215
  -4  -4 -12    1374     331
   4   4  12    1568     269
  -4  -4 -13     134     239
  -4  -4 -14     852     336
  -4  -4 -15      36     244
  -5  -3  15      57     300
  -5  -3  14       5     272
  -5  -3  13    1794     334
  -5  -3  12     749     305
  -5  -3  11    1451     320
  -5  -3  10     100     250
  -5  -3   9    2705     220
  -5  -3   9    2715     339
  -5  -3   8    3677     358
  -5  -3   8    3105     213
  -5  -3   7   10395     385
  -5  -3   7    9681     495
  -5  -3   6     208      95
  -5  -3   6     451     206
  -5  -3   5   21972     882
  -5  -3   5   22242     749
  -5  -3   4    9491     354
  -5  -3   4    8847     462
  -5  -3   3    9077     357
  -5  -3   3    8995     470
  -5  -3   2    3424     168
  -5  -3   2    3501     247
  -5  -3   1   22508     747
  -5  -3   1   22706     673
  -5  -3   0   33293    1085
  -5  -3   0   33174    1016
  -5  -3  -1   24057     768
  -5  -3  -1   23296     714
  -5  -3  -2    4193     270
  -5  -3  -2    3762     235
  -5  -3  -3    5481     315
  -5  -3  -4    9917     466
  -5  -3  -4   10020     462
  -5  -3  -5   21776     833
  -5  -3  -5   21465     828
  -5  -3  -6      60     157
  -5  -3  -6      46     185
   5   3   6       6     135
  -5  -3  -7   10464     480
  -5  -3  -7    9975     494
   5   3   7   10173     457
  -5  -3  -8    3338     284
  -5  -3  -8    3176     321
   5   3   8    3354     275
  -5  -3  -9    2839     277
  -5  -3  -9    2420     340
   5   3   9    2985     281
  -5  -3 -10     416     286
   5   3  10     134     215
  -5  -3 -11    1045     273
   5   3  11     823     237
  -5  -3 -12     881     271
  -5  -3 -13    2301     333
  -5  -3 -14       4     251
  -5  -3 -15     182     305
  -6  -2  15     122     271
  -6  -2  14      11     270
  -6  -2  13     400     294
  -6  -2  12     307     258
  -6  -2  11     211     271
  -6  -2  10       7     241
  -6  -2   9    1868     309
  -6  -2   8      25     103
  -6  -2   8      12     221
  -6  -2   7    3628     192
  -6  -2   7    4052     361
  -6  -2   6    6941     421
  -6  -2   5     876     184
  -6  -2   4    1399     223
  -6  -2   3    1421     228
  -6  -2   2    1306     199
  -6  -2   2    1043     103
  -6  -2   1    6070     202
  -6  -2   1    6201     298
  -6  -2   0    4055     314
  -6  -2   0    3945     231
  -6  -2  -1    6360     315
  -6  -2  -1    6247     248
  -6  -2  -2    1095     162
  -6  -2  -2    1098     202
  -6  -2  -3     872     157
  -6  -2  -3     697     192
  -6  -2  -4     885     170
  -6  -2  -4    1241     203
  -6  -2  -5    1435     197
  -6  -2  -5     769     162
  -6  -2  -6    6260     364
  -6  -2  -6    6106     388
   6   2   6    6074     312
  -6  -2  -7    3609     325
  -6  -2  -7    3632     328
   6   2   7    3739     275
  -6  -2  -8     254     216
  -6  -2  -8      25     190
   6   2   8      61     157
  -6  -2  -9    2525     283
  -6  -2  -9    1632     290
   6   2   9    1480     229
  -6  -2 -10       8     214
   6   2  10      24     189
  -6  -2 -11       5     217
  -6  -2 -12     568     295
  -6  -2 -13     723     281
  -6  -2 -14      12     241
  -6  -2 -15     210     322
  -7  -1  15      15     275
  -7  -1  14      10     282
  -7  -1  14     108     260
  -7  -1  13       4     269
  -7  -1  12       4     263
  -7  -1  11     417     250
  -7  -1  10     703     272
  -7  -1   9    2306     319
  -7  -1   8    3894     363
  -7  -1   7    4449     366
  -7  -1   6    3757     318
  -7  -1   5    2973     276
  -7  -1   4   18289     727
  -7  -1   3    1613     223
  -7  -1   2     665     182
  -7  -1   2     793      91
  -7  -1   1   12034     597
  -7  -1   1   12384     509
  -7  -1   0     417     178
  -7  -1   0     486     101
  -7  -1  -1   12214     542
  -7  -1  -1   12415     617
  -7  -1  -2     678     204
  -7  -1  -2     861     163
  -7  -1  -3    1627     241
  -7  -1  -3    1600     204
  -7  -1  -4   17749     710
  -7  -1  -4   18695     687
  -7  -1  -5    3462     279
  -7  -1  -5    3031     267
  -7  -1  -6    3803     317
  -7  -1  -7    4096     343
  -7  -1  -7    4234     349
   7   1   7    4398     260
  -7  -1  -8    2951     330
  -7  -1  -8    3311     339
   7   1   8    3806     273
  -7  -1  -9    2740     305
  -7  -1  -9    2242     297
   7   1   9    2499     233
  -7  -1 -10     988     267
  -7  -1 -10     649     270
  -7  -1 -11     239     234
  -7  -1 -12       4     216
  -7  -1 -13     148     293
  -7  -1 -14      12     271
  -7  -1 -15      76     272
  -8   0  15     159     248
  -8   0  14       2     214
  -8   0  13     670     267
  -8   0  13     347     285
  -8   0  12     278     274
  -8   0  11      37     258
  -8   0  10    2419     322
  -8   0   9     941     283
  -8   0   8    5240     433
  -8   0   7     384     223
  -8   0   6    4653     368
  -8   0   5     235     207
  -8   0   4   11593     518
  -8   0   3    7717     394
  -8   0   2   12447     468
  -8   0   2   11993     582
  -8   0   1    6936     403
  -8   0   1    7930     319
  -8   0   0    6138     412
  -8   0   0    6455     336
  -8   0  -1    7476     349
  -8   0  -1    7568     429
  -8   0  -2   12161     532
  -8   0  -2   12405     600
  -8   0  -3    7456     394
  -8   0  -3    7501     335
  -8   0  -4   11553     528
  -8   0  -4   11101     482
  -8   0  -5       2     183
  -8   0  -5     353     213
  -8   0  -6    4395     329
  -8   0  -6    4950     370
  -8   0  -7     205     212
  -8   0  -7     195     234
  -8   0  -8    5344     390
  -8   0  -9    1143     254
  -8   0  -9    1058     270
  -8   0 -10    3018     341
  -8   0 -10    2687     364
  -8   0 -11      69     232
  -8   0 -12       1     266
  -8   0 -13      16     288
  -8   0 -14      82     308
  -8   0 -15     353     332
  -9   1  15     233     290
  -9   1  14      40     273
  -9   1  13       5     255
  -9   1  13       5     268
  -9   1  12     893     276
  -9   1  12    1209     317
  -9   1  11     332     239
  -9   1  11    1080     304
  -9   1  10     239     271
  -9   1   9    4964     417
  -9   1   8    2746     355
  -9   1   7    1192     261
  -9   1   6    3011     319
  -9   1   5    3185     328
  -9   1   4    2221     272
  -9   1   3   25199     971
   9  -1  -3   22903     830
  -9   1   2     488     220
   9  -1  -2     323      93
  -9   1   1    2380     166
  -9   1   1    2849     279
  -9   1   0   20755     785
  -9   1   0   20858     700
  -9   1  -1    2269     184
  -9   1  -1    2100     240
  -9   1  -2     419     151
  -9   1  -2     507     216
  -9   1  -3   24559    1005
  -9   1  -3   24102     940
  -9   1  -4    1393     257
  -9   1  -4    1564     209
  -9   1  -5    2910     335
  -9   1  -5    3042     306
  -9   1  -6    2514     302
  -9   1  -6    3015     330
  -9   1  -7     943     235
  -9   1  -7    1333     285
  -9   1  -8    2716     352
  -9   1  -8    1824     291
  -9   1  -9    4799     433
  -9   1  -9    5225     436
  -9   1 -10     153     235
  -9   1 -10     143     103
  -9   1 -11     483     254
  -9   1 -12    1081     296
  -9   1 -13     420     319
  -9   1 -14      35     303
 -10   2  14      19     265
 -10   2  13      13     248
 -10   2  12     340     263
 -10   2  12      65     270
 -10   2  11     986     297
 -10   2  11     787     273
 -10   2  10    1003     277
 -10   2  10    1235     286
 -10   2   9     318     270
 -10   2   9     497     246
 -10   2   8     761     284
 -10   2   7    2728     328
 -10   2   6    4323     386
 -10   2   5     953     260
 -10   2   4    6340     424
 -10   2   3    4534     348
  10  -2  -3    4295     235
 -10   2   2    3729     318
  10  -2  -2    3600     214
 -10   2   1    2288     277
  10  -2  -1    2061     170
 -10   2   0    3633     310
 -10   2   0    3498     210
 -10   2  -1    1999     277
 -10   2  -1    2207     212
 -10   2  -2    3320     316
 -10   2  -2    3307     259
 -10   2  -2    3525     188
 -10   2  -3    4182     312
 -10   2  -3    4323     372
 -10   2  -4    6167     367
 -10   2  -4    5932     438
 -10   2  -5     445     259
 -10   2  -5     863     239
 -10   2  -6    4470     375
 -10   2  -6    3874     393
 -10   2  -7    1790     275
 -10   2  -7    2386     331
 -10   2  -8     745     284
 -10   2  -8     518     291
 -10   2  -9     606     295
 -10   2  -9     136     272
 -10   2 -10     613     302
 -10   2 -10    1529     320
 -10   2 -11     799     274
 -10   2 -12     469     301
 -10   2 -13     395     280
 -10   2 -14     130     275
 -11   3  14     334     298
 -11   3  13     197     271
 -11   3  12     142     277
 -11   3  12     480     282
 -11   3  11      21     213
 -11   3  11       3     249
 -11   3  10    1141     283
 -11   3  10    1085     301
 -11   3   9    1713     313
 -11   3   9    2465     351
 -11   3   8       6     233
 -11   3   8       6     224
 -11   3   7     409     276
 -11   3   7     183     222
 -11   3   6    1098     283
 -11   3   6     728     229
 -11   3   5     831     199
 -11   3   5     955     250
 -11   3   4      51     220
 -11   3   4      86     164
  11  -3  -4     215     108
 -11   3   3    7079     403
 -11   3   3    6689     341
  11  -3  -3    5968     268
 -11   3   2     855     153
 -11   3   2    1031     241
  11  -3  -2    1098     149
 -11   3   1    1194     172
 -11   3   1    1091     229
  11  -3  -1    1311     165
 -11   3   0    1919     281
 -11   3   0    1993     181
  11  -3   0    2146     190
 -11   3  -1    1386     149
 -11   3  -1    1747     203
 -11   3  -1    1436     249
 -11   3  -2     874     108
 -11   3  -2     690     235
 -11   3  -2     912     173
 -11   3  -3    6063     329
 -11   3  -3    6524     400
 -11   3  -4     222     243
 -11   3  -4     234     166
 -11   3  -5     866     236
 -11   3  -5     915     206
 -11   3  -6     732     294
 -11   3  -6    1155     251
 -11   3  -7     353     228
 -11   3  -7     595     282
 -11   3  -8     135     299
 -11   3  -8      40     228
 -11   3  -9    2236     359
 -11   3  -9    1893     318
 -11   3 -10    1500     311
 -11   3 -10     930     307
 -11   3 -11      69     241
 -11   3 -12     482     272
 -11   3 -13     114     261
 -11   3 -14     131     327
 -12   4  14       1     284
 -12   4  13     678     316
 -12   4  12       0     263
 -12   4  11     191     272
 -12   4  11      23     245
 -12   4  10     864     278
 -12   4  10    1337     306
 -12   4   9    2531     322
 -12   4   9    2684     343
 -12   4   8     594     298
 -12   4   8     931     288
 -12   4   7    2743     328
 -12   4   7    2918     335
 -12   4   6    1322     307
 -12   4   6     874     255
 -12   4   5    1471     268
 -12   4   5    1033     288
  12  -4  -5    1343     164
 -12   4   4    2758     309
 -12   4   4    2418     257
  12  -4  -4    2120     194
 -12   4   3    3052     304
 -12   4   3    3068     264
  12  -4  -3    3355     247
 -12   4   2    5895     385
 -12   4   2    6627     351
  12  -4  -2    6081     301
 -12   4   1    7349     366
 -12   4   1    7401     448
  12  -4  -1    7695     352
 -12   4   0      21     222
 -12   4   0      47     129
  12  -4   0     216     137
 -12   4  -1    6957     309
 -12   4  -1    6961     351
 -12   4  -1    7198     412
  12  -4   1    6526     330
 -12   4  -2    6104     413
 -12   4  -2    6338     338
 -12   4  -2    5948     263
 -12   4  -3    3581     296
 -12   4  -3    3436     356
 -12   4  -4    2820     288
 -12   4  -4    2678     347
 -12   4  -5    1436     284
 -12   4  -5    1726     343
 -12   4  -6    1530     332
 -12   4  -6    1119     285
 -12   4  -7    2565     343
 -12   4  -7    2605     382
 -12   4  -8     601     262
 -12   4  -8     343     297
 -12   4  -9    3189     422
 -12   4  -9    2250     369
 -12   4 -10    1522     341
 -12   4 -10    1309     306
 -12   4 -11     184     305
 -12   4 -12      79     300
 -12   4 -13     270     286
 -12   4 -14     344     349
 -13   5  13       2     284
 -13   5  12      77     285
 -13   5  11     725     307
 -13   5  11     749     306
 -13   5  10    1011     282
 -13   5  10    1164     299
 -13   5   9      11     249
 -13   5   9     442     257
 -13   5   8     656     263
 -13   5   8     738     268
 -13   5   7    1490     296
 -13   5   7    2284     354
 -13   5   6     384     243
 -13   5   6     543     287
 -13   5   5    3762     376
 -13   5   5    3208     333
 -13   5   4    4669     425
 -13   5   4    5105     407
  13  -5  -4    4264     311
 -13   5   3    2580     316
 -13   5   3    2527     273
  13  -5  -3    2737     267
 -13   5   2    2087     247
 -13   5   2    2989     343
  13  -5  -2    2222     228
 -13   5   1    2662     255
 -13   5   1    3310     366
  13  -5  -1    3091     254
 -13   5   0     328     159
 -13   5   0     195     216
  13  -5   0     711     186
 -13   5  -1    2919     222
 -13   5  -1    3095     350
  13  -5   1    2543     252
 -13   5  -2    2470     262
 -13   5  -2    2157     186
 -13   5  -2    2612     342
  13  -5   2    2532     259
 -13   5  -3    2840     390
 -13   5  -3    3286     321
 -13   5  -4    5344     466
 -13   5  -4    4594     356
 -13   5  -5    3693     344
 -13   5  -5    3310     379
 -13   5  -6     433     298
 -13   5  -6     818     243
 -13   5  -7    1622     295
 -13   5  -7    2161     376
 -13   5  -8    1113     318
 -13   5  -8     137     276
 -13   5  -9     141     238
 -13   5  -9      11     264
 -13   5 -10    1166     320
 -13   5 -10     693     315
 -13   5 -11      12     255
 -13   5 -11     603     309
 -13   5 -12     241     317
 -13   5 -13     418     338
 -14   6  13       1     279
 -14   6  12     275     250
 -14   6  11     288     284
 -14   6  10       6     254
 -14   6  10       6     255
 -14   6   9    1077     300
 -14   6   9     725     288
 -14   6   8     519     272
 -14   6   8     392     277
 -14   6   7    1116     292
 -14   6   7     942     285
 -14   6   6     662     259
 -14   6   6     404     277
 -14   6   5    2063     296
 -14   6   5    2808     345
 -14   6   4     526     223
 -14   6   4     667     267
  14  -6  -4     188     198
 -14   6   3    9774     595
  14  -6  -3    9916     522
 -14   6   2     120     266
 -14   6   2      36     196
  14  -6  -2     644     202
 -14   6   1    1940     315
 -14   6   1    2082     248
  14  -6  -1    1916     248
 -14   6   0    7598     402
 -14   6   0    8270     517
  14  -6   0    8065     418
 -14   6  -1    2218     225
 -14   6  -1    2373     341
 -14   6  -2     224     153
 -14   6  -2     579     250
  14  -6   2     359     221
 -14   6  -3   10841     646
  14  -6   3    9640     547
 -14   6  -4     214     248
 -14   6  -4     386     234
 -14   6  -5    2828     398
 -14   6  -5    2685     330
 -14   6  -6     585     318
 -14   6  -6     543     247
 -14   6  -7     722     315
 -14   6  -7     809     309
 -14   6  -8     180     241
 -14   6  -8     121     294
 -14   6  -9     727     284
 -14   6  -9     844     321
 -14   6 -10     299     308
 -14   6 -10     528     325
 -14   6 -11     178     309
 -14   6 -12     445     338
 -14   6 -13       1     319
 -15   7  12       5     298
 -15   7  11      49     295
 -15   7  10      43     279
 -15   7   9       4     268
 -15   7   9     257     264
 -15   7   8     129     262
 -15   7   8     183     267
 -15   7   7       1     231
 -15   7   7     209     265
 -15   7   6      75     259
 -15   7   6     586     268
 -15   7   5     694     278
 -15   7   5      11     232
 -15   7   4    1264     308
 -15   7   4    1109     258
  15  -7  -4     894     250
 -15   7   3    1870     335
  15  -7  -3    1893     279
 -15   7   2     285     270
 -15   7   2     540     220
  15  -7  -2     219     213
 -15   7   1    1758     257
 -15   7   1    1779     334
  15  -7  -1    2215     284
 -15   7   0     260     186
 -15   7   0      98     231
  15  -7   0     535     216
 -15   7  -1    1527     227
 -15   7  -1    1968     349
 -15   7  -2     399     254
  15  -7   2     324     218
 -15   7  -3    1809     315
  15  -7   3    2348     302
 -15   7  -4     993     332
  15  -7   4    1155     250
 -15   7  -5     291     305
 -15   7  -5     277     262
  15  -7   5     306     252
 -15   7  -6     264     265
 -15   7  -6     397     263
 -15   7  -7       1     225
 -15   7  -7       1     244
 -15   7  -8      14     234
 -15   7  -8     162     296
 -15   7  -9     143     296
 -15   7  -9      49     290
 -15   7 -10      50     311
 -15   7 -10     374     279
 -15   7 -11      15     313
 -15   7 -12       6     303
 -16   8  12      31     304
 -16   8  11      23     285
 -16   8  10      67     284
 -16   8   9     458     272
 -16   8   9       4     257
 -16   8   8       6     249
 -16   8   8      36     265
 -16   8   7     293     282
 -16   8   7     257     255
 -16   8   6    2025     336
 -16   8   6    1780     307
 -16   8   5     365     255
 -16   8   5     773     296
 -16   8   4    1047     318
 -16   8   4     960     271
 -16   8   3     695     284
 -16   8   3       7     143
  16  -8  -3     394     240
 -16   8   2     764     290
 -16   8   2     629     239
  16  -8  -2    1114     254
 -16   8   1    1414     255
 -16   8   1     829     299
  16  -8  -1    1245     262
 -16   8   0    2084     364
 -16   8   0    1855     270
  16  -8   0    1857     313
 -16   8  -1    1111     321
 -16   8  -1     995     224
  16  -8   1     398     137
 -16   8  -2     903     284
  16  -8   2     591     271
 -16   8  -3     612     300
  16  -8   3     143     236
 -16   8  -4     899     321
  16  -8   4     304     256
 -16   8  -5     768     333
  16  -8   5     514     281
 -16   8  -6    1201     336
  16  -8   6    1672     292
 -16   8  -7     208     317
 -16   8  -7      69     232
  16  -8   7     429     252
 -16   8  -8       6     277
 -16   8  -8      23     282
 -16   8  -9     730     337
 -16   8  -9     243     256
 -16   8 -10       2     259
 -16   8 -10     341     321
 -16   8 -11      23     299
 -16   8 -12       2     310
 -17   9  11       7     290
 -17   9  10     179     302
 -17   9   9     199     285
 -17   9   8       1     272
 -17   9   8       1     238
 -17   9   7     780     287
 -17   9   7    1180     326
 -17   9   6     490     287
 -17   9   6     816     284
 -17   9   5     900     279
 -17   9   5     882     290
 -17   9   4     377     264
 -17   9   4     263     248
 -17   9   3      40     246
 -17   9   3      70     218
  17  -9  -3      22     247
 -17   9   2     314     237
 -17   9   2     154     276
  17  -9  -2     321     250
 -17   9   1    1756     349
 -17   9   1    1627     291
  17  -9  -1    1543     306
 -17   9   0     479     308
 -17   9   0     447     226
  17  -9   0     430     266
 -17   9  -1    1249     310
  17  -9   1    1165     247
 -17   9  -2     321     294
  17  -9   2     322     242
 -17   9  -3      13     277
  17  -9   3      13     240
 -17   9  -4       2     271
  17  -9   4       2     235
 -17   9  -5    1245     366
  17  -9   5    1373     324
 -17   9  -6     448     312
  17  -9   6     302     274
 -17   9  -7     309     314
  17  -9   7     893     311
 -17   9  -8     328     329
  17  -9   8       2     271
 -17   9  -9       8     300
  17  -9   9     183     299
 -17   9 -10      91     312
  17  -9  10      27     233
  17  -9  11     212     327
 -18  10  10       7     297
 -18  10   9      50     298
 -18  10   8     411     281
 -18  10   8     287     288
 -18  10   7     814     313
 -18  10   7    1089     311
 -18  10   6       3     258
 -18  10   6       1     265
 -18  10   5    1076     319
 -18  10   5     736     300
 -18  10   4       3     255
 -18  10   4     527     282
 -18  10   3     410     267
 -18  10   3       3     241
 -18  10   2     539     286
 -18  10   2     209     245
  18 -10  -2     317     269
 -18  10   1    1403     284
 -18  10   1    1145     316
  18 -10  -1    1182     309
 -18  10   0    1477     336
  18 -10   0    1277     311
 -18  10  -1    1048     327
  18 -10   1    1097     302
 -18  10  -2       6     278
  18 -10   2     202     246
 -18  10  -3       3     280
  18 -10   3     252     257
 -18  10  -4     152     255
  18 -10   4     432     288
 -18  10  -5    1117     359
  18 -10   5    1410     329
 -18  10  -6       1     292
  18 -10   6       1     263
 -18  10  -7     978     368
  18 -10   7     684     282
 -18  10  -8     943     367
  18 -10   8     595     321
 -18  10  -9       7     314
  18 -10   9       7     300
 -18  10 -10      77     313
  18 -10  10       6     250
 -19  11   9      27     282
 -19  11   8       9     286
 -19  11   7     227     313
 -19  11   7     354     289
 -19  11   6    1042     332
 -19  11   6    1004     317
 -19  11   5      31     280
 -19  11   5     126     292
 -19  11   4      29     236
 -19  11   4      29     276
 -19  11   3     572     289
 -19  11   3     137     266
 -19  11   2     140     252
 -19  11   2      15     273
  19 -11  -2      23     281
 -19  11   1      52     277
  19 -11  -1       7     260
 -19  11   0    1728     328
  19 -11   0    1377     292
 -19  11  -1      39     282
  19 -11   1       6     246
 -19  11  -2       1     277
  19 -11   2     473     274
 -19  11  -3      10     298
  19 -11   3     105     265
 -19  11  -4     306     317
  19 -11   4      30     255
 -19  11  -5     459     279
  19 -11   5      29     289
 -19  11  -6    1322     380
  19 -11   6       5     294
 -19  11  -7     100     285
  19 -11   7     355     314
 -19  11  -8     688     353
  19 -11   8     174     309
 -19  11  -9      28     339
  19 -11   9      28     305
 -20  12   8      14     306
 -20  12   7       3     290
 -20  12   7     405     293
 -20  12   6      77     309
 -20  12   6      79     305
 -20  12   5       3     297
 -20  12   5       3     276
 -20  12   4     158     291
 -20  12   4      26     196
 -20  12   3     114     284
 -20  12   3     197     285
 -20  12   2     356     284
 -20  12   1     227     288
  20 -12  -1     157     275
 -20  12   0     136     283
  20 -12   0       1     140
 -20  12  -1     476     313
  20 -12   1     871     304
 -20  12  -2       3     282
  20 -12   2     199     284
 -20  12  -3       0     296
  20 -12   3       0     274
 -20  12  -4      96     320
  20 -12   4      57     285
 -20  12  -5       4     317
  20 -12   5      54     303
 -20  12  -6      48     333
  20 -12   6      12     311
 -20  12  -7       2     324
  20 -12   7     228     325
 -20  12  -8     165     345
  20 -12   8      10     307
 -21  13   7     174     316
 -21  13   6      50     292
 -21  13   6      50     300
 -21  13   5      10     267
 -21  13   5     393     316
 -21  13   4       0     286
 -21  13   4      27     104
 -21  13   3     711     310
 -21  13   2      79     288
 -21  13   1       8     274
  21 -13  -1       8     294
 -21  13   0     522     311
 -21  13  -1       8     291
  21 -13   1       8     278
 -21  13  -2      15     255
  21 -13   2      15     275
 -21  13  -3     498     334
  21 -13   3      23     308
 -21  13  -4      64     324
  21 -13   4      26     310
 -21  13  -5     512     350
  21 -13   5     348     327
 -21  13  -6     173     345
  21 -13   6      50     286
 -21  13  -7       1     332
  21 -13   7       1     265
 -22  14   5      25     335
 -22  14   5     343     322
 -22  14   4    1004     329
 -22  14   3     627     339
 -22  14   2       0     321
 -22  14   1     287     315
 -22  14   0       4     295
  22 -14   0       4     131
 -22  14  -1      24     287
  22 -14   1      24     288
 -22  14  -2       8     299
  22 -14   2       8     322
 -22  14  -3     563     345
  22 -14   3      14     316
 -22  14  -4     667     360
  22 -14   4     258     293
 -22  14  -5     210     342
  22 -14   5      25     309
 -23  15   1      37     332
 -23  15   0      19     312
  23 -15   0      19     256
 -23  15  -1     207     333
  23 -15   1      36     360
  14 -23   2       8     315
  14 -23   1     179     406
  14 -23   0     241     415
  14 -23  -1      20     390
  14 -23  -2       1     380
  13 -22   5     310     365
  13 -22   4     439     421
  13 -22   3      13     390
  13 -22   2     175     386
  13 -22   1       8     367
  13 -22   0       6     329
  13 -22  -1     424     388
  13 -22  -2     156     321
  13 -22  -3      12     363
  13 -22  -4    1292     426
  13 -22  -5       4     384
  12 -21   7       8     382
  12 -21   6      41     381
  12 -21   5     337     385
  12 -21   4     118     392
  12 -21   3     224     378
  12 -21   2      13     315
  12 -21   1       4     314
  12 -21   0       4     358
  12 -21  -1       3     316
  12 -21  -2     239     383
  12 -21  -3     283     376
  12 -21  -4      61     320
  12 -21  -5      34     317
  12 -21  -6      19     357
  12 -21  -7       6     345
 -12  21   7      12     349
  11 -20   8     132     401
  11 -20   7     235     376
  11 -20   6     970     426
  11 -20   5     542     394
  11 -20   4      47     370
  11 -20   3       7     305
  11 -20   2       4     310
  11 -20   1       4     314
  11 -20   0       1     367
  11 -20  -1     544     379
  11 -20  -2     779     388
  11 -20  -3       7     343
  11 -20  -4     190     308
  11 -20  -5       7     371
  11 -20  -6     890     393
 -11  20   6     391     314
  11 -20  -7     624     330
 -11  20   7     544     337
  11 -20  -8      46     351
 -11  20   8      13     333
  10 -19   9      30     355
  10 -19   8     233     329
  10 -19   7    1367     389
  10 -19   6     406     329
  10 -19   5     298     310
  10 -19   4     477     314
  10 -19   3     294     370
  10 -19   2     964     343
  10 -19   1    1143     404
  10 -19   0     331     310
  10 -19  -1    1033     352
  10 -19  -2     237     354
  10 -19  -3       9     295
  10 -19  -4     414     306
  10 -19  -5     370     354
  10 -19  -6     579     361
 -10  19   6     193     296
  10 -19  -7    1597     421
 -10  19   7     713     369
  10 -19  -8      60     298
 -10  19   8      40     324
  10 -19  -9      22     353
 -10  19   9      10     329
   9 -18  10     127     347
   9 -18   9     137     355
   9 -18   8    1281     396
   9 -18   7       0     330
   9 -18   6     801     336
   9 -18   5     100     302
   9 -18   4    1622     417
   9 -18   3       7     339
   9 -18   2     226     291
   9 -18   1     553     312
   9 -18   0    3758     455
   9 -18  -1    1160     369
   9 -18  -2     186     290
   9 -18  -3      30     284
   9 -18  -4    1221     342
   9 -18  -5     117     284
  -9  18   5       4     325
   9 -18  -6     848     329
  -9  18   6    1353     365
   9 -18  -7      55     285
  -9  18   7     107     320
   9 -18  -8    1361     352
  -9  18   8    1038     325
   9 -18  -9     269     340
  -9  18   9     281     356
   9 -18 -10       0     350
  -9  18  10      31     335
   8 -17  11       6     310
   8 -17  10       5     325
   8 -17   9       6     305
   8 -17   8     216     321
   8 -17   7     229     336
   8 -17   6     774     314
   8 -17   5    1312     398
   8 -17   4      90     283
   8 -17   3      55     349
   8 -17   2      14     336
   8 -17   1    2429     445
   8 -17   0     202     306
   8 -17  -1    1247     345
   8 -17  -2      15     271
   8 -17  -3      11     275
   8 -17  -4     353     331
   8 -17  -5     931     322
  -8  17   5     833     314
   8 -17  -6     262     285
  -8  17   6     770     292
   8 -17  -7     715     345
  -8  17   7     847     349
   8 -17  -8       1     314
  -8  17   8     429     344
   8 -17  -9     348     340
  -8  17   9       6     328
   8 -17 -10     190     295
  -8  17  10      28     282
   8 -17 -11       7     327
  -8  17  11      54     343
   7 -16  12       9     314
   7 -16  11      21     310
   7 -16  10       4     307
   7 -16   9      34     300
   7 -16   8     303     274
   7 -16   7     340     323
   7 -16   6    1264     365
   7 -16   5     246     294
   7 -16   4     190     275
   7 -16   3     917     377
   7 -16   2     370     309
   7 -16   1    1140     380
   7 -16   0    1187     387
   7 -16  -1    1031     335
   7 -16  -2     596     356
   7 -16  -3     921     323
   7 -16  -4      15     314
   7 -16  -5     352     295
  -7  16   5     423     328
   7 -16  -6     625     340
  -7  16   6     740     331
   7 -16  -7       3     247
  -7  16   7     342     311
   7 -16  -8      25     274
  -7  16   8     133     316
   7 -16  -9     469     299
  -7  16   9     195     328
   7 -16 -10     218     280
  -7  16  10       5     322
   7 -16 -11       8     327
  -7  16  11      57     337
   7 -16 -12     291     280
  -7  16  12     459     374
   6 -15  12      12     286
   6 -15  11     409     319
   6 -15  10     869     342
   6 -15   9      14     298
   6 -15   8      19     278
   6 -15   7     793     312
   6 -15   6       9     304
   6 -15   5    1498     379
   6 -15   4    1559     325
   6 -15   3     739     350
   6 -15   2    2970     395
   6 -15   1    2086     361
   6 -15   0    4284     460
   6 -15  -1    1703     382
   6 -15  -2    3255     400
   6 -15  -3     851     303
   6 -15  -4    1175     324
   6 -15  -5     790     311
  -6  15   5     513     322
   6 -15  -6     110     309
  -6  15   6     148     303
   6 -15  -7     952     309
  -6  15   7     886     323
   6 -15  -8      17     285
  -6  15   8      17     290
   6 -15  -9     288     325
  -6  15   9     148     327
   6 -15 -10     433     288
  -6  15  10     338     325
   6 -15 -11      18     306
  -6  15  11     723     339
   6 -15 -12     259     308
  -6  15  12      67     319
   5 -14  13     143     305
   5 -14  12     505     311
   5 -14  11      81     316
   5 -14  10     774     320
   5 -14   9      18     275
   5 -14   8    1138     331
   5 -14   7     610     302
   5 -14   6    1793     329
   5 -14   5     953     337
   5 -14   4    6810     530
   5 -14   3    3095     381
   5 -14   2    7136     541
   5 -14   1    1025     288
   5 -14   0    2457     358
   5 -14  -1     891     318
   5 -14  -2    5594     482
   5 -14  -3    3421     280
   5 -14  -3    3375     382
   5 -14  -4    5125     461
   5 -14  -4    5272     320
   5 -14  -5     686     287
  -5  14   5     335     263
   5 -14  -6    1798     340
  -5  14   6    1545     359
   5 -14  -7    1089     355
  -5  14   7     825     337
   5 -14  -8     854     300
  -5  14   8    1138     341
   5 -14  -9     819     275
  -5  14   9     849     317
   5 -14 -10    1970     387
  -5  14  10     789     343
   5 -14 -11     309     316
  -5  14  11       9     296
   5 -14 -12     138     335
  -5  14  12      84     309
   5 -14 -13     166     303
  -5  14  13     457     338
   4 -13  13       9     284
   4 -13  12      17     299
   4 -13  11     307     286
   4 -13  10     667     282
   4 -13   9    2797     370
   4 -13   8      18     250
   4 -13   7       5     264
   4 -13   6    6164     486
   4 -13   5    2739     386
   4 -13   4     844     281
   4 -13   3   10767     628
   4 -13   2    4112     414
   4 -13   1    1834     352
   4 -13   0     744     272
   4 -13  -1    1477     289
   4 -13  -2    3514     371
   4 -13  -2    4067     308
   4 -13  -3   10443     611
   4 -13  -3    9583     462
   4 -13  -4     533     280
   4 -13  -4     548     170
   4 -13  -5    1641     324
  -4  13   5    2007     350
   4 -13  -6    6100     465
  -4  13   6    5056     445
   4 -13  -7     195     269
  -4  13   7     485     309
   4 -13  -8      18     242
  -4  13   8       5     298
   4 -13  -9    2183     358
  -4  13   9    2345     371
   4 -13 -10     524     270
  -4  13  10       4     273
   4 -13 -11     486     322
  -4  13  11     303     304
   4 -13 -12     267     303
  -4  13  12     529     317
   4 -13 -13     396     324
  -4  13  13      79     321
   3 -12  14     391     320
   3 -12  13     285     274
   3 -12  12      32     249
   3 -12  11     360     275
   3 -12  10    1668     332
   3 -12   9      24     240
   3 -12   8    1291     303
   3 -12   7    1816     312
   3 -12   6    2569     344
   3 -12   5    1974     320
   3 -12   4    5743     459
   3 -12   3    1744     283
   3 -12   2    1900     329
   3 -12   1    2194     288
   3 -12   0       3     205
   3 -12  -1    2823     252
   3 -12  -1    2214     315
   3 -12  -2    1846     238
   3 -12  -2    1755     299
   3 -12  -3    1529     279
   3 -12  -3    1489     199
   3 -12  -4    5397     316
   3 -12  -4    5513     469
  -3  12   4    5169     451
   3 -12  -5    1731     299
   3 -12  -5    1370     172
  -3  12   5    2234     342
   3 -12  -6    1842     330
  -3  12   6    2107     342
   3 -12  -7    1733     373
  -3  12   7    1997     363
   3 -12  -8     653     286
  -3  12   8    1119     317
   3 -12  -9     313     258
  -3  12   9      61     279
   3 -12 -10    1369     357
  -3  12  10    1088     320
   3 -12 -11     271     312
  -3  12  11     299     281
   3 -12 -12     395     318
  -3  12  12      31     298
   3 -12 -13     517     318
  -3  12  13     330     346
  -3  12  14       3     313
   2 -11  14     417     321
   2 -11  13     339     306
   2 -11  12      24     211
   2 -11  12     224     304
   2 -11  11      93     259
   2 -11  10     575     275
   2 -11   9    2062     314
   2 -11   8    2326     315
   2 -11   7     344     242
   2 -11   6    6569     448
   2 -11   5      18     227
   2 -11   4    4729     388
   2 -11   3    9028     516
   2 -11   2    2138     267
   2 -11   1    1438     262
   2 -11   0    1448     237
   2 -11   0    1627     204
   2 -11  -1    1423     267
   2 -11  -1    1349     214
   2 -11  -2    1281     251
   2 -11  -2    1724     204
   2 -11  -3    8797     404
   2 -11  -3    8199     478
   2 -11  -4    3063     237
   2 -11  -4    3257     337
   2 -11  -5      18     132
   2 -11  -5     231     265
  -2  11   5      18     243
   2 -11  -6    6760     487
  -2  11   6    6370     502
   2 -11  -7     298     251
  -2  11   7     226     280
   2 -11  -8    1585     307
  -2  11   8    1881     336
   2 -11  -9    2291     344
  -2  11   9    2094     350
   2 -11 -10      73     289
  -2  11  10     368     275
   2 -11 -11       4     285
  -2  11  11     657     303
   2 -11 -12     121     293
  -2  11  12      49     289
   2 -11 -13      64     252
  -2  11  13      25     294
   2 -11 -14     407     308
  -2  11  14     423     325
   1 -10  14     194     309
   1 -10  13      11     282
   1 -10  12     135     280
   1 -10  12       7     247
   1 -10  11       1     231
   1 -10  11     152     277
   1 -10  10    3809     373
   1 -10  10    2986     414
   1 -10   9    1411     300
   1 -10   8     851     253
   1 -10   7    4000     343
   1 -10   6    3054     331
   1 -10   5     639     250
   1 -10   4    8772     484
   1 -10   3    4213     305
   1 -10   2   22659     885
   1 -10   2   22784     896
   1 -10   1    2761     282
   1 -10   1    3149     318
   1 -10   0     359     186
   1 -10   0     103     154
   1 -10  -1    2713     297
   1 -10  -1    2437     245
   1 -10  -2   22251     814
   1 -10  -2   21715     855
   1 -10  -3    3811     337
   1 -10  -3    3633     241
   1 -10  -4    8081     391
   1 -10  -4    8671     505
   1 -10  -5     216     214
   1 -10  -5       6     128
  -1  10   5     354     244
   1 -10  -6    2231     312
  -1  10   6    2675     341
   1 -10  -7    3452     361
  -1  10   7    3342     379
   1 -10  -8     742     268
  -1  10   8     921     292
   1 -10  -9    1826     361
  -1  10   9    1371     314
   1 -10 -10    2701     368
  -1  10  10    2803     364
   1 -10 -11     196     272
  -1  10  11       0     246
   1 -10 -12       7     269
  -1  10  12       7     289
   1 -10 -13     360     312
  -1  10  13     123     317
   1 -10 -14     407     274
  -1  10  14     600     345
   0  -9  14     398     346
   0  -9  13       0     286
   0  -9  12     432     302
   0  -9  11    1513     275
   0  -9  11    1340     335
   0  -9  10    6487     452
   0  -9  10    5832     524
   0  -9   9    1776     290
   0  -9   9    1484     352
   0  -9   8     506     241
   0  -9   8     822     296
   0  -9   7    7499     418
   0  -9   7    7328     507
   0  -9   6    2356     335
   0  -9   6    2682     297
   0  -9   5    4297     341
   0  -9   5    5173     396
   0  -9   4    3099     326
   0  -9   4    3274     297
   0  -9   3   16106     745
   0  -9   3   17445     787
   0  -9   2   28724    1095
   0  -9   2   28407    1120
   0  -9   1   12262     536
   0  -9   1   11575     529
   0  -9   0   14834     708
   0  -9   0   14394     692
   0  -9  -1   10393     464
   0  -9  -1   11376     495
   0  -9  -2   27675    1068
   0  -9  -2   28718    1101
   0  -9  -3   14955     708
   0  -9  -3   15590     664
   0  -9  -4    3083     236
   0  -9  -4    3180     317
   0  -9  -5    4387     344
   0  -9  -5    3411     234
   0   9   5    4106     344
   0  -9  -6    2367     307
   0  -9  -6    2415     185
   0   9   6    2352     317
   0  -9  -7    6478     430
   0   9   7    6890     473
   0  -9  -8     325     284
   0   9   8     334     276
   0  -9  -9    1135     298
   0   9   9    1241     297
   0  -9 -10    6112     520
   0   9  10    6787     547
   0  -9 -11     942     290
   0   9  11    1125     309
   0  -9 -12     636     317
   0   9  12     343     284
   0  -9 -13     626     307
   0   9  13     203     285
   0  -9 -14     311     320
   0   9  14     331     333
  -1  -8  15     450     351
  -1  -8  14      85     328
  -1  -8  13     205     300
  -1  -8  12     559     298
  -1  -8  11     784     303
  -1  -8  11     741     232
  -1  -8  10       2     196
  -1  -8  10     171     277
  -1  -8   9    4910     454
  -1  -8   9    4759     362
  -1  -8   8    2518     369
  -1  -8   8    2444     280
  -1  -8   7     914     281
  -1  -8   7    1722     240
  -1  -8   6    2707     334
  -1  -8   6    2856     276
  -1  -8   5    2640     328
  -1  -8   5    2910     288
  -1  -8   4    2329     254
  -1  -8   4    1997     268
  -1  -8   3   26790    1005
  -1  -8   3   26090    1048
  -1  -8   2     389     198
  -1  -8   2     618     204
  -1  -8   1    2921     261
  -1  -8   1    2636     247
  -1  -8   0   21664     775
  -1  -8   0   21306     780
  -1  -8  -1    2723     263
  -1  -8  -2     335     154
  -1  -8  -2     156     161
  -1  -8  -3   24056     921
  -1  -8  -3   23226     948
  -1  -8  -4    1594     258
  -1  -8  -4    1765     197
  -1  -8  -5    2927     327
  -1  -8  -5    2446     223
   1   8   5    2777     308
  -1  -8  -6    2461     199
  -1  -8  -6    2694     318
   1   8   6    2579     311
  -1  -8  -7    1249     260
  -1  -8  -7    1290     134
   1   8   7    1017     275
  -1  -8  -8    2849     365
   1   8   8    2215     324
  -1  -8  -9    4737     440
   1   8   9    4636     401
  -1  -8 -10     236     249
   1   8  10     227     248
  -1  -8 -11     947     276
   1   8  11    1151     290
  -1  -8 -12    1264     298
   1   8  12     893     291
  -1  -8 -13     345     295
   1   8  13       5     248
  -1  -8 -14      35     292
   1   8  14     117     308
  -2  -7  15     158     314
  -2  -7  14     314     314
  -2  -7  13     515     295
  -2  -7  12     431     302
  -2  -7  11      93     272
  -2  -7  10      28     264
  -2  -7  10      28     185
  -2  -7   9     172     272
  -2  -7   9      79     198
  -2  -7   8    4344     324
  -2  -7   8    4399     443
  -2  -7   7    3289     361
  -2  -7   7    3188     264
  -2  -7   6    3885     372
  -2  -7   6    3831     291
  -2  -7   5    2844     278
  -2  -7   5    3245     249
  -2  -7   4   12303     516
  -2  -7   4   12314     581
  -2  -7   3    5439     351
  -2  -7   3    6201     305
  -2  -7   2     168     153
  -2  -7   2     190     168
  -2  -7   1    8838     440
  -2  -7   1    8775     425
  -2  -7   0    4740     271
  -2  -7   0    4591     274
  -2  -7  -1    4905     281
  -2  -7  -2     246     176
  -2  -7  -2     177     147
  -2  -7  -3    5815     321
  -2  -7  -3    6378     316
  -2  -7  -4   11804     496
  -2  -7  -4   12470     536
  -2  -7  -5    3246     223
  -2  -7  -5    3118     291
   2   7   5    2924     279
  -2  -7  -6    3184     232
  -2  -7  -6    2760     301
   2   7   6    3746     310
  -2  -7  -7    3109     214
  -2  -7  -7    2823     312
   2   7   7    3059     305
  -2  -7  -8    3989     387
   2   7   8    3829     372
  -2  -7  -9     476     242
   2   7   9     810     256
  -2  -7 -10     121     279
   2   7  10      30     251
  -2  -7 -11     196     235
   2   7  11     126     260
  -2  -7 -12     581     293
   2   7  12     589     285
  -2  -7 -13     472     307
   2   7  13     494     289
  -2  -7 -14     210     310
  -2  -7 -15     414     317
  -3  -6  15     116     326
  -3  -6  14     280     291
  -3  -6  13       6     256
  -3  -6  12    1234     323
  -3  -6  11     197     265
  -3  -6  10     153     268
  -3  -6   9     106     171
  -3  -6   9     131     229
  -3  -6   8    1981     294
  -3  -6   8    2271     234
  -3  -6   7     183     239
  -3  -6   7     499     164
  -3  -6   6   17162     771
  -3  -6   6   18085     675
  -3  -6   5    4186     276
  -3  -6   5    3368     309
  -3  -6   4       6     174
  -3  -6   4      24     131
  -3  -6   3     208     155
  -3  -6   3      69     121
  -3  -6   2     323     132
  -3  -6   2     602     159
  -3  -6   1     791     154
  -3  -6   1     717     154
  -3  -6   0   30347    1296
  -3  -6   0   31101    1348
  -3  -6  -1     811     158
  -3  -6  -1    1152     182
  -3  -6  -2     402     143
  -3  -6  -2     290     148
  -3  -6  -3     300     167
  -3  -6  -3     108     150
  -3  -6  -4       1     148
  -3  -6  -4      23     140
  -3  -6  -5    3626     263
  -3  -6  -5    3356     305
  -3  -6  -6   16982     665
  -3  -6  -6   16948     720
   3   6   6   17417     721
  -3  -6  -7     953     165
  -3  -6  -7     452     250
   3   6   7     750     229
  -3  -6  -8    1903     195
  -3  -6  -8    1897     282
   3   6   8    1555     267
  -3  -6  -9       2     258
   3   6   9      18     223
  -3  -6 -10      21     223
   3   6  10     212     243
  -3  -6 -11      29     269
   3   6  11     136     241
  -3  -6 -12     609     303
   3   6  12     655     292
  -3  -6 -13     309     266
  -3  -6 -14       2     268
  -3  -6 -15      21     284
  -4  -5  15       8     295
  -4  -5  14      13     303
  -4  -5  13    1341     370
  -4  -5  12     354     275
  -4  -5  11     122     257
  -4  -5  10     825     282
  -4  -5   9     476     173
  -4  -5   9     247     268
  -4  -5   8     411     158
  -4  -5   8     637     257
  -4  -5   7   12070     501
  -4  -5   7   12430     614
  -4  -5   6   10390     535
  -4  -5   6   11100     443
  -4  -5   5    9291     381
  -4  -5   5    9551     484
  -4  -5   4    2834     212
  -4  -5   4    3238     313
  -4  -5   3    2502     264
  -4  -5   3    2627     201
  -4  -5   2    6729     301
  -4  -5   2    6999     375
  -4  -5   1   19767     830
  -4  -5   1   20896     901
  -4  -5   0    5883     277
  -4  -5   0    6635     334
  -4  -5  -1   20000     854
  -4  -5  -1   20268     893
  -4  -5  -2    6183     298
  -4  -5  -2    4625     273
  -4  -5  -3    2296     248
  -4  -5  -3    2116     245
  -4  -5  -4    3139     294
  -4  -5  -4    3186     269
  -4  -5  -5    9011     405
  -4  -5  -5    8853     419
  -4  -5  -6   10135     460
  -4  -5  -6   10065     491
   4   5   6   10459     480
  -4  -5  -7   13526     646
  -4  -5  -7   13149     575
   4   5   7   12707     613
  -4  -5  -8     560     179
  -4  -5  -8     484     227
   4   5   8     721     226
  -4  -5  -9     646     174
  -4  -5  -9     484     245
   4   5   9     262     217
  -4  -5 -10     375     248
   4   5  10      93     224
  -4  -5 -11     632     253
   4   5  11     303     237
  -4  -5 -12     283     244
   4   5  12     352     259
  -4  -5 -13    1203     352
  -4  -5 -14     129     291
  -4  -5 -15     191     260
  -5  -4  15       8     309
  -5  -4  14      13     309
  -5  -4  13    1701     375
  -5  -4  12       8     262
  -5  -4  11     604     275
  -5  -4  10     160     258
  -5  -4   9     386     267
  -5  -4   8     424     142
  -5  -4   8     470     259
  -5  -4   7   13504     663
  -5  -4   7   12698     508
  -5  -4   6   11301     422
  -5  -4   6   11010     559
  -5  -4   5    9568     455
  -5  -4   5    9244     340
  -5  -4   4    3006     307
  -5  -4   4    2915     180
  -5  -4   3    1915     159
  -5  -4   3    2824     285
  -5  -4   2    6181     254
  -5  -4   2    6395     357
  -5  -4   1   20254     827
  -5  -4   1   20223     912
  -5  -4   0    6168     281
  -5  -4   0    6461     347
  -5  -4  -1   20180     906
  -5  -4  -1   21164     861
  -5  -4  -2    6567     368
  -5  -4  -2    6684     327
  -5  -4  -3    2221     218
  -5  -4  -4    3312     288
  -5  -4  -4    2648     247
  -5  -4  -5    8407     414
  -5  -4  -5    8941     424
  -5  -4  -6   10014     490
  -5  -4  -6   10056     472
  -5  -4  -7   12817     576
  -5  -4  -7   10744     580
   5   4   7   13196     570
  -5  -4  -8     599     263
  -5  -4  -8     866     210
   5   4   8     572     207
  -5  -4  -9     476     202
  -5  -4  -9     558     251
   5   4   9     304     210
  -5  -4 -10      99     269
   5   4  10     304     221
  -5  -4 -11     713     264
   5   4  11     249     233
  -5  -4 -12     222     239
  -5  -4 -13    1468     363
  -5  -4 -14     482     311
  -5  -4 -15       8     249
  -6  -3  15      21     280
  -6  -3  14       1     279
  -6  -3  13     204     283
  -6  -3  12    1125     310
  -6  -3  11     248     263
  -6  -3  10      77     254
  -6  -3   9       2     268
  -6  -3   8    2269     321
  -6  -3   7     658     109
  -6  -3   7     458     210
  -6  -3   6   18785     805
  -6  -3   5    4142     347
  -6  -3   4       0      50
  -6  -3   4      23     179
  -6  -3   3     303     155
  -6  -3   3     211      68
  -6  -3   2     500      89
  -6  -3   2     365     184
  -6  -3   1     911     110
  -6  -3   1     816     169
  -6  -3   0   29522    1350
  -6  -3   0   31501    1272
  -6  -3  -1    1030     199
  -6  -3  -1     956     136
  -6  -3  -2     492     181
  -6  -3  -2     532     140
  -6  -3  -3     304     150
  -6  -3  -3     433     179
  -6  -3  -4      22     154
  -6  -3  -4       5      48
  -6  -3  -5    3641     317
  -6  -3  -5    3751     313
  -6  -3  -6   17762     749
  -6  -3  -6   18110     743
  -6  -3  -7     818     217
  -6  -3  -7     257     237
   6   3   7     544     167
  -6  -3  -8    1592     277
  -6  -3  -8    1989     267
   6   3   8    2277     242
  -6  -3  -9     170     200
  -6  -3  -9       2     219
   6   3   9       2     190
  -6  -3 -10      90     200
  -6  -3 -10     169     232
   6   3  10     130     198
  -6  -3 -11     313     272
  -6  -3 -12    1496     340
  -6  -3 -13     572     321
  -6  -3 -14      99     301
  -6  -3 -15      13     303
  -7  -2  15     424     283
  -7  -2  14      17     302
  -7  -2  13     259     301
  -7  -2  12       2     279
  -7  -2  11      84     259
  -7  -2  10     126     260
  -7  -2   9     513     266
  -7  -2   8    4424     412
  -7  -2   7    2746     297
  -7  -2   6    3451     341
  -7  -2   5    3404     299
  -7  -2   4   13019     590
  -7  -2   3    6301     374
  -7  -2   3    6382     207
  -7  -2   2     288      77
  -7  -2   2     169     184
  -7  -2   1    8446     365
  -7  -2   1    8753     479
  -7  -2   0    4388     210
  -7  -2   0    4438     312
  -7  -2  -1    8537     385
  -7  -2  -1    8535     464
  -7  -2  -2     329     181
  -7  -2  -2     253     135
  -7  -2  -3    5629     349
  -7  -2  -3    5666     309
  -7  -2  -4   12201     580
  -7  -2  -4   12469     538
  -7  -2  -5    2579     228
  -7  -2  -5    2761     265
  -7  -2  -6    3792     325
  -7  -2  -6    3603     315
  -7  -2  -7    3010     315
  -7  -2  -7    3904     335
  -7  -2  -8    3726     374
  -7  -2  -8    4311     383
   7   2   8    4314     313
  -7  -2  -9     156     222
  -7  -2  -9     541     236
  -7  -2 -10      28     205
  -7  -2 -10     160     263
  -7  -2 -11     718     309
  -7  -2 -12       2     234
  -7  -2 -13     496     312
  -7  -2 -14      17     238
  -7  -2 -15     207     325
  -8  -1  15     263     244
  -8  -1  14      21     276
  -8  -1  14      34     235
  -8  -1  13       4     279
  -8  -1  12    1312     317
  -8  -1  11     787     283
  -8  -1  10       3     250
  -8  -1   9    4959     420
  -8  -1   8    2377     323
  -8  -1   7    1438     281
  -8  -1   6    2794     317
  -8  -1   5    3276     343
  -8  -1   4    1731     245
  -8  -1   3   24226     998
  -8  -1   2     326      87
  -8  -1   2     350     205
  -8  -1   1    2096     242
  -8  -1   1    2348     151
  -8  -1   0   21435     738
  -8  -1   0   22991     843
  -8  -1  -1    2665     197
  -8  -1  -1    2258     270
  -8  -1  -2     409     148
  -8  -1  -2     481     212
  -8  -1  -3   25585    1039
  -8  -1  -3   26150     979
  -8  -1  -4    2217     243
  -8  -1  -4    2016     263
  -8  -1  -5    2844     324
  -8  -1  -5    2663     280
  -8  -1  -6    2705     306
  -8  -1  -6    2436     297
  -8  -1  -7     889     259
  -8  -1  -8    2647     334
  -8  -1  -8    2165     332
  -8  -1  -9    4167     392
  -8  -1  -9    5357     413
  -8  -1 -10     157     234
  -8  -1 -10       3     225
  -8  -1 -11    1413     324
  -8  -1 -12     935     326
  -8  -1 -13      86     300
  -8  -1 -14      35     259
  -9   0  14      40     255
  -9   0  13     510     313
  -9   0  13     835     277
  -9   0  12     400     272
  -9   0  11     976     295
  -9   0  10    5869     477
  -9   0   9    1524     315
  -9   0   8     246     266
  -9   0   7    7074     469
  -9   0   6    2850     338
  -9   0   5    4769     374
  -9   0   4    3360     312
  -9   0   3   16316     774
  -9   0   2   29623    1147
  -9   0   2   27946    1001
  -9   0   1   12143     555
  -9   0   1   11518     430
  -9   0   0   14691     741
  -9   0   0   14732     636
  -9   0  -1   11296     531
  -9   0  -1   11476     454
  -9   0  -2   29174    1159
  -9   0  -2   29024    1080
  -9   0  -3   17377     806
  -9   0  -3   16750     731
  -9   0  -4    3351     333
  -9   0  -4    3424     303
  -9   0  -5    4532     361
  -9   0  -5    4201     330
  -9   0  -6    2409     284
  -9   0  -6    2857     332
  -9   0  -7    7657     487
  -9   0  -7    6245     414
  -9   0  -8     297     261
  -9   0  -8     468     235
  -9   0  -9    1680     301
  -9   0 -10    5726     465
  -9   0 -10    6213     491
  -9   0 -11    1138     279
  -9   0 -11     792     310
  -9   0 -12     514     269
  -9   0 -13     255     315
  -9   0 -14     501     337
 -10   1  14     485     300
 -10   1  13      10     285
 -10   1  13     134     255
 -10   1  12     129     247
 -10   1  12     195     297
 -10   1  11      27     197
 -10   1  11       0     276
 -10   1  10    3336     396
 -10   1   9    1912     331
 -10   1   8     841     305
 -10   1   7    3429     352
 -10   1   6    2828     328
 -10   1   5     455     240
 -10   1   4    8500     510
 -10   1   3    4110     343
  10  -1  -3    3656     167
 -10   1   2   22736     880
  10  -1  -2   21875     752
 -10   1   1    1924     167
 -10   1   1    2080     289
 -10   1   0     396     223
 -10   1   0     104     122
 -10   1  -1    2561     306
 -10   1  -1    2359     205
 -10   1  -2   21420     887
 -10   1  -2   22297     813
 -10   1  -3    4671     358
 -10   1  -3    3843     255
 -10   1  -4    8578     452
 -10   1  -4    7919     500
 -10   1  -5      20     195
 -10   1  -5     154     235
 -10   1  -6    2686     300
 -10   1  -6    2713     359
 -10   1  -7    3768     389
 -10   1  -7    3006     322
 -10   1  -8     816     258
 -10   1  -8     705     286
 -10   1  -9    1983     323
 -10   1  -9    1892     314
 -10   1 -10    1849     275
 -10   1 -10    3338     402
 -10   1 -11     567     241
 -10   1 -11     217     281
 -10   1 -12       6     283
 -10   1 -13     114     265
 -10   1 -14      88     313
 -11   2  14     560     295
 -11   2  13     473     264
 -11   2  12     306     294
 -11   2  12     138     253
 -11   2  11     174     211
 -11   2  11     748     301
 -11   2  10      24     270
 -11   2  10     313     238
 -11   2   9    1573     300
 -11   2   9    2176     336
 -11   2   8    2310     354
 -11   2   7     461     267
 -11   2   6    6678     469
 -11   2   5     169     241
 -11   2   4    3998     375
 -11   2   3    9687     516
  11  -2  -3    8231     347
 -11   2   2    1659     281
  11  -2  -2    2050     166
 -11   2   1    1549     295
  11  -2  -1    1480     172
 -11   2   0    1834     180
 -11   2   0    1862     255
 -11   2  -1    1345     288
 -11   2  -1    1743     210
 -11   2  -2    1509     281
 -11   2  -2    2079     217
 -11   2  -2    1810     135
 -11   2  -3    9796     533
 -11   2  -3    8804     455
 -11   2  -4    4728     401
 -11   2  -4    3543     301
 -11   2  -5     215     214
 -11   2  -5      15     241
 -11   2  -6    6924     446
 -11   2  -6    5995     479
 -11   2  -7     448     276
 -11   2  -7     366     221
 -11   2  -8    1551     282
 -11   2  -8    1824     353
 -11   2  -9    1812     313
 -11   2  -9    1748     361
 -11   2 -10     520     270
 -11   2 -10     284     247
 -11   2 -11     203     295
 -11   2 -11     244     277
 -11   2 -12     332     271
 -11   2 -13      25     255
 -11   2 -14       3     263
 -12   3  14       3     248
 -12   3  13     565     283
 -12   3  12      10     266
 -12   3  12      15     289
 -12   3  11     649     283
 -12   3  11      27     256
 -12   3  10    1809     342
 -12   3  10    1297     318
 -12   3   9      25     256
 -12   3   9      26     233
 -12   3   8    1250     332
 -12   3   8    1233     291
 -12   3   7    1630     296
 -12   3   7    2318     342
 -12   3   6    2398     339
 -12   3   6    2195     291
 -12   3   5    1482     294
 -12   3   5    1324     238
 -12   3   4    5489     380
 -12   3   4    5808     448
  12  -3  -4    5207     271
 -12   3   3    1530     285
 -12   3   3    1153     212
  12  -3  -3    1358     166
 -12   3   2    1847     311
 -12   3   2    1638     213
  12  -3  -2    1472     184
 -12   3   1    2502     287
 -12   3   1    2532     216
  12  -3  -1    2810     207
 -12   3   0     109     124
 -12   3   0       4     185
  12  -3   0       4     125
 -12   3  -1    2981     335
 -12   3  -1    3336     253
 -12   3  -1    2524     186
 -12   3  -2    1712     231
 -12   3  -2    1519     301
 -12   3  -2    1283     143
 -12   3  -3    2238     254
 -12   3  -3    1750     306
 -12   3  -4    5942     483
 -12   3  -4    5706     403
 -12   3  -5    2438     303
 -12   3  -5    1832     334
 -12   3  -6    2053     288
 -12   3  -6    1717     335
 -12   3  -7    2319     372
 -12   3  -7    1894     332
 -12   3  -8    1079     328
 -12   3  -8     751     298
 -12   3  -9      29     265
 -12   3  -9      24     253
 -12   3 -10    1699     353
 -12   3 -10     901     289
 -12   3 -11      64     281
 -12   3 -11     566     280
 -12   3 -12      32     264
 -12   3 -13      85     272
 -13   4  13      68     289
 -13   4  12     435     281
 -13   4  11     174     272
 -13   4  11     803     320
 -13   4  10      10     252
 -13   4  10      90     259
 -13   4   9    2366     316
 -13   4   9    2969     363
 -13   4   8      18     229
 -13   4   8      18     280
 -13   4   7     467     256
 -13   4   7     169     285
 -13   4   6    6529     509
 -13   4   6    6247     455
 -13   4   5    2353     300
 -13   4   5    2620     351
 -13   4   4     844     289
 -13   4   4    1074     256
  13  -4  -4     523     181
 -13   4   3   10631     581
  13  -4  -3    9413     437
 -13   4   2    3580     349
 -13   4   2    3854     314
  13  -4  -2    3385     257
 -13   4   1    1677     289
 -13   4   1    1867     223
  13  -4  -1    2328     241
 -13   4   0     418     153
 -13   4   0     540     266
  13  -4   0     536     159
 -13   4  -1    1710     320
 -13   4  -1    1768     229
 -13   4  -1    1800     186
  13  -4   1    2095     233
 -13   4  -2    3332     228
 -13   4  -2    4483     403
 -13   4  -2    4024     307
 -13   4  -3   10014     517
 -13   4  -3   10247     602
 -13   4  -4     424     228
 -13   4  -4     677     273
 -13   4  -5    1919     358
 -13   4  -5    2609     323
 -13   4  -6    6613     517
 -13   4  -6    6842     474
 -13   4  -7      84     287
 -13   4  -7     323     233
 -13   4  -8      18     232
 -13   4  -8      18     267
 -13   4  -9    2891     392
 -13   4  -9    2343     344
 -13   4 -10     624     269
 -13   4 -10     897     331
 -13   4 -11     548     329
 -13   4 -11     715     321
 -13   4 -12     182     316
 -13   4 -13       8     267
 -14   5  13       4     288
 -14   5  12      10     280
 -14   5  11     215     290
 -14   5  11     291     279
 -14   5  10    1156     308
 -14   5  10     735     309
 -14   5   9     557     271
 -14   5   9     440     296
 -14   5   8    1046     310
 -14   5   8     666     281
 -14   5   7     146     244
 -14   5   7     747     286
 -14   5   6    1684     314
 -14   5   6    2279     350
 -14   5   5     249     233
 -14   5   5     722     293
 -14   5   4    6104     481
 -14   5   4    6464     452
 -14   5   3    3813     385
  14  -5  -3    3032     278
 -14   5   2    5430     382
 -14   5   2    5887     425
  14  -5  -2    6011     341
 -14   5   1    1473     304
 -14   5   1    1313     207
  14  -5  -1    1126     190
 -14   5   0    3170     260
 -14   5   0    3884     398
  14  -5   0    3342     283
 -14   5  -1    1705     310
 -14   5  -1    1105     166
  14  -5   1    1308     205
 -14   5  -2    5577     303
 -14   5  -2    5371     429
  14  -5   2    6366     357
 -14   5  -3    3068     318
 -14   5  -3    3122     402
 -14   5  -4    6210     430
 -14   5  -4    6784     524
 -14   5  -5     513     231
 -14   5  -5     518     308
 -14   5  -6    1371     280
 -14   5  -6    1576     369
 -14   5  -7     232     241
 -14   5  -7     440     322
 -14   5  -8    1149     318
 -14   5  -8    1245     350
 -14   5  -9     207     316
 -14   5  -9     124     242
 -14   5 -10     854     294
 -14   5 -10    1444     360
 -14   5 -11      51     255
 -14   5 -11      10     293
 -14   5 -12     292     327
 -14   5 -13       5     314
 -15   6  12      86     281
 -15   6  11      19     266
 -15   6  10     715     300
 -15   6  10     354     282
 -15   6   9     395     294
 -15   6   9       3     253
 -15   6   8     248     260
 -15   6   8      70     245
 -15   6   7     851     291
 -15   6   7     933     278
 -15   6   6       7     244
 -15   6   6       7     245
 -15   6   5    1293     317
 -15   6   5    1060     274
 -15   6   4    1061     242
 -15   6   4    1277     309
 -15   6   3      33     144
 -15   6   3    1183     280
  15  -6  -3     827     232
 -15   6   2    3278     304
 -15   6   2    3575     407
  15  -6  -2    2957     294
 -15   6   1    1624     249
 -15   6   1    1736     343
  15  -6  -1    1753     254
 -15   6   0    4323     403
 -15   6   0    3895     287
  15  -6   0    4667     337
 -15   6  -1    1478     345
 -15   6  -1    1879     221
  15  -6   1    1707     257
 -15   6  -2    2595     383
  15  -6   2    3294     322
 -15   6  -3     542     313
  15  -6   3     908     251
 -15   6  -4     626     318
 -15   6  -4    1301     275
 -15   6  -5    1266     357
 -15   6  -5    1232     310
 -15   6  -6     118     292
 -15   6  -6       8     218
 -15   6  -7    1009     302
 -15   6  -7     677     326
 -15   6  -8      19     276
 -15   6  -8      19     225
 -15   6  -9     101     255
 -15   6  -9     459     319
 -15   6 -10     867     341
 -15   6 -10     639     327
 -15   6 -11     257     322
 -15   6 -11     586     333
 -15   6 -12      13     305
 -16   7  12       8     302
 -16   7  11      22     287
 -16   7  10     124     312
 -16   7  10     175     285
 -16   7   9     427     292
 -16   7   9     296     289
 -16   7   8      40     259
 -16   7   8      85     257
 -16   7   7     613     274
 -16   7   7     412     266
 -16   7   6    1129     284
 -16   7   6     862     289
 -16   7   5     493     279
 -16   7   5     538     255
 -16   7   4     322     278
 -16   7   4     272     235
 -16   7   3     673     247
 -16   7   3    1023     325
  16  -7  -3     964     257
 -16   7   2     622     307
 -16   7   2     709     235
  16  -7  -2     427     237
 -16   7   1     762     230
 -16   7   1    1047     310
  16  -7  -1    1175     252
 -16   7   0    1016     291
 -16   7   0    1119     226
  16  -7   0    1245     256
 -16   7  -1     586     273
  16  -7   1     893     269
 -16   7  -2     753     326
  16  -7   2     470     231
 -16   7  -3     928     301
  16  -7   3    1065     273
 -16   7  -4     412     304
  16  -7   4     408     248
 -16   7  -5     409     313
  16  -7   5     272     246
 -16   7  -6    1620     360
 -16   7  -6    1022     296
 -16   7  -7     334     242
 -16   7  -7     181     295
 -16   7  -8      44     248
 -16   7  -8      13     293
 -16   7  -9     514     316
 -16   7  -9     193     311
 -16   7 -10     233     283
 -16   7 -10     180     323
 -16   7 -11      24     302
 -16   7 -11      21     317
 -16   7 -12      33     341
 -17   8  11       7     289
 -17   8  10      79     295
 -17   8   9       6     276
 -17   8   9     450     288
 -17   8   8     228     283
 -17   8   8       1     266
 -17   8   7     832     307
 -17   8   7     592     286
 -17   8   6     723     282
 -17   8   6     514     262
 -17   8   5     916     309
 -17   8   5    1273     285
 -17   8   4     170     239
 -17   8   4     233     267
 -17   8   3     637     283
 -17   8   3      11     219
 -17   8   2      15     262
 -17   8   2      15     218
  17  -8  -2      77     239
 -17   8   1    1466     344
 -17   8   1    1369     263
  17  -8  -1    1439     277
 -17   8   0     358     294
 -17   8   0     189     220
  17  -8   0     478     254
 -17   8  -1    1350     351
  17  -8   1     948     232
 -17   8  -2      14     275
  17  -8   2      14     222
 -17   8  -3      61     288
  17  -8   3      35     226
 -17   8  -4     171     295
  17  -8   4     132     243
 -17   8  -5    1058     346
  17  -8   5    1658     330
 -17   8  -6     614     319
  17  -8   6     471     276
 -17   8  -7    1034     351
  17  -8   7     585     251
 -17   8  -8       1     286
 -17   8  -8     645     341
  17  -8   8       1     250
 -17   8  -9     653     286
 -17   8  -9     499     337
 -17   8 -10      37     321
 -17   8 -10      27     257
 -17   8 -11     165     331
 -17   8 -11     303     344
 -18   9  10       2     320
 -18   9   9       8     289
 -18   9   8    1402     342
 -18   9   8     679     304
 -18   9   7     336     276
 -18   9   7       0     261
 -18   9   6     854     295
 -18   9   6    1247     316
 -18   9   5       4     230
 -18   9   5      30     260
 -18   9   4    1062     308
 -18   9   4    1543     288
 -18   9   3       8     252
 -18   9   3       8     232
 -18   9   2       0     252
 -18   9   2       0     225
  18  -9  -2       0     234
 -18   9   1     657     234
 -18   9   1     694     301
  18  -9  -1     628     259
 -18   9   0    5302     497
  18  -9   0    4413     408
 -18   9  -1     301     289
  18  -9   1       4     127
 -18   9  -2       0     237
  18  -9   2     141     236
 -18   9  -3     120     282
  18  -9   3     221     259
 -18   9  -4     931     343
  18  -9   4    1609     327
 -18   9  -5       4     268
  18  -9   5     195     266
 -18   9  -6    1059     351
  18  -9   6    1541     337
 -18   9  -7       1     296
  18  -9   7       1     292
 -18   9  -8     994     375
  18  -9   8    1454     314
 -18   9  -9       9     324
  18  -9   9       9     293
 -18   9 -10     522     356
  18  -9  10      31     256
 -19  10   9      10     273
 -19  10   8       3     290
 -19  10   8      43     290
 -19  10   7    1038     330
 -19  10   7    1146     334
 -19  10   6    1454     333
 -19  10   6     313     280
 -19  10   5    1053     304
 -19  10   5     286     288
 -19  10   4     438     310
 -19  10   4      31     120
 -19  10   3     197     276
 -19  10   3       7     247
 -19  10   2       6     232
 -19  10   2     333     290
 -19  10   1    1056     327
  19 -10  -1     927     290
 -19  10   0     571     302
  19 -10   0     839     286
 -19  10  -1     863     341
 -19  10  -2     414     310
  19 -10   2     481     292
 -19  10  -3       7     277
  19 -10   3     463     296
 -19  10  -4      35     296
  19 -10   4     530     294
 -19  10  -5     577     339
  19 -10   5     913     306
 -19  10  -6     241     327
  19 -10   6     591     310
 -19  10  -7    1335     359
  19 -10   7    1101     320
 -19  10  -8     254     350
  19 -10   8     390     328
 -19  10  -9      10     301
  19 -10   9      10     304
 -20  11   8      43     277
 -20  11   7      28     258
 -20  11   7     476     295
 -20  11   6     441     306
 -20  11   6    1074     346
 -20  11   5      88     293
 -20  11   5      33     275
 -20  11   4      46     108
 -20  11   4     133     284
 -20  11   3     222     273
 -20  11   3     477     326
 -20  11   2     211     301
 -20  11   1     919     321
  20 -11  -1     188     292
 -20  11   0     273     295
  20 -11   0       1     243
 -20  11  -1    1055     338
  20 -11   1      73     149
 -20  11  -2      75     256
  20 -11   2     257     279
 -20  11  -3       7     296
  20 -11   3       7     240
 -20  11  -4      75     306
  20 -11   4      46     287
 -20  11  -5     285     280
  20 -11   5       8     299
 -20  11  -6    1091     378
  20 -11   6     697     329
 -20  11  -7     360     344
  20 -11   7     807     293
 -20  11  -8     401     361
  20 -11   8     187     319
 -21  12   7       7     292
 -21  12   7     768     312
 -21  12   6     116     293
 -21  12   6     249     298
 -21  12   5     667     338
 -21  12   5     122     308
 -21  12   4     358     300
 -21  12   4      62     220
 -21  12   3     276     308
 -21  12   2      11     274
 -21  12   1     193     291
 -21  12   0     658     320
  21 -12   0     227     275
 -21  12  -1     454     317
  21 -12   1       3     209
 -21  12  -2      10     308
  21 -12   2      10     302
 -21  12  -3      21     297
  21 -12   3     176     299
 -21  12  -4      59     324
  21 -12   4      93     295
 -21  12  -5      66     331
  21 -12   5     186     315
 -21  12  -6      81     332
  21 -12   6     158     323
 -21  12  -7       7     324
  21 -12   7     510     309
 -22  13   5      29     295
 -22  13   5     110     287
 -22  13   4     594     313
 -22  13   3     563     313
 -22  13   2     311     302
 -22  13   1      10     308
 -22  13   0       6     312
  22 -13   0     306     285
 -22  13  -1      11     301
  22 -13   1      11     289
 -22  13  -2      17     312
  22 -13   2      17     294
 -22  13  -3     131     323
  22 -13   3      13     292
 -22  13  -4    1206     391
  22 -13   4     829     359
 -22  13  -5      88     330
  22 -13   5      31     308
 -23  14   2     103     337
 -23  14   1      13     337
 -23  14   0      83     325
 -23  14  -1     377     324
  23 -14   1      20     328
 -23  14  -2     277     338
  23 -14   2     241     323
  13 -23   3      43     336
  13 -23   2       9     337
  13 -23   1       4     402
  13 -23   0       3     390
  13 -23  -1       2     311
  13 -23  -2     453     412
  12 -22   5     278     354
  12 -22   4     678     430
  12 -22   3      23     378
  12 -22   2     333     342
  12 -22   1     258     402
  12 -22   0     375     407
  12 -22  -1     189     392
  12 -22  -2     171     319
  12 -22  -3    1260     423
  12 -22  -4      40     366
  12 -22  -5       7     370
  11 -21   7      16     322
  11 -21   6       5     311
  11 -21   5     129     384
  11 -21   4      21     311
  11 -21   3     176     337
  11 -21   2       1     380
  11 -21   1       4     355
  11 -21   0     246     399
  11 -21  -1     164     326
  11 -21  -2      60     318
  11 -21  -3       8     368
  11 -21  -4      22     351
  11 -21  -5     262     329
  11 -21  -6       5     268
  11 -21  -7      88     366
  10 -20   8      27     366
  10 -20   7      25     319
  10 -20   6    1467     388
  10 -20   5      18     376
  10 -20   4       5     380
  10 -20   3       0     287
  10 -20   2      53     357
  10 -20   1      28     306
  10 -20   0     637     396
  10 -20  -1     425     342
  10 -20  -2      17     291
  10 -20  -3       0     289
  10 -20  -4       4     353
  10 -20  -5      11     347
  10 -20  -6    1720     389
  10 -20  -7     257     374
 -10  20   7      42     323
  10 -20  -8     118     304
 -10  20   8      25     273
   9 -19   9       8     349
   9 -19   8      44     349
   9 -19   7     886     367
   9 -19   6     833     388
   9 -19   5     390     314
   9 -19   4      98     349
   9 -19   3     249     307
   9 -19   2      84     293
   9 -19   1    1706     420
   9 -19   0     298     317
   9 -19  -1     943     342
   9 -19  -2     449     359
   9 -19  -3     100     286
   9 -19  -4      77     338
   9 -19  -5       7     289
   9 -19  -6     819     369
   9 -19  -7    1129     359
  -9  19   7    1464     400
   9 -19  -8      81     350
  -9  19   8       5     282
   9 -19  -9      29     339
  -9  19   9       8     316
   8 -18  10     128     346
   8 -18   9     249     351
   8 -18   8     619     324
   8 -18   7     741     325
   8 -18   6     274     354
   8 -18   5    1461     402
   8 -18   4     266     306
   8 -18   3     643     318
   8 -18   2     258     345
   8 -18   1    1320     394
   8 -18   0     972     389
   8 -18  -1    1455     360
   8 -18  -2     105     330
   8 -18  -3     233     293
   8 -18  -4      25     288
   8 -18  -5    1464     386
   8 -18  -6     317     338
  -8  18   6      58     279
   8 -18  -7    1068     337
  -8  18   7     814     358
   8 -18  -8     302     358
  -8  18   8       1     276
   8 -18  -9      93     331
  -8  18   9      23     320
   8 -18 -10     409     353
  -8  18  10     417     351
   7 -17  11       5     315
   7 -17  10      18     312
   7 -17   9     138     333
   7 -17   8     339     294
   7 -17   7      51     341
   7 -17   6     703     316
   7 -17   5      36     303
   7 -17   4     105     284
   7 -17   3     724     360
   7 -17   2     317     333
   7 -17   1     433     349
   7 -17   0     549     313
   7 -17  -1      29     332
   7 -17  -2      12     313
   7 -17  -3     198     327
   7 -17  -4     319     346
   7 -17  -5      37     317
   7 -17  -6    1146     371
  -7  17   6    1193     368
   7 -17  -7     247     332
  -7  17   7      30     233
   7 -17  -8       5     332
  -7  17   8     250     319
   7 -17  -9     539     308
  -7  17   9       1     309
   7 -17 -10       1     323
  -7  17  10       1     327
   7 -17 -11     209     331
  -7  17  11     109     334
   6 -16  11       6     290
   6 -16  10     239     313
   6 -16   9     339     314
   6 -16   8     137     310
   6 -16   7     759     342
   6 -16   6     354     329
   6 -16   5     409     325
   6 -16   4      19     323
   6 -16   3    1504     396
   6 -16   2    1077     379
   6 -16   1     950     326
   6 -16   0      61     294
   6 -16  -1    1287     329
   6 -16  -2    1570     393
   6 -16  -3    1710     265
   6 -16  -3    1545     385
   6 -16  -4     267     279
   6 -16  -5     458     282
   6 -16  -6       4     304
  -6  16   6       2     293
   6 -16  -7     260     326
  -6  16   7      56     313
   6 -16  -8      39     241
  -6  16   8      39     298
   6 -16  -9     484     300
  -6  16   9     649     337
   6 -16 -10     330     346
  -6  16  10     451     348
   6 -16 -11       6     289
  -6  16  11     254     335
  -6  16  12      14     334
   5 -15  12      73     320
   5 -15  11      65     329
   5 -15  10       4     270
   5 -15   9     896     324
   5 -15   8       5     292
   5 -15   7     279     260
   5 -15   6     874     336
   5 -15   5    1574     374
   5 -15   4     202     276
   5 -15   3    5310     499
   5 -15   2       5     259
   5 -15   1    1215     313
   5 -15   0    6683     552
   5 -15  -1    1215     308
   5 -15  -2      72     207
   5 -15  -2     130     320
   5 -15  -3    3993     435
   5 -15  -3    5333     348
   5 -15  -4     470     289
   5 -15  -5    1189     357
   5 -15  -6     409     323
  -5  15   6     429     269
   5 -15  -7     290     323
  -5  15   7       0     270
   5 -15  -8     411     312
  -5  15   8     576     311
   5 -15  -9     627     341
  -5  15   9    1202     368
   5 -15 -10       4     254
  -5  15  10     253     321
   5 -15 -11     306     286
  -5  15  11       5     312
   5 -15 -12     202     332
  -5  15  12       1     326
   4 -14  12      17     261
   4 -14  11     315     292
   4 -14  10     470     299
   4 -14   9     608     291
   4 -14   8     393     292
   4 -14   7    1111     321
   4 -14   6    1212     340
   4 -14   5    3181     372
   4 -14   4    2913     371
   4 -14   3    3740     430
   4 -14   2    1927     317
   4 -14   1    5950     519
   4 -14   0      65     305
   4 -14  -1    5793     495
   4 -14  -1    4315     376
   4 -14  -2    2277     256
   4 -14  -2    2127     363
   4 -14  -3    3311     428
   4 -14  -3    3453     297
   4 -14  -4    3563     273
   4 -14  -4    3533     398
   4 -14  -5    2216     351
  -4  14   5    2873     408
   4 -14  -6     457     326
  -4  14   6     352     272
   4 -14  -7     976     350
  -4  14   7     340     309
   4 -14  -8     724     332
  -4  14   8     101     302
   4 -14  -9    1182     329
  -4  14   9     775     328
   4 -14 -10     158     314
  -4  14  10    1096     335
   4 -14 -11     614     304
  -4  14  11     212     321
   4 -14 -12     182     282
  -4  14  12     145     325
   4 -14 -13     822     376
  -4  14  13     140     331
   3 -13  13     586     339
   3 -13  12      27     254
   3 -13  12     278     308
   3 -13  11      89     267
   3 -13  10    1157     313
   3 -13   9     638     287
   3 -13   8     289     259
   3 -13   7     800     313
   3 -13   6     423     299
   3 -13   5     626     291
   3 -13   4    1122     328
   3 -13   3    1689     326
   3 -13   2    8227     562
   3 -13   1     138     243
   3 -13   0     136     239
   3 -13   0     184     133
   3 -13  -1     470     288
   3 -13  -1     233     192
   3 -13  -2    8289     525
   3 -13  -2    8429     457
   3 -13  -3    2154     341
   3 -13  -3    1795     221
   3 -13  -4    1365     204
   3 -13  -4    1198     332
   3 -13  -5     801     275
  -3  13   5      80     297
   3 -13  -6     893     351
  -3  13   6     606     318
   3 -13  -7     591     292
  -3  13   7     903     292
   3 -13  -8     780     293
  -3  13   8     497     311
   3 -13  -9     871     331
  -3  13   9     810     329
   3 -13 -10    1299     356
  -3  13  10    1337     350
   3 -13 -11     175     267
  -3  13  11      73     324
   3 -13 -12     255     317
  -3  13  12     371     316
   3 -13 -13     550     331
  -3  13  13      24     327
   2 -12  13     139     307
   2 -12  12     266     302
   2 -12  11     374     261
   2 -12  11     433     310
   2 -12  10     594     268
   2 -12   9     640     290
   2 -12   8      20     236
   2 -12   7     434     268
   2 -12   6     259     269
   2 -12   5    1798     323
   2 -12   4     960     299
   2 -12   3    4921     424
   2 -12   2     259     217
   2 -12   2     786     236
   2 -12   1     446     225
   2 -12   1     130     214
   2 -12   0     332     215
   2 -12   0     387     168
   2 -12  -1     317     219
   2 -12  -1     639     194
   2 -12  -2     433     182
   2 -12  -2    1078     278
   2 -12  -3    4859     322
   2 -12  -3    5057     396
   2 -12  -4     772     186
   2 -12  -4     588     292
   2 -12  -5    1478     307
   2 -12  -5    1551     203
  -2  12   5    1409     336
   2 -12  -6     405     304
  -2  12   6     376     255
   2 -12  -7     186     261
  -2  12   7       2     279
   2 -12  -8      18     282
  -2  12   8      57     294
   2 -12  -9     450     264
  -2  12   9     684     310
   2 -12 -10     694     323
  -2  12  10     546     302
   2 -12 -11     501     303
  -2  12  11     139     294
   2 -12 -12     430     277
  -2  12  12      10     287
   2 -12 -13      19     299
  -2  12  13     398     309
   1 -11  14     299     329
   1 -11  13     259     299
   1 -11  12      93     293
   1 -11  11     128     256
   1 -11  11     141     290
   1 -11  10     885     319
   1 -11  10     216     258
   1 -11   9     519     248
   1 -11   9     377     297
   1 -11   8     889     289
   1 -11   8     925     287
   1 -11   7     687     253
   1 -11   7       9     282
   1 -11   6    3213     391
   1 -11   6    3369     356
   1 -11   5     956     290
   1 -11   5     684     271
   1 -11   4    7786     461
   1 -11   4    7771     470
   1 -11   3    3670     340
   1 -11   3    3657     349
   1 -11   2     665     225
   1 -11   2     802     258
   1 -11   1     609     214
   1 -11   1     580     213
   1 -11   0      60     167
   1 -11   0      60     211
   1 -11  -1     658     195
   1 -11  -1     965     228
   1 -11  -2     885     190
   1 -11  -2     691     233
   1 -11  -3    3500     275
   1 -11  -3    3228     337
   1 -11  -4    7066     354
   1 -11  -4    7229     436
   1 -11  -5     957     180
   1 -11  -5     789     260
   1 -11  -6    3579     397
  -1  11   6    2687     354
   1 -11  -7     412     298
  -1  11   7     392     298
   1 -11  -8    1259     299
  -1  11   8     681     303
   1 -11  -9     142     287
  -1  11   9     333     285
   1 -11 -10     818     312
  -1  11  10     763     293
   1 -11 -11       0     242
  -1  11  11       0     265
   1 -11 -12       9     292
  -1  11  12      13     273
   1 -11 -13     288     274
  -1  11  13      86     282
   1 -11 -14     449     324
  -1  11  14     236     300
   0 -10  14     169     310
   0 -10  13     393     323
   0 -10  12     467     305
   0 -10  11     441     255
   0 -10  10      76     233
   0 -10  10      16     264
   0 -10   9    3795     410
   0 -10   9    4251     383
   0 -10   8    1147     281
   0 -10   8    1083     331
   0 -10   7      63     240
   0 -10   7       4     251
   0 -10   6    1777     302
   0 -10   6    1636     280
   0 -10   5    2794     294
   0 -10   5    2992     343
   0 -10   4     657     228
   0 -10   4     855     256
   0 -10   3   21235     849
   0 -10   3   22332     830
   0 -10   2     260     197
   0 -10   2     874     214
   0 -10   1    1205     230
   0 -10   1    1482     252
   0 -10   0    4092     338
   0 -10   0    3893     292
   0 -10  -1    1315     208
   0 -10  -1    1544     263
   0 -10  -2     543     160
   0 -10  -2     229     207
   0 -10  -3   20916     769
   0 -10  -3   21282     831
   0 -10  -4     757     178
   0 -10  -4     695     228
   0 -10  -5    2643     334
   0 -10  -5    2616     226
   0 -10  -6    1800     198
   0 -10  -6    1645     300
   0  10   6    1454     310
   0 -10  -7       3     260
   0  10   7       3     266
   0 -10  -8     901     282
   0  10   8    1161     315
   0 -10  -9    3853     404
   0  10   9    3877     413
   0 -10 -10      57     236
   0  10  10     107     254
   0 -10 -11     218     281
   0  10  11      19     253
   0 -10 -12     399     302
   0  10  12       7     259
   0 -10 -13     125     305
   0  10  13       4     295
   0 -10 -14     353     306
   0  10  14     616     309
  -1  -9  14     407     335
  -1  -9  13     328     312
  -1  -9  12     221     297
  -1  -9  11      48     278
  -1  -9  10    3191     421
  -1  -9  10    2843     324
  -1  -9   9    2316     303
  -1  -9   9    1926     368
  -1  -9   8     690     242
  -1  -9   8    1059     283
  -1  -9   7    2980     350
  -1  -9   7    3977     329
  -1  -9   6    3279     376
  -1  -9   6    3093     312
  -1  -9   5     581     252
  -1  -9   5      89     188
  -1  -9   4    9459     540
  -1  -9   4    8816     489
  -1  -9   3    4198     340
  -1  -9   3    4269     316
  -1  -9   2   22831     883
  -1  -9   2   21790     841
  -1  -9   1    2533     276
  -1  -9   1    2324     264
  -1  -9   0     131     162
  -1  -9   0     460     177
  -1  -9  -1    2519     265
  -1  -9  -2   20793     809
  -1  -9  -2   22239     844
  -1  -9  -3    4122     336
  -1  -9  -3    3655     255
  -1  -9  -4    8104     482
  -1  -9  -4    8190     418
  -1  -9  -5      51     198
  -1  -9  -5      74     156
  -1  -9  -6    2981     240
  -1  -9  -6    2313     310
   1   9   6    3152     338
  -1  -9  -7    3338     375
   1   9   7    4032     365
  -1  -9  -8     765     307
   1   9   8    1020     284
  -1  -9  -9    1634     317
   1   9   9    1674     337
  -1  -9 -10    3563     422
   1   9  10    2955     387
  -1  -9 -11       0     264
   1   9  11     164     272
  -1  -9 -12     449     308
   1   9  12       6     270
  -1  -9 -13     154     299
   1   9  13       9     248
  -1  -9 -14     744     337
   1   9  14     331     315
  -2  -8  14     252     314
  -2  -8  13      12     283
  -2  -8  12       2     288
  -2  -8  11     674     311
  -2  -8  10    1041     328
  -2  -8   9     611     231
  -2  -8   9     486     299
  -2  -8   8    1089     315
  -2  -8   8     913     218
  -2  -8   7    2353     262
  -2  -8   7    2079     339
  -2  -8   6    4437     338
  -2  -8   6    4271     422
  -2  -8   5    1289     235
  -2  -8   5     879     247
  -2  -8   4    6558     441
  -2  -8   4    6484     380
  -2  -8   3    4409     373
  -2  -8   3    4983     343
  -2  -8   2    4200     331
  -2  -8   2    3518     284
  -2  -8   1    2048     234
  -2  -8   1    2327     245
  -2  -8   0    3541     273
  -2  -8   0    3444     269
  -2  -8  -1    1199     173
  -2  -8  -1    2360     252
  -2  -8  -2    3446     284
  -2  -8  -2    3634     290
  -2  -8  -3    4857     356
  -2  -8  -3    4357     321
  -2  -8  -4    5430     349
  -2  -8  -4    5691     379
  -2  -8  -5     648     188
  -2  -8  -5     710     228
  -2  -8  -6    3963     291
  -2  -8  -6    4091     389
   2   8   6    3918     361
  -2  -8  -7    2382     203
  -2  -8  -7    2493     336
   2   8   7    2122     314
  -2  -8  -8     939     293
   2   8   8     952     271
  -2  -8  -9     108     281
   2   8   9     833     281
  -2  -8 -10     889     302
   2   8  10    1389     301
  -2  -8 -11     560     303
   2   8  11     439     278
  -2  -8 -12     341     260
   2   8  12       2     260
  -2  -8 -13      11     293
   2   8  13     263     295
  -2  -8 -14      39     261
  -3  -7  14      45     287
  -3  -7  13     512     303
  -3  -7  12     388     302
  -3  -7  11       5     261
  -3  -7  10     124     272
  -3  -7   9     790     212
  -3  -7   9     466     281
  -3  -7   8     735     202
  -3  -7   8    1016     302
  -3  -7   7    6468     480
  -3  -7   7    7069     393
  -3  -7   6     716     190
  -3  -7   6     371     222
  -3  -7   5    5702     332
  -3  -7   5    5635     408
  -3  -7   4     714     228
  -3  -7   4     693     179
  -3  -7   3   10570     507
  -3  -7   3   10372     433
  -3  -7   2    2645     289
  -3  -7   2    2871     245
  -3  -7   1    8619     406
  -3  -7   1    8558     438
  -3  -7   0   14110     607
  -3  -7   0   14474     581
  -3  -7  -1    8361     406
  -3  -7  -1    8437     392
  -3  -7  -2    2173     247
  -3  -7  -2    2307     234
  -3  -7  -3   10434     487
  -3  -7  -3   10519     469
  -3  -7  -4     502     204
  -3  -7  -4     305     177
  -3  -7  -5    3933     295
  -3  -7  -5    5055     339
  -3  -7  -6     555     223
  -3  -7  -6     652     190
   3   7   6     513     238
  -3  -7  -7    6931     363
  -3  -7  -7    6768     458
   3   7   7    6882     458
  -3  -7  -8     711     279
   3   7   8     562     256
  -3  -7  -9     551     293
   3   7   9     804     271
  -3  -7 -10     206     240
   3   7  10     205     244
  -3  -7 -11     200     279
   3   7  11     205     252
  -3  -7 -12     503     260
   3   7  12     382     273
  -3  -7 -13     441     275
  -3  -7 -14     348     325
  -4  -6  14       3     292
  -4  -6  13    1135     341
  -4  -6  12     536     302
  -4  -6  11     354     290
  -4  -6  10     109     260
  -4  -6   9    1187     312
  -4  -6   8     984     204
  -4  -6   8    1070     311
  -4  -6   7   10615     457
  -4  -6   7   11093     592
  -4  -6   6    4507     299
  -4  -6   6    4752     419
  -4  -6   5    9494     501
  -4  -6   5    9750     418
  -4  -6   4     955     159
  -4  -6   4     919     228
  -4  -6   3    4293     256
  -4  -6   3    4102     345
  -4  -6   2     116     178
  -4  -6   2     165     128
  -4  -6   1   15560     582
  -4  -6   1   15163     639
  -4  -6   0    9515     366
  -4  -6   0    9702     411
  -4  -6  -1   15839     646
  -4  -6  -1   15282     613
  -4  -6  -2     108     101
  -4  -6  -2      53     153
  -4  -6  -3    4300     315
  -4  -6  -3    4400     291
  -4  -6  -4    1077     197
  -4  -6  -4     622     198
  -4  -6  -5    8484     440
  -4  -6  -5    8664     452
  -4  -6  -6    4477     333
  -4  -6  -6    4421     352
  -4  -6  -7    9856     449
  -4  -6  -7    9001     493
   4   6   7   10045     515
  -4  -6  -8    1247     214
  -4  -6  -8    1187     312
   4   6   8     839     258
  -4  -6  -9     696     294
   4   6   9     497     262
  -4  -6 -10       0     217
   4   6  10      52     240
  -4  -6 -11     355     258
   4   6  11      63     224
  -4  -6 -12     228     253
  -4  -6 -13     950     342
  -4  -6 -14     285     321
  -5  -5  14     429     314
  -5  -5  13       3     299
  -5  -5  12    1019     328
  -5  -5  11     736     297
  -5  -5  10     336     271
  -5  -5   9    1007     290
  -5  -5   8    3562     396
  -5  -5   7     680     159
  -5  -5   7     855     256
  -5  -5   6   30691    1210
  -5  -5   6   30181    1056
  -5  -5   5    5611     311
  -5  -5   5    5749     456
  -5  -5   4     231     116
  -5  -5   4     164     206
  -5  -5   3   11882     570
  -5  -5   3   12191     459
  -5  -5   2   10331     512
  -5  -5   2    9857     419
  -5  -5   1    5246     266
  -5  -5   1    5889     352
  -5  -5   0   25976     903
  -5  -5   0   25759     833
  -5  -5  -1    5405     294
  -5  -5  -1    6067     347
  -5  -5  -2    9669     450
  -5  -5  -2   10153     492
  -5  -5  -4       4     168
  -5  -5  -4      43     174
  -5  -5  -5    4876     373
  -5  -5  -5    5209     381
  -5  -5  -6   29371    1120
  -5  -5  -6   28345    1098
  -5  -5  -7     756     274
  -5  -5  -7     572     211
   5   5   7     431     219
  -5  -5  -8    3555     379
  -5  -5  -8    3863     319
   5   5   8    3387     320
  -5  -5  -9    1843     227
  -5  -5  -9    1337     277
   5   5   9    1130     261
  -5  -5 -10     216     248
   5   5  10     292     235
  -5  -5 -11    1042     318
  -5  -5 -12    1094     303
  -5  -5 -13       4     255
  -5  -5 -14     396     314
  -6  -4  14      21     278
  -6  -4  13    1168     361
  -6  -4  12     272     287
  -6  -4  11      46     289
  -6  -4  10     226     269
  -6  -4   9     408     278
  -6  -4   8    1005     312
  -6  -4   7    9250     506
  -6  -4   6    4694     222
  -6  -4   6    4930     412
  -6  -4   5    9227     342
  -6  -4   5    9262     493
  -6  -4   4     844      97
  -6  -4   4    1084     229
  -6  -4   3    4392     346
  -6  -4   3    4193     205
  -6  -4   2     244     102
  -6  -4   2     100     190
  -6  -4   1   15279     558
  -6  -4   1   14984     640
  -6  -4   0    9379     401
  -6  -4   0    9876     350
  -6  -4  -1   15952     652
  -6  -4  -1   15131     588
  -6  -4  -2     426     190
  -6  -4  -2     305     148
  -6  -4  -3    3724     260
  -6  -4  -3    4100     314
  -6  -4  -4    1028     203
  -6  -4  -5    9063     458
  -6  -4  -5    9735     493
  -6  -4  -6    4381     373
  -6  -4  -6    4184     372
  -6  -4  -7   10574     522
  -6  -4  -7   10147     549
  -6  -4  -8    1201     288
  -6  -4  -8    1236     260
   6   4   8    1067     238
  -6  -4  -9     495     218
  -6  -4  -9     464     238
   6   4   9     347     218
  -6  -4 -10       0     225
  -6  -4 -11     547     265
  -6  -4 -12     507     261
  -6  -4 -13     615     287
  -6  -4 -14     363     327
  -7  -3  14      44     282
  -7  -3  13      13     277
  -7  -3  12     581     295
  -7  -3  11     478     302
  -7  -3  10     467     300
  -7  -3   9    1168     304
  -7  -3   8     841     281
  -7  -3   7    6527     463
  -7  -3   6     529     226
  -7  -3   5    4427     344
  -7  -3   4     414     216
  -7  -3   3    9994     484
  -7  -3   3   10186     349
  -7  -3   2    2468     162
  -7  -3   2    2403     286
  -7  -3   1    8812     347
  -7  -3   1    8565     453
  -7  -3   0   14653     555
  -7  -3   0   14403     645
  -7  -3  -1    8764     444
  -7  -3  -1    7508     351
  -7  -3  -2    2833     303
  -7  -3  -2    3061     241
  -7  -3  -3   10127     434
  -7  -3  -3    9251     474
  -7  -3  -4     384     218
  -7  -3  -4     389     164
  -7  -3  -6     585     244
  -7  -3  -6     725     230
  -7  -3  -7    6111     413
  -7  -3  -7    6963     435
  -7  -3  -8     929     248
  -7  -3  -8     888     254
  -7  -3  -9     685     287
  -7  -3  -9     668     242
  -7  -3 -10     587     238
  -7  -3 -10     432     249
  -7  -3 -11     341     244
  -7  -3 -12     291     290
  -7  -3 -13     464     286
  -7  -3 -14     208     277
  -8  -2  14     232     305
  -8  -2  13      11     289
  -8  -2  12       2     269
  -8  -2  11     498     286
  -8  -2  10    1060     302
  -8  -2   9     904     290
  -8  -2   8    1214     299
  -8  -2   7    1607     301
  -8  -2   6    3875     381
  -8  -2   5     431     220
  -8  -2   4    6056     412
  -8  -2   3    4353     193
  -8  -2   3    4757     380
  -8  -2   2    3744     341
  -8  -2   2    3675     194
  -8  -2   1    2205     285
  -8  -2   1    1718     158
  -8  -2   0    3124     204
  -8  -2   0    3783     293
  -8  -2  -1    1923     196
  -8  -2  -1    1973     251
  -8  -2  -2    3580     261
  -8  -2  -2    3939     342
  -8  -2  -3    4173     361
  -8  -2  -3    3985     283
  -8  -2  -4    5753     420
  -8  -2  -4    6705     388
  -8  -2  -5     962     244
  -8  -2  -5     935     247
  -8  -2  -6    4222     381
  -8  -2  -7    2274     317
  -8  -2  -7    2582     302
  -8  -2  -8     769     247
  -8  -2  -8     919     270
  -8  -2  -9       3     254
  -8  -2  -9     728     265
  -8  -2 -10    1481     290
  -8  -2 -10     949     308
  -8  -2 -11    1157     272
  -8  -2 -11     384     291
  -8  -2 -12     179     246
  -8  -2 -13      13     242
  -8  -2 -14      18     288
  -9  -1  14     555     283
  -9  -1  14     438     308
  -9  -1  13       9     279
  -9  -1  12       6     283
  -9  -1  11     310     296
  -9  -1  10    3729     412
  -9  -1   9    1682     331
  -9  -1   8     974     297
  -9  -1   7    4161     388
  -9  -1   6    2728     345
  -9  -1   5     110     204
  -9  -1   4    8560     507
  -9  -1   3    4743     359
  -9  -1   2   21410     866
  -9  -1   2   21936     732
  -9  -1   1    2461     299
  -9  -1   1    2317     177
  -9  -1   0     159     125
  -9  -1   0     213     213
  -9  -1  -1    2483     280
  -9  -1  -1    2394     200
  -9  -1  -2   23297     841
  -9  -1  -2   22661     904
  -9  -1  -3    4047     275
  -9  -1  -3    3810     340
  -9  -1  -4    8413     457
  -9  -1  -4    8673     513
  -9  -1  -5     169     205
  -9  -1  -5      41     213
  -9  -1  -6    3195     351
  -9  -1  -6    2810     323
  -9  -1  -7    3462     360
  -9  -1  -7    4708     402
  -9  -1  -8     869     268
  -9  -1  -8     106     126
  -9  -1  -9    2073     313
  -9  -1  -9    1711     346
  -9  -1 -10    3817     396
  -9  -1 -10    2685     353
  -9  -1 -11       0     248
  -9  -1 -11     354     236
  -9  -1 -12     151     252
  -9  -1 -13      76     261
  -9  -1 -14     780     312
 -10   0  14     628     285
 -10   0  13      85     259
 -10   0  13       4     304
 -10   0  12     246     288
 -10   0  11     471     275
 -10   0  10      17     261
 -10   0   9    4461     442
 -10   0   8    1365     343
 -10   0   7       3     250
 -10   0   6    1523     313
 -10   0   5    2691     308
 -10   0   4     869     264
 -10   0   3   21420     842
  10   0  -3   20200     656
 -10   0   2     412      93
 -10   0   2     931     235
 -10   0   1    1331     148
 -10   0   1    1537     255
 -10   0   0    3451     229
 -10   0   0    3720     343
 -10   0  -1    1124     271
 -10   0  -1    1342     184
 -10   0  -2     378     162
 -10   0  -2     814     236
 -10   0  -3   21722     819
 -10   0  -3   23676     911
 -10   0  -4     640     181
 -10   0  -4     771     254
 -10   0  -5    2817     338
 -10   0  -5    2566     292
 -10   0  -6    1216     279
 -10   0  -6    1566     319
 -10   0  -7     305     254
 -10   0  -7      83     248
 -10   0  -8    1236     307
 -10   0  -8    1102     307
 -10   0  -9    1723     250
 -10   0  -9    4349     411
 -10   0 -10     198     248
 -10   0 -10      17     213
 -10   0 -11      19     278
 -10   0 -11     641     264
 -10   0 -12     107     289
 -10   0 -13     297     265
 -10   0 -14      16     271
 -11   1  14     382     296
 -11   1  13     646     296
 -11   1  13     322     297
 -11   1  12      13     269
 -11   1  12      13     246
 -11   1  11       0     285
 -11   1  11     281     244
 -11   1  10     731     283
 -11   1   9     383     271
 -11   1   8     890     302
 -11   1   7     124     271
 -11   1   6    4064     404
 -11   1   5    1208     299
 -11   1   4    8403     505
 -11   1   3    3778     367
  11  -1  -3    3029     179
 -11   1   2     937     273
  11  -1  -2    1046     131
 -11   1   1     598     228
 -11   1   1     876     144
 -11   1   0      13     233
 -11   1   0       0     129
 -11   1  -1     567     169
 -11   1  -1     660     255
 -11   1  -2     902     264
 -11   1  -2     875     185
 -11   1  -3    3575     382
 -11   1  -3    3680     303
 -11   1  -4    7171     411
 -11   1  -4    6557     463
 -11   1  -5     899     219
 -11   1  -5     737     285
 -11   1  -6    3825     406
 -11   1  -6    3635     370
 -11   1  -7     327     295
 -11   1  -7     208     260
 -11   1  -8    1512     335
 -11   1  -8    1117     279
 -11   1  -9     529     277
 -11   1  -9     428     245
 -11   1 -10       4     275
 -11   1 -10     870     287
 -11   1 -11       0     235
 -11   1 -12      13     231
 -11   1 -13     310     290
 -11   1 -14     170     326
 -12   2  13      17     253
 -12   2  12     196     253
 -12   2  12      10     300
 -12   2  11     119     295
 -12   2  11     494     226
 -12   2  10     442     263
 -12   2  10     852     330
 -12   2   9     658     260
 -12   2   9     980     304
 -12   2   8     601     315
 -12   2   7     447     313
 -12   2   6     493     283
 -12   2   5    1762     332
 -12   2   4     720     284
 -12   2   3    4504     408
  12  -2  -3    3868     225
 -12   2   2     838     227
  12  -2  -2     726     140
 -12   2   1     374     257
  12  -2  -1     303     124
 -12   2   0     521     231
 -12   2   0     336     147
 -12   2  -1     179     248
 -12   2  -1     131     158
 -12   2  -2     738     113
 -12   2  -2     971     277
 -12   2  -2     986     190
 -12   2  -3    5304     350
 -12   2  -3    4746     432
 -12   2  -4     606     284
 -12   2  -4     545     234
 -12   2  -5    1953     276
 -12   2  -5    1869     354
 -12   2  -6     354     266
 -12   2  -6     308     288
 -12   2  -7     275     235
 -12   2  -7     109     284
 -12   2  -8     361     318
 -12   2  -8      20     222
 -12   2  -9     424     293
 -12   2  -9     721     298
 -12   2 -10     454     306
 -12   2 -10     675     326
 -12   2 -11     366     259
 -12   2 -11     530     308
 -12   2 -12     164     309
 -12   2 -13     421     287
 -13   3  13      24     270
 -13   3  12     649     309
 -13   3  12     162     303
 -13   3  11     425     310
 -13   3  11       3     257
 -13   3  10    1563     347
 -13   3  10    1190     302
 -13   3   9     419     263
 -13   3   9     648     316
 -13   3   8     601     290
 -13   3   8     843     268
 -13   3   7    1634     333
 -13   3   7    1064     276
 -13   3   6     748     256
 -13   3   6    1122     316
 -13   3   5     138     207
 -13   3   5     952     303
 -13   3   4     988     230
 -13   3   4     927     307
 -13   3   3    1656     307
 -13   3   3    1211     164
  13  -3  -3    1925     181
 -13   3   2    8515     565
 -13   3   2    8813     467
  13  -3  -2    8285     404
 -13   3   1     608     164
 -13   3   1     490     274
  13  -3  -1     280     146
 -13   3   0     160     150
 -13   3   0     393     272
  13  -3   0     130     142
 -13   3  -1     312     131
 -13   3  -1     362     165
 -13   3  -1     183     273
 -13   3  -2    7853     370
 -13   3  -2    8370     449
 -13   3  -2    8318     558
 -13   3  -3    1696     286
 -13   3  -3    2049     261
 -13   3  -4    1822     276
 -13   3  -4    1240     325
 -13   3  -5     498     247
 -13   3  -5     554     305
 -13   3  -6    1099     344
 -13   3  -6     433     278
 -13   3  -7    1283     343
 -13   3  -7    1436     322
 -13   3  -8     432     246
 -13   3  -8     413     294
 -13   3  -9     904     317
 -13   3  -9     701     272
 -13   3 -10    1413     343
 -13   3 -10    1302     343
 -13   3 -11     112     310
 -13   3 -11       2     284
 -13   3 -12     600     336
 -13   3 -13     287     285
 -14   4  13       6     284
 -14   4  12     206     283
 -14   4  11     633     319
 -14   4  11     723     302
 -14   4  10    1025     331
 -14   4  10     885     292
 -14   4   9     880     285
 -14   4   9     592     324
 -14   4   8     931     275
 -14   4   8     654     297
 -14   4   7    1395     325
 -14   4   7    1389     296
 -14   4   6     887     277
 -14   4   6     607     322
 -14   4   5    3354     391
 -14   4   5    3152     343
 -14   4   4    3701     398
 -14   4   4    3795     340
 -14   4   3    3209     391
  14  -4  -3    3280     265
 -14   4   2    2295     350
 -14   4   2    2015     246
  14  -4  -2    2070     219
 -14   4   1    5329     472
 -14   4   1    4647     342
  14  -4  -1    5288     346
 -14   4   0       1     154
 -14   4   0     149     287
  14  -4   0       3     162
 -14   4  -1    4659     448
 -14   4  -1    4318     293
  14  -4   1    4586     321
 -14   4  -2    2178     343
 -14   4  -2    1556     257
 -14   4  -3    3210     326
 -14   4  -3    3000     367
 -14   4  -4    3573     402
 -14   4  -4    3473     346
 -14   4  -5    2772     317
 -14   4  -5    2660     400
 -14   4  -6     434     274
 -14   4  -6     555     324
 -14   4  -7    1351     350
 -14   4  -7    1009     302
 -14   4  -8     403     287
 -14   4  -8     554     313
 -14   4  -9    1362     331
 -14   4  -9    1684     360
 -14   4 -10     746     323
 -14   4 -10     714     322
 -14   4 -11    1079     346
 -14   4 -11     223     278
 -14   4 -12      16     265
 -15   5  12     252     295
 -15   5  11      17     300
 -15   5  11     535     305
 -15   5  10       4     257
 -15   5  10      28     300
 -15   5   9    1251     310
 -15   5   9    1172     345
 -15   5   8     280     271
 -15   5   8     108     247
 -15   5   7      67     273
 -15   5   7     498     250
 -15   5   6     879     261
 -15   5   6     634     291
 -15   5   5    1353     329
 -15   5   5    1218     266
 -15   5   4      90     231
 -15   5   4     594     299
 -15   5   3    3004     294
 -15   5   3    5117     444
 -15   5   2     279     288
 -15   5   2      86     195
  15  -5  -2      20     177
 -15   5   1    1599     223
 -15   5   1    1627     330
  15  -5  -1    1226     220
 -15   5   0    6074     491
 -15   5   0    4492     332
  15  -5   0    5373     362
 -15   5  -1    1050     175
 -15   5  -1    1002     276
  15  -5   1    1464     226
 -15   5  -2       5     239
 -15   5  -3    4232     423
 -15   5  -3    4878     373
 -15   5  -4     216     306
 -15   5  -4     479     256
 -15   5  -5     986     298
 -15   5  -5    1201     317
 -15   5  -6    1078     296
 -15   5  -6     525     315
 -15   5  -7     425     277
 -15   5  -7     196     295
 -15   5  -8     352     290
 -15   5  -8      43     238
 -15   5  -9    1322     352
 -15   5  -9    1203     338
 -15   5 -10     548     281
 -15   5 -10     257     317
 -15   5 -11       4     292
 -15   5 -11     758     337
 -15   5 -12     284     284
 -16   6  11       6     270
 -16   6  10     413     294
 -16   6  10      57     299
 -16   6   9     443     284
 -16   6   9     721     314
 -16   6   8     107     308
 -16   6   8      34     259
 -16   6   7     551     270
 -16   6   7     624     283
 -16   6   6     217     290
 -16   6   6      22     232
 -16   6   5     719     249
 -16   6   5     418     282
 -16   6   4      90     213
 -16   6   4     295     278
 -16   6   3    1287     278
 -16   6   3    1201     340
 -16   6   2    1476     262
 -16   6   2    1412     323
  16  -6  -2    1734     264
 -16   6   1    1103     230
 -16   6   1    1360     339
  16  -6  -1    1576     265
 -16   6   0      10     182
 -16   6   0     462     307
  16  -6   0      70     209
 -16   6  -1    1249     337
  16  -6   1    1388     249
 -16   6  -2    1343     349
 -16   6  -3    1296     363
  16  -6   3    1735     301
 -16   6  -4     726     252
 -16   6  -4     126     300
  16  -6   4     469     203
 -16   6  -5      30     246
 -16   6  -5     237     299
 -16   6  -6       2     245
 -16   6  -6     318     308
 -16   6  -7     341     275
 -16   6  -7     573     259
 -16   6  -8      37     303
 -16   6  -8     258     303
 -16   6  -9     105     317
 -16   6  -9     104     305
 -16   6 -10     740     353
 -16   6 -10     991     360
 -16   6 -11       6     332
 -16   6 -11     365     327
 -17   7  11       4     299
 -17   7  10       1     283
 -17   7  10       1     282
 -17   7   9     265     298
 -17   7   9     242     288
 -17   7   8     114     276
 -17   7   8     222     278
 -17   7   7       4     288
 -17   7   7      10     277
 -17   7   6    1244     323
 -17   7   6    1344     346
 -17   7   5      37     216
 -17   7   5     240     282
 -17   7   4      14     270
 -17   7   4      51     191
 -17   7   3       8     270
 -17   7   3      85     221
 -17   7   2     262     279
 -17   7   2      14     217
  17  -7  -2      68     219
 -17   7   1      29     232
 -17   7   1     373     204
  17  -7  -1     551     232
 -17   7   0     829     316
  17  -7   0     900     244
 -17   7  -1      28     284
  17  -7   1      28     219
 -17   7  -2     147     291
  17  -7   2      13     134
 -17   7  -3       8     282
  17  -7   3     553     239
 -17   7  -4      15     279
  17  -7   4     141     239
 -17   7  -5      34     293
  17  -7   5     238     242
 -17   7  -6    1427     334
 -17   7  -6    1402     290
 -17   7  -7      28     314
 -17   7  -7       3     274
 -17   7  -8     122     294
 -17   7  -8       5     303
 -17   7  -9       1     258
 -17   7  -9     513     345
 -17   7 -10       2     249
 -17   7 -10     244     335
 -17   7 -11       5     311
 -17   7 -11       5     327
 -18   8  10     168     306
 -18   8   9       6     258
 -18   8   9     285     282
 -18   8   8     793     309
 -18   8   8     612     295
 -18   8   7    1043     337
 -18   8   7     812     299
 -18   8   6     197     257
 -18   8   6     115     279
 -18   8   5     621     286
 -18   8   5    1088     342
 -18   8   4     108     280
 -18   8   4       4      93
 -18   8   3     253     272
 -18   8   3       2     221
 -18   8   2       4     218
 -18   8   2      61     272
 -18   8   1    1779     327
 -18   8   1    1350     268
  18  -8  -1    1194     273
 -18   8   0     994     321
  18  -8   0    1757     302
 -18   8  -1    1253     350
  18  -8   1    1728     310
 -18   8  -2     357     265
  18  -8   2       5     203
 -18   8  -3     139     285
  18  -8   3     481     246
 -18   8  -4     321     302
  18  -8   4      33     242
 -18   8  -5     859     313
  18  -8   5    1189     311
 -18   8  -6       1     296
  18  -8   6       1     218
 -18   8  -7    1067     358
  18  -8   7     838     276
 -18   8  -8     351     323
 -18   8  -8     214     260
  18  -8   8     885     322
 -18   8  -9      23     303
 -18   8  -9      13     338
  18  -8   9     289     305
 -18   8 -10      26     327
 -18   8 -10       6     310
 -19   9   9     128     304
 -19   9   8      45     292
 -19   9   8      50     309
 -19   9   7    1297     339
 -19   9   7    1363     356
 -19   9   6     778     327
 -19   9   6       7     294
 -19   9   5     208     303
 -19   9   5     296     263
 -19   9   4      32     121
 -19   9   4     156     278
 -19   9   3       4     236
 -19   9   3       4     256
 -19   9   2     260     241
 -19   9   2     498     304
 -19   9   1     847     316
  19  -9  -1     911     295
 -19   9   0     397     313
  19  -9   0     588     273
 -19   9  -1    1028     342
  19  -9   1     879     279
 -19   9  -2     308     290
  19  -9   2     121     236
 -19   9  -3     295     308
  19  -9   3       5     252
 -19   9  -4     165     307
  19  -9   4      76     267
 -19   9  -5     680     333
  19  -9   5     673     289
 -19   9  -6     367     338
  19  -9   6     283     286
 -19   9  -7    1653     422
  19  -9   7    2057     396
 -19   9  -8     187     343
  19  -9   8     261     320
 -19   9  -9      46     349
  19  -9   9     236     325
 -20  10   8      26     269
 -20  10   8      21     293
 -20  10   7      42     292
 -20  10   7     169     313
 -20  10   6    2106     379
 -20  10   6    1423     352
 -20  10   5     273     311
 -20  10   5      11     274
 -20  10   4      15     249
 -20  10   4     122     314
 -20  10   3     129     251
 -20  10   3     146     286
 -20  10   2     684     319
 -20  10   1       7     298
 -20  10   0     340     302
  20 -10   0     681     290
 -20  10  -1       0     302
  20 -10   1      28     243
 -20  10  -2      17     285
  20 -10   2      17     257
 -20  10  -3       0     310
  20 -10   3       0     271
 -20  10  -4      14     303
  20 -10   4      14     277
 -20  10  -5      55     284
  20 -10   5       7     294
 -20  10  -6    1295     388
  20 -10   6    1593     361
 -20  10  -7       1     318
  20 -10   7      41     231
 -20  10  -8      28     337
  20 -10   8      41     311
 -21  11   7      16     279
 -21  11   7     483     333
 -21  11   6       8     317
 -21  11   6     233     325
 -21  11   5      59     290
 -21  11   5     128     297
 -21  11   4      21     268
 -21  11   4      21     268
 -21  11   3       7     288
 -21  11   2     121     303
 -21  11   1      25     293
 -21  11   0       1     286
  21 -11   0       1     271
 -21  11  -1     264     322
  21 -11   1       3     252
 -21  11  -2       0     278
  21 -11   2       0     296
 -21  11  -3      72     324
  21 -11   3     155     285
 -21  11  -4     215     333
  21 -11   4      22     282
 -21  11  -5     170     353
  21 -11   5      59     290
 -21  11  -6       5     292
  21 -11   6       5     313
 -21  11  -7     252     298
  21 -11   7     544     340
 -22  12   5       6     209
 -22  12   5      94     330
 -22  12   4     167     314
 -22  12   3     399     310
 -22  12   2       1     304
 -22  12   1       3     289
 -22  12   0     599     328
 -22  12  -1       3     278
  22 -12   1       3     207
 -22  12  -2       1     289
  22 -12   2      37     313
 -22  12  -3      24     311
  22 -12   3     572     314
 -22  12  -4     110     338
  22 -12   4     164     317
 -22  12  -5     124     317
  22 -12   5       6     298
 -23  13   3     940     376
 -23  13   2     250     338
 -23  13   1     290     319
 -23  13   0       4     300
 -23  13  -1     410     334
 -23  13  -2     521     353
  23 -13   2       9     287
 -23  13  -3     342     354
  12 -23   3       6     388
  12 -23   2     244     416
  12 -23   1     184     420
  12 -23   0     149     397
  12 -23  -1      14     376
  12 -23  -2     241     382
  12 -23  -3     269     383
  11 -22   5      52     380
  11 -22   4     220     393
  11 -22   3      96     334
  11 -22   2     190     396
  11 -22   1      97     336
  11 -22   0     408     346
  11 -22  -1      27     287
  11 -22  -2     256     383
  11 -22  -3     137     323
  11 -22  -4       9     370
  11 -22  -5      52     343
  10 -21   7      12     363
  10 -21   6     225     394
  10 -21   5     180     339
  10 -21   4     115     329
  10 -21   3       7     317
  10 -21   2       3     369
  10 -21   1     471     396
  10 -21   0       2     362
  10 -21  -1     182     324
  10 -21  -2     444     373
  10 -21  -3     146     309
  10 -21  -4      19     301
  10 -21  -5     290     330
  10 -21  -6       6     287
  10 -21  -7     405     326
   9 -20   8      43     370
   9 -20   7      20     302
   9 -20   6     407     386
   9 -20   5     474     396
   9 -20   4     163     388
   9 -20   3     185     310
   9 -20   2      38     303
   9 -20   1      10     310
   9 -20   0      99     356
   9 -20  -1     462     319
   9 -20  -2     115     307
   9 -20  -3     182     300
   9 -20  -4      44     296
   9 -20  -5     605     335
   9 -20  -6    1052     392
   9 -20  -7      23     345
   9 -20  -8     226     379
  -9  20   8      41     346
   8 -19   9      46     354
   8 -19   8     282     371
   8 -19   7      95     355
   8 -19   6    1337     396
   8 -19   5     133     368
   8 -19   4      26     337
   8 -19   3     139     351
   8 -19   2       1     342
   8 -19   1     315     317
   8 -19   0    1580     416
   8 -19  -1     345     351
   8 -19  -2       3     331
   8 -19  -3      10     263
   8 -19  -4      27     274
   8 -19  -5     288     350
   8 -19  -6     935     337
   8 -19  -7     423     365
   8 -19  -8      86     360
  -8  19   8     161     334
   8 -19  -9      25     338
  -8  19   9      84     337
   7 -18  10       1     307
   7 -18   9      99     349
   7 -18   8       5     336
   7 -18   7     755     369
   7 -18   6     499     350
   7 -18   5     375     350
   7 -18   4     345     305
   7 -18   3     279     290
   7 -18   2     353     357
   7 -18   1      42     288
   7 -18   0       0     278
   7 -18  -1     139     332
   7 -18  -2     166     294
   7 -18  -3       3     299
   7 -18  -4       3     262
   7 -18  -5     410     332
   7 -18  -6     941     325
   7 -18  -7     391     363
  -7  18   7     237     298
   7 -18  -8       4     284
  -7  18   8     237     332
   7 -18  -9     252     298
  -7  18   9       8     266
   7 -18 -10       2     330
  -7  18  10       2     317
   6 -17  11       2     323
   6 -17  10       6     309
   6 -17   9     533     353
   6 -17   8      71     334
   6 -17   7     412     345
   6 -17   6     463     336
   6 -17   5       7     311
   6 -17   4     442     336
   6 -17   3     573     303
   6 -17   2      61     332
   6 -17   1       3     334
   6 -17   0       0     272
   6 -17  -1       2     329
   6 -17  -2     301     211
   6 -17  -2     191     338
   6 -17  -3     634     306
   6 -17  -4     139     274
   6 -17  -5     513     326
   6 -17  -6     167     323
   6 -17  -7      10     273
  -6  17   7     717     340
   6 -17  -8       2     328
  -6  17   8       2     311
   6 -17  -9     398     310
  -6  17   9      42     330
   6 -17 -10     129     292
  -6  17  10     449     351
   6 -17 -11     483     341
  -6  17  11     429     358
   5 -16  11     204     319
   5 -16  10     757     339
   5 -16   9     445     319
   5 -16   8      42     312
   5 -16   7       7     284
   5 -16   6     739     324
   5 -16   5     586     323
   5 -16   4     671     352
   5 -16   3     396     296
   5 -16   2    1351     377
   5 -16   1      59     296
   5 -16   0     531     356
   5 -16  -1      15     230
   5 -16  -1     231     331
   5 -16  -2    1216     241
   5 -16  -2    1095     365
   5 -16  -3     397     213
   5 -16  -3      48     332
   5 -16  -4     211     324
   5 -16  -5     130     310
   5 -16  -6       0     344
   5 -16  -7     101     277
  -5  16   7       8     301
   5 -16  -8     113     325
  -5  16   8     679     337
   5 -16  -9     157     282
  -5  16   9      80     308
   5 -16 -10      36     279
  -5  16  10     607     338
   5 -16 -11       6     310
  -5  16  11       6     302
   4 -15  12     485     331
   4 -15  12       4     291
   4 -15  11      21     286
   4 -15  10     559     312
   4 -15   9     150     292
   4 -15   8     584     318
   4 -15   7     458     312
   4 -15   6     317     306
   4 -15   5       4     258
   4 -15   4    3942     458
   4 -15   3    1103     345
   4 -15   2      80     323
   4 -15   1     248     327
   4 -15   0    2030     390
   4 -15  -1     416     286
   4 -15  -1     692     246
   4 -15  -2      13     210
   4 -15  -2      13     246
   4 -15  -3     693     345
   4 -15  -3    1497     236
   4 -15  -4    2860     388
   4 -15  -5     242     270
   4 -15  -6     435     284
   4 -15  -7     158     308
  -4  15   7     296     309
   4 -15  -8     513     299
  -4  15   8     518     320
   4 -15  -9     553     340
  -4  15   9     366     316
   4 -15 -10     371     326
  -4  15  10     688     344
   4 -15 -11     199     319
  -4  15  11      22     312
   4 -15 -12     186     334
  -4  15  12       5     320
   3 -14  12     208     276
   3 -14  11     585     319
   3 -14  11     418     320
   3 -14  10     199     303
   3 -14   9    1493     351
   3 -14   8     600     296
   3 -14   7      23     279
   3 -14   6     996     321
   3 -14   5     887     324
   3 -14   4     250     307
   3 -14   3    2164     336
   3 -14   2      87     255
   3 -14   1     609     261
   3 -14   1      10     280
   3 -14   0    4323     405
   3 -14   0    2480     267
   3 -14  -1     639     231
   3 -14  -1      12     246
   3 -14  -2     292     212
   3 -14  -2       4     294
   3 -14  -3    1997     330
   3 -14  -3    1814     253
   3 -14  -4     208     191
   3 -14  -4      61     299
   3 -14  -5      86     261
   3 -14  -6     500     288
  -3  14   6    1201     315
   3 -14  -7      47     299
  -3  14   7      23     286
   3 -14  -8     504     275
  -3  14   8     317     296
   3 -14  -9    1430     363
  -3  14   9    1458     355
   3 -14 -10       6     285
  -3  14  10     363     322
   3 -14 -11     680     349
  -3  14  11       8     336
   3 -14 -12     114     306
  -3  14  12      15     336
   2 -13  13     260     314
   2 -13  12    1005     349
   2 -13  11      40     258
   2 -13  11     507     315
   2 -13  10     892     338
   2 -13  10     828     291
   2 -13   9     305     299
   2 -13   9      35     246
   2 -13   8    1053     291
   2 -13   8     158     286
   2 -13   7     296     280
   2 -13   6      51     266
   2 -13   5     264     281
   2 -13   4     819     303
   2 -13   4     898     306
   2 -13   3     213     283
   2 -13   3     764     282
   2 -13   2    4814     419
   2 -13   2    5017     457
   2 -13   1     215     245
   2 -13   1     124     275
   2 -13   0    9422     570
   2 -13   0    8289     484
   2 -13  -1     636     223
   2 -13  -1     351     279
   2 -13  -2    4067     434
   2 -13  -2    4534     360
   2 -13  -3     781     310
   2 -13  -3     719     209
   2 -13  -4     543     191
   2 -13  -4     837     276
   2 -13  -5      32     243
   2 -13  -6     149     295
  -2  13   6      51     294
   2 -13  -7      13     250
  -2  13   7      22     292
   2 -13  -8     263     304
  -2  13   8     604     303
   2 -13  -9      87     250
  -2  13   9      66     281
   2 -13 -10     639     297
  -2  13  10    1140     349
   2 -13 -11     120     308
  -2  13  11     436     344
   2 -13 -12     810     306
  -2  13  12     825     375
   2 -13 -13     190     316
  -2  13  13     215     331
   1 -12  13     435     341
   1 -12  12     507     331
   1 -12  11     337     314
   1 -12  10      10     229
   1 -12  10      10     277
   1 -12   9     262     293
   1 -12   9       5     258
   1 -12   8     566     286
   1 -12   8       3     279
   1 -12   7      15     248
   1 -12   7     236     247
   1 -12   6     231     261
   1 -12   6       1     227
   1 -12   5    1654     335
   1 -12   5    1403     319
   1 -12   4     955     291
   1 -12   4     794     256
   1 -12   3    3180     372
   1 -12   3    3759     391
   1 -12   2     503     278
   1 -12   2     772     264
   1 -12   1     887     272
   1 -12   1    1173     248
   1 -12   0    5772     425
   1 -12   0    6033     374
   1 -12  -1     676     203
   1 -12  -1     947     288
   1 -12  -2     902     294
   1 -12  -2     880     220
   1 -12  -3    3184     292
   1 -12  -3    3603     401
   1 -12  -4     933     207
   1 -12  -4    1148     283
   1 -12  -5    1328     205
   1 -12  -5    1169     329
   1 -12  -6       1     287
   1 -12  -7     310     264
  -1  12   7     214     286
   1 -12  -8       2     279
  -1  12   8     308     283
   1 -12  -9     123     291
  -1  12   9     460     290
   1 -12 -10     567     306
  -1  12  10      10     284
   1 -12 -11     431     276
  -1  12  11     299     331
   1 -12 -12     403     338
  -1  12  12       7     314
   1 -12 -13     347     319
  -1  12  13     294     312
   0 -11  13     658     346
   0 -11  12     416     320
   0 -11  11       8     302
   0 -11  10       4     228
   0 -11  10       4     226
   0 -11   9     197     246
   0 -11   9     371     248
   0 -11   8    2526     399
   0 -11   8    3773     388
   0 -11   7     543     284
   0 -11   7     475     263
   0 -11   6    2674     368
   0 -11   6    2982     320
   0 -11   5     834     298
   0 -11   5     949     293
   0 -11   4   11855     619
   0 -11   4   13591     609
   0 -11   3     569     245
   0 -11   3    1369     281
   0 -11   2     352     232
   0 -11   2     248     220
   0 -11   1    1123     275
   0 -11   1    1830     273
   0 -11   0    4479     326
   0 -11   0    3419     316
   0 -11  -1    1299     249
   0 -11  -1    1161     220
   0 -11  -2       1     225
   0 -11  -2     417     197
   0 -11  -3     993     199
   0 -11  -3     981     269
   0 -11  -4   12336     605
   0 -11  -4   12184     533
   0 -11  -5     841     204
   0 -11  -5     580     283
   0 -11  -6    2375     346
   0 -11  -7     891     277
   0  11   7     761     298
   0 -11  -8    2804     370
   0  11   8    2880     385
   0 -11  -9     762     277
   0  11   9       1     290
   0 -11 -10       3     269
   0  11  10       3     262
   0 -11 -11      49     249
   0  11  11       7     270
   0 -11 -12       2     257
   0  11  12     348     322
   0 -11 -13     169     269
   0  11  13     518     329
  -1 -10  14      41     310
  -1 -10  13     158     314
  -1 -10  12     133     310
  -1 -10  11       1     287
  -1 -10  10     431     262
  -1 -10   9     604     238
  -1 -10   9     372     256
  -1 -10   8    1048     276
  -1 -10   8    1156     339
  -1 -10   7     661     258
  -1 -10   7     512     298
  -1 -10   6    3662     352
  -1 -10   6    3168     391
  -1 -10   5    1478     277
  -1 -10   5    1124     298
  -1 -10   4    7501     432
  -1 -10   4    8261     501
  -1 -10   3    3927     357
  -1 -10   3    3904     377
  -1 -10   2    1057     232
  -1 -10   2     634     226
  -1 -10   1     784     234
  -1 -10   1     821     223
  -1 -10   0      60     163
  -1 -10   0      27     181
  -1 -10  -1     542     205
  -1 -10  -1       9      73
  -1 -10  -2    1094     214
  -1 -10  -2     686     239
  -1 -10  -3    3328     288
  -1 -10  -3    3723     366
  -1 -10  -4    7465     431
  -1 -10  -4    7161     394
  -1 -10  -5    1258     267
  -1 -10  -5    1035     213
  -1 -10  -6    3249     362
  -1 -10  -6    3861     277
  -1 -10  -7     435     251
   1  10   7      10     258
  -1 -10  -8     768     280
   1  10   8     863     312
  -1 -10  -9     312     290
   1  10   9     682     309
  -1 -10 -10     820     270
   1  10  10    1186     319
  -1 -10 -11       1     233
   1  10  11     154     296
  -1 -10 -12      85     258
   1  10  12      13     291
  -1 -10 -13     301     313
   1  10  13     101     313
  -1 -10 -14      10     315
  -2  -9  14     305     346
  -2  -9  13      15     293
  -2  -9  12     290     304
  -2  -9  11     504     307
  -2  -9  10     484     300
  -2  -9   9    1832     367
  -2  -9   9    1966     274
  -2  -9   8    2151     365
  -2  -9   8    2320     289
  -2  -9   7     320     285
  -2  -9   7     399     238
  -2  -9   6    6868     420
  -2  -9   6    7064     501
  -2  -9   5     231     207
  -2  -9   5     307     251
  -2  -9   4    3627     348
  -2  -9   4    3478     316
  -2  -9   3    9167     521
  -2  -9   3    9400     474
  -2  -9   2    1993     244
  -2  -9   2    1837     270
  -2  -9   1    1484     253
  -2  -9   1    1725     267
  -2  -9   0    1886     241
  -2  -9   0    2000     243
  -2  -9  -1    1016     191
  -2  -9  -1    1478     259
  -2  -9  -2    1668     256
  -2  -9  -2    2012     237
  -2  -9  -3    8672     480
  -2  -9  -3    8904     445
  -2  -9  -4    3939     347
  -2  -9  -4    3964     313
  -2  -9  -5      19     180
  -2  -9  -5     187     242
  -2  -9  -6    6487     363
  -2  -9  -6    6169     426
  -2  -9  -7     367     240
   2   9   7     378     272
  -2  -9  -8    1641     332
   2   9   8    1706     322
  -2  -9  -9    2636     380
   2   9   9    1658     326
  -2  -9 -10      47     269
   2   9  10      27     246
  -2  -9 -11     158     292
   2   9  11       4     271
  -2  -9 -12      87     251
   2   9  12     382     300
  -2  -9 -13      17     285
   2   9  13     521     312
  -2  -9 -14     690     300
  -3  -8  14     103     319
  -3  -8  13     196     311
  -3  -8  12     548     323
  -3  -8  11     119     285
  -3  -8  10     832     317
  -3  -8   9    1384     342
  -3  -8   8      72     210
  -3  -8   8      18     278
  -3  -8   7     440     291
  -3  -8   7     311     205
  -3  -8   6     898     301
  -3  -8   6    1025     233
  -3  -8   5     851     208
  -3  -8   5     833     258
  -3  -8   4     440     230
  -3  -8   4      70     172
  -3  -8   3    6290     327
  -3  -8   3    7036     400
  -3  -8   2    1180     201
  -3  -8   2     794     205
  -3  -8   1    1373     242
  -3  -8   1    1278     208
  -3  -8   0    2002     236
  -3  -8   0    2224     255
  -3  -8  -1    1137     227
  -3  -8  -1    1573     234
  -3  -8  -2     435     191
  -3  -8  -2     754     204
  -3  -8  -3    6122     342
  -3  -8  -3    6163     334
  -3  -8  -4     205     196
  -3  -8  -4     316     218
  -3  -8  -5     725     207
  -3  -8  -5     961     223
  -3  -8  -6     940     293
  -3  -8  -6    1346     224
  -3  -8  -7     454     173
  -3  -8  -7     421     233
   3   8   7     244     256
  -3  -8  -8       5     227
   3   8   8       5     247
  -3  -8  -9    1622     299
   3   8   9    1781     311
  -3  -8 -10     767     272
   3   8  10    1336     293
  -3  -8 -11       3     225
   3   8  11      14     263
  -3  -8 -12     191     303
   3   8  12     478     287
  -3  -8 -13      78     247
  -3  -8 -14      13     266
  -4  -7  14     125     309
  -4  -7  13     147     296
  -4  -7  12    1030     343
  -4  -7  11      15     273
  -4  -7  10    2131     366
  -4  -7   9      38     277
  -4  -7   8    1294     326
  -4  -7   7     543     286
  -4  -7   7     684     199
  -4  -7   6    3309     370
  -4  -7   6    2600     243
  -4  -7   5     363     239
  -4  -7   5     370     166
  -4  -7   4    1364     249
  -4  -7   4    1299     191
  -4  -7   3     445     237
  -4  -7   3     652     173
  -4  -7   2    4336     331
  -4  -7   2    4326     260
  -4  -7   1     833     218
  -4  -7   1     850     165
  -4  -7   0   22496     876
  -4  -7   0   21616     828
  -4  -7  -1     890     213
  -4  -7  -1     618     173
  -4  -7  -2    1702     156
  -4  -7  -3     343     206
  -4  -7  -3     392     177
  -4  -7  -4     808     217
  -4  -7  -4    1007     217
  -4  -7  -5     561     207
  -4  -7  -5     391     189
  -4  -7  -6    3036     294
  -4  -7  -6    2457     299
  -4  -7  -7     613     193
  -4  -7  -7     264     226
  -4  -7  -8     495     286
   4   7   8     618     259
  -4  -7  -9      35     231
   4   7   9      35     233
  -4  -7 -10    2017     326
   4   7  10    1997     307
  -4  -7 -11      14     224
   4   7  11      14     233
  -4  -7 -12     741     328
  -4  -7 -13       0     260
  -4  -7 -14     563     297
  -5  -6  14       9     312
  -5  -6  13     755     349
  -5  -6  12       9     281
  -5  -6  11     126     278
  -5  -6  10     172     283
  -5  -6   9      45     265
  -5  -6   8     184     240
  -5  -6   7    6738     493
  -5  -6   7    6612     336
  -5  -6   6    2524     214
  -5  -6   6    2681     345
  -5  -6   5    4353     382
  -5  -6   5    3563     235
  -5  -6   4     985     226
  -5  -6   4     798     150
  -5  -6   3      80     120
  -5  -6   3     234     177
  -5  -6   2    2145     191
  -5  -6   2    2317     275
  -5  -6   1    9114     423
  -5  -6   1    8969     498
  -5  -6   0    1655     256
  -5  -6   0    1603     216
  -5  -6  -1    8395     464
  -5  -6  -1    7925     412
  -5  -6  -2    2247     233
  -5  -6  -2    2177     255
  -5  -6  -3      67     129
  -5  -6  -3     130     174
  -5  -6  -4     701     209
  -5  -6  -4     599     212
  -5  -6  -5    4279     338
  -5  -6  -5    4347     354
  -5  -6  -6    2707     275
  -5  -6  -6    2344     289
  -5  -6  -7    7076     410
  -5  -6  -7    6951     438
  -5  -6  -8      90     195
  -5  -6  -8     121     226
   5   6   8     371     243
  -5  -6  -9      43     222
   5   6   9     350     244
  -5  -6 -10       2     225
   5   6  10       2     216
  -5  -6 -11     524     300
  -5  -6 -12      86     240
  -5  -6 -13     737     336
  -5  -6 -14      24     297
  -6  -5  14     343     348
  -6  -5  13     501     325
  -6  -5  12      10     289
  -6  -5  11       5     269
  -6  -5  10       3     262
  -6  -5   9      44     257
  -6  -5   8      15     267
  -6  -5   7    6541     486
  -6  -5   6    2165     321
  -6  -5   6    2605     177
  -6  -5   5    4040     213
  -6  -5   5    3739     350
  -6  -5   4     859     119
  -6  -5   4     904     242
  -6  -5   3     536     110
  -6  -5   3     423     212
  -6  -5   2    2277     257
  -6  -5   2    2258     180
  -6  -5   1    8244     470
  -6  -5   1    8735     399
  -6  -5   0    1773     282
  -6  -5   0    1622     199
  -6  -5  -1    9277     443
  -6  -5  -1    9173     505
  -6  -5  -2    2059     225
  -6  -5  -2    2569     281
  -6  -5  -3     112     182
  -6  -5  -3     281     163
  -6  -5  -4     550     203
  -6  -5  -4     535     199
  -6  -5  -5    4060     346
  -6  -5  -5    4065     345
  -6  -5  -6    2365     296
  -6  -5  -6    2738     294
  -6  -5  -7    6802     463
  -6  -5  -7    6471     412
  -6  -5  -8     270     234
  -6  -5  -8      14     205
  -6  -5  -9      43     261
  -6  -5  -9     432     213
   6   5   9     330     224
  -6  -5 -10       3     260
  -6  -5 -11       5     228
  -6  -5 -12     508     263
  -6  -5 -13     370     309
  -6  -5 -14     451     332
  -7  -4  14     281     346
  -7  -4  13       0     289
  -7  -4  12    1443     354
  -7  -4  11     136     277
  -7  -4  10    2231     361
  -7  -4   9      66     279
  -7  -4   8     970     279
  -7  -4   7     907     286
  -7  -4   6    3157     359
  -7  -4   5     384     211
  -7  -4   4    1131     106
  -7  -4   4    1002     261
  -7  -4   3     540     109
  -7  -4   3     587     238
  -7  -4   2    3311     287
  -7  -4   2    3359     184
  -7  -4   1     672     205
  -7  -4   1     721     132
  -7  -4   0   21342     783
  -7  -4   0   21649     879
  -7  -4  -1     909     227
  -7  -4  -1     890     170
  -7  -4  -2    3936     253
  -7  -4  -2    4120     320
  -7  -4  -3     326     181
  -7  -4  -3     580     225
  -7  -4  -4    1380     255
  -7  -4  -4    1065     223
  -7  -4  -5     489     185
  -7  -4  -5     244     213
  -7  -4  -6    2108     305
  -7  -4  -6    2569     304
  -7  -4  -7     765     273
  -7  -4  -7     338     256
  -7  -4  -8     733     249
  -7  -4  -8     548     245
  -7  -4  -9      35     231
  -7  -4  -9      88     235
  -7  -4 -10    1724     341
  -7  -4 -11      95     271
  -7  -4 -12    1344     316
  -7  -4 -13     157     255
  -7  -4 -14      31     263
  -8  -3  14      67     338
  -8  -3  13       8     288
  -8  -3  12     362     326
  -8  -3  11       2     268
  -8  -3  10    1583     342
  -8  -3   9    2005     343
  -8  -3   8     384     284
  -8  -3   7     620     280
  -8  -3   6     889     292
  -8  -3   5     812     264
  -8  -3   4     445     245
  -8  -3   3    6752     375
  -8  -3   3    6252     218
  -8  -3   2    1009     247
  -8  -3   2     644     113
  -8  -3   1    1153     148
  -8  -3   1    1126     255
  -8  -3   0    2371     200
  -8  -3   0    2117     270
  -8  -3  -1    1235     260
  -8  -3  -1    1376     178
  -8  -3  -2     721     245
  -8  -3  -2    1361     202
  -8  -3  -3    6109     385
  -8  -3  -3    6369     328
  -8  -3  -4       4     209
  -8  -3  -4     107     184
  -8  -3  -5     768     255
  -8  -3  -5     939     230
  -8  -3  -6     931     267
  -8  -3  -6     202     190
  -8  -3  -7     159     244
  -8  -3  -7      91     251
  -8  -3  -8       5     266
  -8  -3  -8     111     238
  -8  -3  -9    2273     320
  -8  -3  -9    1960     347
  -8  -3 -10    1255     282
  -8  -3 -10    1192     267
  -8  -3 -11       2     224
  -8  -3 -12     669     317
  -8  -3 -13       9     223
  -8  -3 -14     532     328
  -9  -2  14       3     306
  -9  -2  13     328     306
  -9  -2  12     309     325
  -9  -2  11     565     295
  -9  -2  10     179     274
  -9  -2   9    2412     370
  -9  -2   8    1766     330
  -9  -2   7     379     281
  -9  -2   6    6485     485
  -9  -2   5     153     254
  -9  -2   4    4040     379
  -9  -2   3    9129     510
  -9  -2   3    8387     312
  -9  -2   2    2113     300
  -9  -2   2    2130     151
  -9  -2   1    1329     166
  -9  -2   1    1071     275
  -9  -2   0    1910     279
  -9  -2   0    1846     171
  -9  -2  -1    1388     203
  -9  -2  -1    1504     265
  -9  -2  -2    1959     288
  -9  -2  -2    1667     205
  -9  -2  -3    8793     509
  -9  -2  -3    8633     442
  -9  -2  -4    3685     378
  -9  -2  -4    3320     295
  -9  -2  -5     163     208
  -9  -2  -5     488     245
  -9  -2  -6    5990     472
  -9  -2  -6    7100     447
  -9  -2  -7     477     256
  -9  -2  -8    1582     315
  -9  -2  -8    2675     349
  -9  -2  -9    2544     348
  -9  -2  -9    2183     325
  -9  -2 -10     367     244
  -9  -2 -10     495     252
  -9  -2 -11     458     264
  -9  -2 -12     218     284
  -9  -2 -13      60     262
  -9  -2 -14     335     282
 -10  -1  14     255     274
 -10  -1  14      10     333
 -10  -1  13       8     314
 -10  -1  12      24     322
 -10  -1  11      12     304
 -10  -1  10     886     301
 -10  -1   9     850     320
 -10  -1   8     765     306
 -10  -1   7     621     296
 -10  -1   6    3033     343
 -10  -1   5     854     273
 -10  -1   4    7384     451
 -10  -1   3    2989     335
  10   1  -3    3539     159
 -10  -1   2     943     121
 -10  -1   2     989     271
 -10  -1   1     748     135
 -10  -1   1     846     268
 -10  -1   0      61     123
 -10  -1   0      61     186
 -10  -1  -1     505     251
 -10  -1  -1     808     175
 -10  -1  -2     423     250
 -10  -1  -2     744     190
 -10  -1  -3    3610     302
 -10  -1  -3    3724     379
 -10  -1  -4    8296     503
 -10  -1  -4    7379     398
 -10  -1  -5     926     250
 -10  -1  -5    1361     291
 -10  -1  -6    4276     408
 -10  -1  -6    3453     339
 -10  -1  -7     267     261
 -10  -1  -7     576     279
 -10  -1  -8    1274     266
 -10  -1  -8     933     270
 -10  -1  -9     507     245
 -10  -1  -9     394     243
 -10  -1 -10     579     252
 -10  -1 -10    1015     278
 -10  -1 -11       1     263
 -10  -1 -11     547     267
 -10  -1 -12     304     266
 -10  -1 -13     157     278
 -10  -1 -14      11     301
 -11   0  13     536     282
 -11   0  13      96     306
 -11   0  12       2     314
 -11   0  11       6     286
 -11   0  10     138     279
 -11   0   9       1     268
 -11   0   8    3652     420
 -11   0   7     668     301
 -11   0   6    2780     352
 -11   0   5     961     306
 -11   0   4   13001     659
 -11   0   3    1241     289
  11   0  -3     858      97
 -11   0   2     349     107
 -11   0   2     204     252
 -11   0   1    1656     180
 -11   0   1    1140     266
 -11   0   0    3836     356
 -11   0   0    4114     238
 -11   0  -1    1475     280
 -11   0  -1    1324     205
 -11   0  -2     167     254
 -11   0  -2     184     163
 -11   0  -3     951     210
 -11   0  -3     962     286
 -11   0  -4   13398     673
 -11   0  -4   13434     602
 -11   0  -5    1297     306
 -11   0  -5    1098     258
 -11   0  -6    3055     337
 -11   0  -6    3435     390
 -11   0  -7     604     279
 -11   0  -7     909     331
 -11   0  -8    3004     365
 -11   0  -8    3540     419
 -11   0  -9       0     255
 -11   0  -9     601     283
 -11   0 -10       4     263
 -11   0 -11     504     274
 -11   0 -11       0     257
 -11   0 -12    1112     310
 -11   0 -12     638     321
 -11   0 -13       0     305
 -12   1  13      76     262
 -12   1  13     120     322
 -12   1  12     278     275
 -12   1  12     573     314
 -12   1  11       5     237
 -12   1  11     177     309
 -12   1  10      89     305
 -12   1   9     145     284
 -12   1   8       3     268
 -12   1   7      14     275
 -12   1   6     562     298
 -12   1   5    1610     334
 -12   1   4     906     308
 -12   1   3    3038     356
 -12   1   2     746     298
  12  -1  -2     685     134
 -12   1   1     756     153
 -12   1   1     331     266
 -12   1   0    5741     413
 -12   1   0    6117     318
 -12   1  -1    1080     300
 -12   1  -1     819     190
 -12   1  -2     244     186
 -12   1  -2     578     252
 -12   1  -3    3468     318
 -12   1  -3    3376     396
 -12   1  -4     950     249
 -12   1  -4    1072     310
 -12   1  -5    1480     324
 -12   1  -5    1353     249
 -12   1  -6      50     212
 -12   1  -6      74     306
 -12   1  -7     130     224
 -12   1  -7      16     279
 -12   1  -8     980     290
 -12   1  -8     461     290
 -12   1  -9      11     269
 -12   1  -9     203     236
 -12   1 -10     499     274
 -12   1 -10     138     278
 -12   1 -11      89     254
 -12   1 -11     357     260
 -12   1 -12     179     315
 -12   1 -12     802     255
 -12   1 -13     540     338
 -13   2  13      25     262
 -13   2  12     923     358
 -13   2  12     715     311
 -13   2  11      90     293
 -13   2  11     551     281
 -13   2  10     908     318
 -13   2  10    1384     309
 -13   2   9     127     230
 -13   2   9      37     276
 -13   2   8    1060     307
 -13   2   7     308     294
 -13   2   6      50     276
 -13   2   5     265     287
 -13   2   4     869     274
 -13   2   3     752     312
 -13   2   2    4624     449
  13  -2  -2    5129     296
 -13   2   1     951     303
  13  -2  -1     431     156
 -13   2   0    8282     427
 -13   2   0    8991     574
 -13   2  -1     580     287
 -13   2  -1     844     183
 -13   2  -2    4855     271
 -13   2  -2    4922     479
 -13   2  -2    5288     373
 -13   2  -3     608     296
 -13   2  -3     833     225
 -13   2  -4     607     229
 -13   2  -4     817     322
 -13   2  -5      32     285
 -13   2  -5      32     234
 -13   2  -6      51     246
 -13   2  -6     636     304
 -13   2  -7     213     305
 -13   2  -7     428     271
 -13   2  -8     551     302
 -13   2  -8      66     266
 -13   2  -9      34     270
 -13   2  -9      28     291
 -13   2 -10    1317     365
 -13   2 -10    1225     345
 -13   2 -11     485     318
 -13   2 -11     926     342
 -13   2 -12     924     333
 -13   2 -12    1022     317
 -13   2 -13      26     306
 -14   3  12     504     301
 -14   3  12      16     296
 -14   3  11     151     316
 -14   3  11     860     309
 -14   3  10      71     282
 -14   3  10     326     234
 -14   3   9     924     286
 -14   3   9     601     337
 -14   3   8      56     276
 -14   3   8     343     238
 -14   3   7     375     240
 -14   3   7     132     274
 -14   3   6     863     255
 -14   3   6     623     312
 -14   3   5     931     241
 -14   3   5     705     318
 -14   3   4       1     288
 -14   3   4     272     209
 -14   3   3    2355     367
 -14   3   2       3     280
 -14   3   2     129     184
  14  -3  -2       3     143
 -14   3   1     825     306
 -14   3   1     779     178
  14  -3  -1     359     159
 -14   3   0    4355     325
 -14   3   0    4110     444
  14  -3   0    4858     327
 -14   3  -1     324     145
 -14   3  -1     126     291
 -14   3  -1      74     169
 -14   3  -2     133     194
 -14   3  -2     333     294
 -14   3  -3    1961     320
 -14   3  -3    2086     274
 -14   3  -4     623     247
 -14   3  -4     140     297
 -14   3  -5     682     235
 -14   3  -5     783     332
 -14   3  -6     815     326
 -14   3  -6     729     247
 -14   3  -7     351     268
 -14   3  -7      23     280
 -14   3  -8     623     260
 -14   3  -8     432     302
 -14   3  -9    1815     376
 -14   3  -9     900     283
 -14   3 -10     574     337
 -14   3 -10       6     284
 -14   3 -11     917     327
 -14   3 -11     256     266
 -14   3 -12     324     287
 -14   3 -12     428     338
 -15   4  12     311     300
 -15   4  11     193     330
 -15   4  11      15     272
 -15   4  10     599     281
 -15   4  10     236     326
 -15   4   9    1053     322
 -15   4   9     380     263
 -15   4   8    1373     305
 -15   4   8     826     330
 -15   4   7     165     286
 -15   4   7      51     237
 -15   4   6      51     296
 -15   4   6       8     220
 -15   4   5       1     273
 -15   4   5      45     224
 -15   4   4    3163     414
 -15   4   4    3156     343
 -15   4   3    1383     255
 -15   4   3    1265     342
 -15   4   2      11     283
 -15   4   2      59     191
  15  -4  -2      11     164
 -15   4   1     391     195
 -15   4   1     322     300
  15  -4  -1     283     191
 -15   4   0    2050     238
 -15   4   0    2458     395
  15  -4   0    2615     275
 -15   4  -1     372     269
 -15   4  -1     444     175
  15  -4   1     567     205
 -15   4  -2      12     233
 -15   4  -2     138     221
 -15   4  -3    1804     361
 -15   4  -3     894     256
 -15   4  -4    3469     364
 -15   4  -4    3830     459
 -15   4  -5     179     212
 -15   4  -5     208     315
 -15   4  -6       8     241
 -15   4  -6     122     307
 -15   4  -7     469     312
 -15   4  -7     318     277
 -15   4  -8     546     304
 -15   4  -8     198     310
 -15   4  -9     465     322
 -15   4  -9      10     249
 -15   4 -10     309     270
 -15   4 -10     880     342
 -15   4 -11      49     325
 -15   4 -11     173     315
 -15   4 -12       5     318
 -15   4 -12     137     292
 -16   5  11     360     295
 -16   5  11       6     299
 -16   5  10     851     323
 -16   5  10     299     296
 -16   5   9       5     254
 -16   5   9     348     315
 -16   5   8     132     256
 -16   5   8     219     292
 -16   5   7       7     290
 -16   5   7       1     240
 -16   5   6     322     290
 -16   5   6      64     234
 -16   5   5     477     287
 -16   5   5     108     230
 -16   5   4     463     295
 -16   5   4     948     256
 -16   5   3     633     238
 -16   5   3     263     296
 -16   5   2    1475     312
 -16   5   2    1271     245
 -16   5   1      21     305
 -16   5   1     235     203
  16  -5  -1     112     193
 -16   5   0     512     325
 -16   5   0     277     192
  16  -5   0     382     219
 -16   5  -1      24     284
  16  -5   1     226     209
 -16   5  -2    1464     354
  16  -5   2    1324     236
 -16   5  -3     222     233
 -16   5  -3     334     306
 -16   5  -4    1094     340
 -16   5  -4    1041     274
 -16   5  -5     143     299
 -16   5  -5     412     259
 -16   5  -6     613     320
 -16   5  -6       6     259
 -16   5  -7     284     305
 -16   5  -7       8     263
 -16   5  -8     215     246
 -16   5  -8     109     311
 -16   5  -9     451     321
 -16   5  -9     516     271
 -16   5 -10     598     344
 -16   5 -10     941     342
 -16   5 -11      82     319
 -16   5 -11      49     316
 -17   6  11      44     290
 -17   6  10     235     299
 -17   6  10      80     316
 -17   6   9      17     276
 -17   6   9     557     305
 -17   6   8     582     314
 -17   6   8     529     279
 -17   6   7     166     262
 -17   6   7     110     298
 -17   6   6       1     231
 -17   6   6     500     317
 -17   6   5     171     276
 -17   6   5     134     252
 -17   6   4      15     130
 -17   6   4     127     285
 -17   6   3     232     229
 -17   6   3     599     303
 -17   6   2     151     292
 -17   6   2     157     201
 -17   6   1       2     188
 -17   6   1       2     239
  17  -6  -1     283     204
 -17   6   0     231     292
  17  -6   0       0     202
 -17   6  -1       2     275
  17  -6   1      88     200
 -17   6  -2       1     291
  17  -6   2     132     192
 -17   6  -3     770     321
  17  -6   3     284     250
 -17   6  -4     749     257
 -17   6  -4      16     297
  17  -6   4     693     243
 -17   6  -5      79     246
 -17   6  -5     468     297
 -17   6  -6     103     269
 -17   6  -6     650     288
 -17   6  -7     376     292
 -17   6  -7     491     319
 -17   6  -8      60     251
 -17   6  -8     343     309
 -17   6  -9     293     316
 -17   6  -9     294     317
 -17   6 -10      96     332
 -17   6 -10       6     261
 -17   6 -11       2     319
 -17   6 -11       2     275
 -18   7  10       1     280
 -18   7  10     536     322
 -18   7   9     370     294
 -18   7   9       8     273
 -18   7   8       4     273
 -18   7   8       4     272
 -18   7   7     202     277
 -18   7   7     455     304
 -18   7   6     865     291
 -18   7   6     928     316
 -18   7   5     271     241
 -18   7   5      84     271
 -18   7   4       3      87
 -18   7   4     217     295
 -18   7   3       4     220
 -18   7   3     167     288
 -18   7   2     494     300
 -18   7   2     313     225
 -18   7   1     303     285
 -18   7   0       0     285
  18  -7   0     129     217
 -18   7  -1     380     291
  18  -7   1     480     233
 -18   7  -2     368     318
  18  -7   2      14     152
 -18   7  -3      82     291
  18  -7   3      96     244
 -18   7  -4     167     300
  18  -7   4     383     253
 -18   7  -5       3     290
  18  -7   5     320     248
 -18   7  -6     468     343
 -18   7  -6     807     309
  18  -7   6     782     290
 -18   7  -7     456     359
 -18   7  -7     569     317
 -18   7  -8       4     321
 -18   7  -8     332     305
 -18   7  -9     393     335
 -18   7  -9       9     293
 -18   7 -10     322     341
 -18   7 -10     560     356
 -19   8   9     453     336
 -19   8   9      32     292
 -19   8   8     396     316
 -19   8   8      12     292
 -19   8   7     222     295
 -19   8   7       3     261
 -19   8   6     641     313
 -19   8   6    1074     357
 -19   8   5      23     229
 -19   8   5      23     318
 -19   8   4      27     270
 -19   8   4      27     198
 -19   8   3      10     225
 -19   8   3     153     290
 -19   8   2     240     288
 -19   8   1       6     238
 -19   8   0    1402     349
  19  -8   0    1828     311
 -19   8  -1     345     280
  19  -8   1       8     234
 -19   8  -2       1     292
  19  -8   2       1     108
 -19   8  -3     103     292
  19  -8   3      10     239
 -19   8  -4     214     314
  19  -8   4     168     251
 -19   8  -5      26     305
  19  -8   5     121     260
 -19   8  -6     906     375
  19  -8   6    1321     337
 -19   8  -7       3     334
  19  -8   7     173     286
 -19   8  -8      56     304
  19  -8   8     349     300
 -19   8  -9      30     317
 -19   8  -9     485     360
  19  -8   9     263     299
 -20   9   8     168     296
 -20   9   8      42     286
 -20   9   7     553     306
 -20   9   7      21     274
 -20   9   6     381     289
 -20   9   6     383     332
 -20   9   5     191     293
 -20   9   5      11     278
 -20   9   4      44     242
 -20   9   4     326     323
 -20   9   3       7     273
 -20   9   3       7     285
 -20   9   2     349     311
 -20   9   1     194     310
 -20   9   0     256     320
  20  -9   0     551     298
 -20   9  -1       9     260
  20  -9   1     849     300
 -20   9  -2     195     276
  20  -9   2       6      72
 -20   9  -3       7     288
  20  -9   3       7     272
 -20   9  -4      56     312
  20  -9   4      77     271
 -20   9  -5     232     320
  20  -9   5     147     244
 -20   9  -6     795     370
  20  -9   6     856     330
 -20   9  -7      21     315
  20  -9   7     145     261
 -20   9  -8     184     353
  20  -9   8     506     348
 -21  10   7     283     294
 -21  10   7      14     271
 -21  10   6     402     325
 -21  10   6       6     269
 -21  10   5      67     223
 -21  10   5     367     305
 -21  10   4      79     278
 -21  10   4      20     290
 -21  10   3     318     312
 -21  10   2     383     307
 -21  10   1     144     313
 -21  10   0     132     310
 -21  10  -1       0     287
  21 -10   1      57     284
 -21  10  -2       2     300
  21 -10   2       2      92
 -21  10  -3     264     327
  21 -10   3     388     288
 -21  10  -4     310     342
  21 -10   4     177     296
 -21  10  -5      67     304
  21 -10   5      67     295
 -21  10  -6     133     291
  21 -10   6      29     293
 -21  10  -7      10     344
  21 -10   7      13     292
 -22  11   5      25     297
 -22  11   4     275     312
 -22  11   3      28     307
 -22  11   2     467     320
 -22  11   1      29     299
 -22  11   0      26     310
 -22  11  -1      29     309
 -22  11  -2     631     299
  22 -11   2       1     139
 -22  11  -3      18     326
  22 -11   3     228     307
 -22  11  -4     161     341
  22 -11   4       9     283
 -22  11  -5      70     344
  22 -11   5      34     320
 -23  12   3     334     331
 -23  12   2     296     331
 -23  12   1      36     293
 -23  12   0     149     326
 -23  12  -1     117     332
 -23  12  -2     303     335
  23 -12   2      18     217
 -23  12  -3      82     334
  23 -12   3       5     304
  11 -23   3     599     375
  11 -23   2     387     363
  11 -23   1     173     406
  11 -23   0     419     415
  11 -23  -1       8     381
  11 -23  -2     287     395
  11 -23  -3       3     314
  10 -22   5       8     387
  10 -22   4      21     334
  10 -22   3     668     353
  10 -22   2       1     330
  10 -22   1       9     367
  10 -22   0     371     392
  10 -22  -1      14     344
  10 -22  -2       0     353
  10 -22  -3      14     284
  10 -22  -4      58     362
  10 -22  -5     205     380
   9 -21   7     184     338
   9 -21   6      19     322
   9 -21   5      57     381
   9 -21   4     186     334
   9 -21   3      93     335
   9 -21   2       8     379
   9 -21   1       1     372
   9 -21   0     350     368
   9 -21  -1     185     363
   9 -21  -2       7     305
   9 -21  -3      18     325
   9 -21  -4     580     377
   9 -21  -5     169     355
   9 -21  -6      91     309
   9 -21  -7       7     295
   8 -20   8      21     347
   8 -20   7     260     374
   8 -20   6      12     378
   8 -20   5       3     364
   8 -20   4       3     356
   8 -20   3      91     367
   8 -20   2       5     335
   8 -20   1     100     354
   8 -20   0     534     374
   8 -20  -1     248     305
   8 -20  -2       3     281
   8 -20  -3     144     344
   8 -20  -4     181     350
   8 -20  -5     142     347
   8 -20  -6      11     344
   8 -20  -7       4     343
   8 -20  -8     199     379
   7 -19   9       2     349
   7 -19   8      15     336
   7 -19   7       5     348
   7 -19   6     191     367
   7 -19   5       1     352
   7 -19   4       6     324
   7 -19   3      39     353
   7 -19   2       7     341
   7 -19   1     275     354
   7 -19   0     138     296
   7 -19  -1     292     250
   7 -19  -1     241     301
   7 -19  -2       6     275
   7 -19  -3     609     314
   7 -19  -4     513     307
   7 -19  -5     488     359
   7 -19  -6       2     329
   7 -19  -7     406     370
   7 -19  -8       9     346
   7 -19  -9       1     318
  -7  19   9       1     320
   6 -18  10     146     343
   6 -18   9       0     341
   6 -18   8      12     315
   6 -18   7     560     356
   6 -18   6     397     360
   6 -18   5     261     346
   6 -18   4      53     338
   6 -18   3     245     348
   6 -18   2     314     344
   6 -18   1     872     357
   6 -18   0     523     294
   6 -18  -1     618     302
   6 -18  -1     596     236
   6 -18  -2     269     233
   6 -18  -2     415     331
   6 -18  -3     736     370
   6 -18  -4     612     297
   6 -18  -5     472     335
   6 -18  -6     918     351
   6 -18  -7     486     314
   6 -18  -8      11     279
  -6  18   8     251     339
   6 -18  -9     146     295
  -6  18   9     193     340
   6 -18 -10     428     321
  -6  18  10      32     338
   5 -17  11       5     358
   5 -17  10      39     332
   5 -17   9     605     391
   5 -17   8     189     333
   5 -17   7      15     311
   5 -17   6     315     329
   5 -17   5     348     334
   5 -17   4     148     318
   5 -17   3    1802     403
   5 -17   2     737     359
   5 -17   1    1430     371
   5 -17   0    1080     357
   5 -17   0     554     125
   5 -17  -1     907     318
   5 -17  -1    1201     272
   5 -17  -2     310     230
   5 -17  -2       3     304
   5 -17  -3    1625     348
   5 -17  -4       4     297
   5 -17  -5      10     260
   5 -17  -6     153     320
   5 -17  -7     679     366
   5 -17  -8      80     281
  -5  17   8     349     347
   5 -17  -9     387     302
  -5  17   9     597     351
   5 -17 -10      86     282
  -5  17  10       5     317
   5 -17 -11     867     386
  -5  17  11     601     385
   4 -16  11     116     320
   4 -16  11      30     315
   4 -16  10      29     309
   4 -16   9     662     342
   4 -16   8     417     323
   4 -16   7       6     289
   4 -16   6      55     303
   4 -16   5     132     308
   4 -16   4       4     300
   4 -16   3    1095     368
   4 -16   2     939     366
   4 -16   2    1027     313
   4 -16   1     372     291
   4 -16   1     156     251
   4 -16   0      10     322
   4 -16  -1     332     286
   4 -16  -1     952     261
   4 -16  -2    1113     261
   4 -16  -2    1050     317
   4 -16  -3     823     236
   4 -16  -3     639     341
   4 -16  -4       5     303
   4 -16  -5     205     266
   4 -16  -6      55     289
   4 -16  -7       2     259
   4 -16  -8     726     305
  -4  16   8     370     332
   4 -16  -9     455     314
  -4  16   9     492     337
   4 -16 -10      28     257
  -4  16  10     118     310
   4 -16 -11     349     294
  -4  16  11     486     342
   3 -15  12      55     320
   3 -15  11      29     318
   3 -15  11     102     312
   3 -15  10     150     330
   3 -15  10       5     299
   3 -15   9     450     320
   3 -15   9     335     342
   3 -15   8     102     298
   3 -15   8     124     296
   3 -15   7     163     289
   3 -15   6    1018     335
   3 -15   5     569     281
   3 -15   4    1912     366
   3 -15   4    1033     347
   3 -15   3     609     328
   3 -15   3     778     301
   3 -15   2     506     286
   3 -15   2     293     313
   3 -15   1     136     267
   3 -15   1     620     255
   3 -15   0     456     278
   3 -15   0     116     149
   3 -15  -1     154     234
   3 -15  -1     556     278
   3 -15  -2     328     227
   3 -15  -2      41     268
   3 -15  -3     668     287
   3 -15  -3     676     224
   3 -15  -4    1248     325
   3 -15  -5     508     327
   3 -15  -6    1130     322
   3 -15  -7       9     288
   3 -15  -8     154     304
  -3  15   8     101     304
   3 -15  -9     132     276
  -3  15   9     226     314
   3 -15 -10       5     297
  -3  15  10     207     313
   3 -15 -11      30     305
  -3  15  11     160     327
   3 -15 -12       7     278
  -3  15  12      73     329
   2 -14  12     379     340
   2 -14  11     431     327
   2 -14  10     306     311
   2 -14  10     189     316
   2 -14   9     428     320
   2 -14   9       5     283
   2 -14   8      10     274
   2 -14   8      10     282
   2 -14   7    1713     364
   2 -14   7    1732     337
   2 -14   6     486     302
   2 -14   6     962     312
   2 -14   5     121     253
   2 -14   5     157     295
   2 -14   4     578     306
   2 -14   4     571     294
   2 -14   3      14     263
   2 -14   3     151     299
   2 -14   2     137     303
   2 -14   2      32     240
   2 -14   1    1961     358
   2 -14   1    1713     310
   2 -14   0       2     216
   2 -14   0     442     259
   2 -14  -1    1846     356
   2 -14  -1    1912     294
   2 -14  -2      33     277
   2 -14  -2      83     209
   2 -14  -3      81     258
   2 -14  -3     200     214
   2 -14  -4     286     208
   2 -14  -4       1     253
   2 -14  -5     254     319
   2 -14  -6     439     304
   2 -14  -7    1159     349
   2 -14  -8       9     240
  -2  14   8      23     295
   2 -14  -9       4     233
  -2  14   9      55     299
   2 -14 -10     672     342
  -2  14  10       5     290
   2 -14 -11     790     326
  -2  14  11     409     314
   2 -14 -12     407     337
  -2  14  12      20     309
   1 -13  13     126     321
   1 -13  12     835     353
   1 -13  11     397     284
   1 -13  10     274     269
   1 -13  10     242     304
   1 -13   9       5     259
   1 -13   9     236     298
   1 -13   8      67     281
   1 -13   8      20     284
   1 -13   7    1279     310
   1 -13   7    1612     362
   1 -13   6      49     287
   1 -13   6     282     276
   1 -13   5    1985     344
   1 -13   5    2103     334
   1 -13   4    1496     302
   1 -13   4    1517     323
   1 -13   3     288     278
   1 -13   3     238     269
   1 -13   2     880     279
   1 -13   2     619     288
   1 -13   1    3328     360
   1 -13   1    4061     404
   1 -13   0    5854     393
   1 -13   0    5249     405
   1 -13  -1    3504     407
   1 -13  -1    3961     351
   1 -13  -2    1177     240
   1 -13  -2     417     256
   1 -13  -3     352     214
   1 -13  -3     547     295
   1 -13  -4    1444     235
   1 -13  -4     896     325
   1 -13  -5    1767     360
   1 -13  -6     363     272
   1 -13  -7    1187     343
   1 -13  -8     862     311
  -1  13   8     810     307
   1 -13  -9       6     267
  -1  13   9     139     283
   1 -13 -10       2     247
  -1  13  10       2     312
   1 -13 -11     686     331
  -1  13  11     313     336
   1 -13 -12     146     315
  -1  13  12     379     348
  -1  13  13       7     301
   0 -12  13     211     347
   0 -12  12     695     354
   0 -12  11     505     324
   0 -12  10      25     275
   0 -12   9      18     287
   0 -12   9     151     277
   0 -12   8      61     236
   0 -12   8      56     293
   0 -12   7     393     301
   0 -12   7      15     267
   0 -12   6    4527     443
   0 -12   6    4635     482
   0 -12   5       3     240
   0 -12   5      44     282
   0 -12   4     141     280
   0 -12   4     103     268
   0 -12   3     582     268
   0 -12   3     664     275
   0 -12   2       1     233
   0 -12   2     249     243
   0 -12   1     257     214
   0 -12   1     134     225
   0 -12   0   10564     556
   0 -12   0   12390     589
   0 -12  -1     161     222
   0 -12  -1      79     211
   0 -12  -2       9     250
   0 -12  -2       1     210
   0 -12  -3     508     217
   0 -12  -3     195     234
   0 -12  -4     115     240
   0 -12  -4       0     195
   0 -12  -5     125     240
   0 -12  -5      62     205
   0 -12  -6    4631     473
   0 -12  -7    1127     316
   0 -12  -8     187     291
   0  12   8      47     278
   0 -12  -9      33     224
   0  12   9      33     246
   0 -12 -10     239     305
   0  12  10      23     273
   0 -12 -11     356     276
   0  12  11       4     290
   0 -12 -12    1110     327
   0  12  12     624     332
   0 -12 -13     107     287
   0  12  13      62     337
  -1 -11  13     310     329
  -1 -11  12     102     275
  -1 -11  11       5     305
  -1 -11  10      10     290
  -1 -11   9     312     252
  -1 -11   9     509     327
  -1 -11   8     494     255
  -1 -11   8      44     288
  -1 -11   7     398     261
  -1 -11   7      16     284
  -1 -11   6     500     248
  -1 -11   6     361     263
  -1 -11   5    1427     339
  -1 -11   5    1764     306
  -1 -11   4    1175     308
  -1 -11   4     896     281
  -1 -11   3    3383     375
  -1 -11   3    3060     340
  -1 -11   2     734     252
  -1 -11   2     764     264
  -1 -11   1     691     259
  -1 -11   1     349     229
  -1 -11   0    5982     406
  -1 -11   0    6093     404
  -1 -11  -1     750     250
  -1 -11  -2     728     233
  -1 -11  -2     696     225
  -1 -11  -3    3270     316
  -1 -11  -3    3336     382
  -1 -11  -4     748     288
  -1 -11  -4     886     229
  -1 -11  -5    1368     287
  -1 -11  -5    1334     240
  -1 -11  -6     458     298
  -1 -11  -7      16     236
  -1 -11  -8     580     260
   1  11   8     398     279
  -1 -11  -9     141     293
   1  11   9     143     263
  -1 -11 -10       9     269
   1  11  10     465     308
  -1 -11 -11       4     291
   1  11  11      11     301
  -1 -11 -12     846     349
   1  11  12     744     341
  -1 -11 -13     977     352
   1  11  13      14     280
  -2 -10  13     331     334
  -2 -10  12     721     332
  -2 -10  11       7     299
  -2 -10  10     494     317
  -2 -10   9     531     312
  -2 -10   8     284     232
  -2 -10   8     433     314
  -2 -10   7     181     255
  -2 -10   7     363     255
  -2 -10   6     388     258
  -2 -10   6     502     248
  -2 -10   5    2322     357
  -2 -10   5    2109     303
  -2 -10   4    1028     255
  -2 -10   4     816     284
  -2 -10   3    4999     405
  -2 -10   3    4603     367
  -2 -10   2     640     234
  -2 -10   2     548     229
  -2 -10   1      59     200
  -2 -10   1     187     208
  -2 -10   0     310     211
  -2 -10   0     404     217
  -2 -10  -1      17     143
  -2 -10  -1      17     200
  -2 -10  -2     857     243
  -2 -10  -2     392     205
  -2 -10  -3    4712     394
  -2 -10  -3    4071     341
  -2 -10  -4     883     279
  -2 -10  -4     749     236
  -2 -10  -5    1907     264
  -2 -10  -5    1942     308
  -2 -10  -6     105     192
  -2 -10  -6     438     248
  -2 -10  -7     242     293
  -2 -10  -8     184     248
   2  10   8     101     261
  -2 -10  -9     601     258
   2  10   9     265     264
  -2 -10 -10     552     270
   2  10  10     573     280
  -2 -10 -11     307     251
   2  10  11     246     297
  -2 -10 -12     496     333
   2  10  12     138     275
  -2 -10 -13     366     279
  -3  -9  14       4     319
  -3  -9  13     188     326
  -3  -9  12      33     281
  -3  -9  11      33     291
  -3  -9  10    1397     360
  -3  -9   9      87     298
  -3  -9   8    1229     347
  -3  -9   7    1910     274
  -3  -9   7    1938     357
  -3  -9   6    2742     291
  -3  -9   6    1875     340
  -3  -9   5    1760     260
  -3  -9   5    1629     318
  -3  -9   4    5971     376
  -3  -9   4    5717     466
  -3  -9   3    1701     288
  -3  -9   3    1858     249
  -3  -9   2    1644     293
  -3  -9   2    1897     268
  -3  -9   1    2960     306
  -3  -9   1    2748     277
  -3  -9   0     271     186
  -3  -9   0      53     195
  -3  -9  -1    2512     275
  -3  -9  -1    3082     297
  -3  -9  -2    1154     253
  -3  -9  -2    1570     247
  -3  -9  -3    1558     250
  -3  -9  -3    1611     250
  -3  -9  -4    5327     403
  -3  -9  -4    5680     431
  -3  -9  -5    1454     253
  -3  -9  -5    1708     301
  -3  -9  -6    2240     313
  -3  -9  -6    2563     270
  -3  -9  -7    2468     368
  -3  -9  -8     906     309
  -3  -9  -9      12     234
   3   9   9      45     260
  -3  -9 -10    1064     302
   3   9  10    1231     297
  -3  -9 -11     503     303
   3   9  11     193     286
  -3  -9 -12      83     302
   3   9  12     212     297
  -3  -9 -13     509     279
  -4  -8  14     341     349
  -4  -8  13     242     312
  -4  -8  12       0     301
  -4  -8  11       2     293
  -4  -8  10    1379     355
  -4  -8   9    2571     396
  -4  -8   8     546     314
  -4  -8   7    2802     264
  -4  -8   7    2673     376
  -4  -8   6    1219     230
  -4  -8   6    1328     317
  -4  -8   5    1301     222
  -4  -8   5    1342     316
  -4  -8   4    2046     283
  -4  -8   4    2596     242
  -4  -8   3    3691     273
  -4  -8   3    3006     336
  -4  -8   2    6477     420
  -4  -8   2    6442     348
  -4  -8   1    7120     421
  -4  -8   1    7040     368
  -4  -8   0      91     175
  -4  -8   0     220     208
  -4  -8  -1    6352     386
  -4  -8  -1    6702     360
  -4  -8  -2    5552     350
  -4  -8  -3    3765     314
  -4  -8  -3    3200     304
  -4  -8  -4    2370     272
  -4  -8  -4    3219     306
  -4  -8  -5     934     286
  -4  -8  -5     800     248
  -4  -8  -6    1097     244
  -4  -8  -6     785     277
  -4  -8  -7    2431     345
  -4  -8  -7    2739     269
  -4  -8  -8     735     271
  -4  -8  -9    2183     360
   4   8   9    2687     338
  -4  -8 -10     785     273
   4   8  10     900     290
  -4  -8 -11     453     264
   4   8  11      81     272
  -4  -8 -12     214     257
  -4  -8 -13     419     294
  -4  -8 -14     357     284
  -5  -7  14     122     358
  -5  -7  13      10     304
  -5  -7  12     482     325
  -5  -7  11     727     322
  -5  -7  10     135     275
  -5  -7   9    1450     320
  -5  -7   8     379     303
  -5  -7   7     315     292
  -5  -7   6    2149     217
  -5  -7   6    2222     351
  -5  -7   5    1648     322
  -5  -7   5    1575     202
  -5  -7   4     524     235
  -5  -7   4     404     168
  -5  -7   3    6836     347
  -5  -7   3    7662     464
  -5  -7   2     125     220
  -5  -7   2     132     144
  -5  -7   1    5743     344
  -5  -7   1    5685     428
  -5  -7   0    4049     324
  -5  -7   0    4213     283
  -5  -7  -1    6156     388
  -5  -7  -1    6439     436
  -5  -7  -2      17     169
  -5  -7  -2      78     224
  -5  -7  -3    6324     370
  -5  -7  -3    4097     320
  -5  -7  -4     337     231
  -5  -7  -4     432     229
  -5  -7  -5    1352     284
  -5  -7  -5    1390     278
  -5  -7  -6    2632     316
  -5  -7  -6    2198     294
  -5  -7  -7     869     245
  -5  -7  -7     884     256
  -5  -7  -8     415     290
  -5  -7  -9    1964     349
  -5  -7 -10     740     266
   5   7  10     423     258
  -5  -7 -11     181     243
  -5  -7 -12     926     337
  -5  -7 -13     387     319
  -5  -7 -14       1     261
  -6  -6  14       6     344
  -6  -6  13       0     306
  -6  -6  12     272     311
  -6  -6  11       4     271
  -6  -6  10      79     295
  -6  -6   9     590     307
  -6  -6   8      39     286
  -6  -6   7     478     299
  -6  -6   6    5495     468
  -6  -6   5    2969     375
  -6  -6   5    2688     218
  -6  -6   4    4680     234
  -6  -6   4    5333     396
  -6  -6   3    2007     297
  -6  -6   3    2237     192
  -6  -6   2    1070     251
  -6  -6   2     664     142
  -6  -6   1    8622     425
  -6  -6   1    9397     527
  -6  -6   0    1554     200
  -6  -6   0    2106     288
  -6  -6  -1    8715     439
  -6  -6  -1    8592     502
  -6  -6  -2     880     255
  -6  -6  -2     466     181
  -6  -6  -3    2202     264
  -6  -6  -3    2339     283
  -6  -6  -4    4676     339
  -6  -6  -4    4456     300
  -6  -6  -5    3467     353
  -6  -6  -5    2760     314
  -6  -6  -6    4895     418
  -6  -6  -6    5165     418
  -6  -6  -7     700     239
  -6  -6  -7     169     258
  -6  -6  -8     124     218
  -6  -6  -8      55     227
  -6  -6  -9     148     281
  -6  -6 -10     261     248
  -6  -6 -11      73     246
  -6  -6 -12     196     313
  -6  -6 -13     656     278
  -6  -6 -14     275     286
  -7  -5  14       1     306
  -7  -5  13     222     338
  -7  -5  12     384     316
  -7  -5  11      11     280
  -7  -5  10     183     292
  -7  -5   9    2229     366
  -7  -5   8     409     301
  -7  -5   7     895     306
  -7  -5   6    1517     329
  -7  -5   5    1614     287
  -7  -5   4     449     258
  -7  -5   4     403     112
  -7  -5   3    6497     288
  -7  -5   3    6243     448
  -7  -5   2      16     117
  -7  -5   2      23     227
  -7  -5   1    6170     332
  -7  -5   1    5591     416
  -7  -5   0    4316     346
  -7  -5   0    4332     258
  -7  -5  -1    5688     443
  -7  -5  -1    6337     372
  -7  -5  -2     257     223
  -7  -5  -2      16     156
  -7  -5  -3    6538     433
  -7  -5  -3    7229     388
  -7  -5  -4     100     142
  -7  -5  -4     290     211
  -7  -5  -5    1734     285
  -7  -5  -5    1301     291
  -7  -5  -6    1744     297
  -7  -5  -6    1902     307
  -7  -5  -7     446     242
  -7  -5  -7     457     271
  -7  -5  -8     132     268
  -7  -5  -8      10     231
  -7  -5  -9    1964     293
  -7  -5  -9    1607     343
  -7  -5 -10      55     270
  -7  -5 -11     760     302
  -7  -5 -12     866     325
  -7  -5 -13     806     329
  -7  -5 -14       1     285
  -8  -4  14       1     341
  -8  -4  13     275     312
  -8  -4  12     114     323
  -8  -4  11     346     300
  -8  -4  10    1233     347
  -8  -4   9    2776     385
  -8  -4   8     517     305
  -8  -4   7    2290     356
  -8  -4   6     993     272
  -8  -4   5    1237     316
  -8  -4   4    2570     129
  -8  -4   4    1940     280
  -8  -4   3    3315     179
  -8  -4   3    3551     357
  -8  -4   2    5973     266
  -8  -4   2    6808     432
  -8  -4   1    6827     437
  -8  -4   1    6879     306
  -8  -4   0      23     213
  -8  -4   0      40     133
  -8  -4  -1    7613     450
  -8  -4  -1    6717     345
  -8  -4  -2    6624     345
  -8  -4  -2    6669     433
  -8  -4  -3    3295     276
  -8  -4  -3    2867     333
  -8  -4  -4    2467     271
  -8  -4  -4    2423     306
  -8  -4  -5    1165     244
  -8  -4  -5     537     179
  -8  -4  -6    1314     292
  -8  -4  -6     915     246
  -8  -4  -7    2469     336
  -8  -4  -7    2455     332
  -8  -4  -8    1047     308
  -8  -4  -8     995     285
  -8  -4  -9    2561     325
  -8  -4  -9    2844     358
  -8  -4 -10     907     311
  -8  -4 -11     174     243
  -8  -4 -12     337     311
  -8  -4 -13     451     286
  -8  -4 -14       0     265
  -9  -3  13     198     336
  -9  -3  12      32     273
  -9  -3  11      87     284
  -9  -3  10    1281     346
  -9  -3   9     140     286
  -9  -3   8     762     316
  -9  -3   7    2389     376
  -9  -3   6    1965     341
  -9  -3   5    1973     340
  -9  -3   4    6373     492
  -9  -3   3    1762     135
  -9  -3   3    2114     322
  -9  -3   2    1001     288
  -9  -3   2    1687     164
  -9  -3   1    2526     315
  -9  -3   1    2583     192
  -9  -3   0       4     234
  -9  -3   0       4     125
  -9  -3  -1    2844     234
  -9  -3  -1    2535     317
  -9  -3  -2    1740     235
  -9  -3  -2    1760     310
  -9  -3  -3    1472     295
  -9  -3  -3    1753     238
  -9  -3  -4    5718     444
  -9  -3  -4    5598     388
  -9  -3  -5    1501     271
  -9  -3  -5    1945     337
  -9  -3  -6    2092     318
  -9  -3  -6    1493     267
  -9  -3  -7    1840     344
  -9  -3  -7    1782     294
  -9  -3  -8    1043     304
  -9  -3  -8    1194     307
  -9  -3  -9     316     274
  -9  -3  -9     172     277
  -9  -3 -10    1617     317
  -9  -3 -10     975     324
  -9  -3 -11     125     286
  -9  -3 -12      32     280
  -9  -3 -13     616     287
 -10  -2  13      14     334
 -10  -2  12       8     281
 -10  -2  11     186     324
 -10  -2  10     574     310
 -10  -2   9     442     299
 -10  -2   8      89     296
 -10  -2   7     293     294
 -10  -2   6     469     260
 -10  -2   5    1833     313
 -10  -2   4     840     296
 -10  -2   3    4436     415
 -10  -2   3    4657     202
 -10  -2   2     914     277
 -10  -2   2     708     121
 -10  -2   1     140     125
 -10  -2   1     354     251
 -10  -2   0     361     151
 -10  -2   0     489     234
 -10  -2  -1     268     153
 -10  -2  -1     241     248
 -10  -2  -2     637     186
 -10  -2  -2     837     276
 -10  -2  -3    4587     325
 -10  -2  -3    4303     399
 -10  -2  -4     857     294
 -10  -2  -4     730     231
 -10  -2  -5    2027     297
 -10  -2  -5    2419     355
 -10  -2  -6     313     222
 -10  -2  -6     332     274
 -10  -2  -7       3     253
 -10  -2  -7     323     268
 -10  -2  -8     147     160
 -10  -2  -8      20     211
 -10  -2  -9     570     280
 -10  -2  -9     442     253
 -10  -2 -10     523     304
 -10  -2 -10     324     284
 -10  -2 -11     407     256
 -10  -2 -12       7     240
 -10  -2 -13     164     312
 -11  -1  13     124     350
 -11  -1  12     366     320
 -11  -1  11     146     302
 -11  -1  10       9     279
 -11  -1   9     460     303
 -11  -1   8       3     272
 -11  -1   7      16     288
 -11  -1   6      75     286
 -11  -1   5     756     305
 -11  -1   4     878     314
 -11  -1   3    2584     343
 -11  -1   2     635     265
 -11  -1   2     842     138
 -11  -1   1     598     287
 -11  -1   1     917     156
 -11  -1   0    6441     317
 -11  -1   0    5706     414
 -11  -1  -1    1089     303
 -11  -1  -1     875     189
 -11  -1  -2     690     206
 -11  -1  -2     628     293
 -11  -1  -3    3215     393
 -11  -1  -3    3810     335
 -11  -1  -4     930     238
 -11  -1  -4     803     314
 -11  -1  -5    1110     243
 -11  -1  -5     844     299
 -11  -1  -6     595     267
 -11  -1  -6     467     288
 -11  -1  -7     326     276
 -11  -1  -7      16     255
 -11  -1  -8      55     252
 -11  -1  -8     167     224
 -11  -1  -9     291     283
 -11  -1 -10       9     266
 -11  -1 -10     251     272
 -11  -1 -11     405     287
 -11  -1 -11       6     281
 -11  -1 -12     194     269
 -11  -1 -13     260     316
 -12   0  13      24     287
 -12   0  13     147     273
 -12   0  12       2     301
 -12   0  11       0     294
 -12   0  10      83     283
 -12   0   9      32     273
 -12   0   8       5     280
 -12   0   7     341     286
 -12   0   6    4753     475
 -12   0   5     115     294
 -12   0   4     219     254
 -12   0   3     341     296
 -12   0   2       1     282
 -12   0   2      24     114
 -12   0   1     601     281
 -12   0   1     311     145
 -12   0   0   12051     643
 -12   0   0   11923     505
 -12   0  -1     127     171
 -12   0  -1       1     271
 -12   0  -2       1     262
 -12   0  -2       1     167
 -12   0  -3     642     306
 -12   0  -3     331     204
 -12   0  -4       9     204
 -12   0  -4       9     264
 -12   0  -5       3     222
 -12   0  -5     101     289
 -12   0  -6    4143     464
 -12   0  -6    3887     398
 -12   0  -7     555     231
 -12   0  -7     198     294
 -12   0  -8      59     270
 -12   0  -8      63     223
 -12   0  -9     221     293
 -12   0  -9      42     231
 -12   0 -10     297     304
 -12   0 -10      25     256
 -12   0 -11       8     294
 -12   0 -11     537     226
 -12   0 -12     499     332
 -12   0 -13      25     301
 -13   1  13     405     299
 -13   1  13       7     312
 -13   1  12     244     317
 -13   1  12     600     292
 -13   1  11     120     254
 -13   1  11     435     351
 -13   1  10     375     334
 -13   1   9       6     290
 -13   1   8     774     309
 -13   1   7    1112     331
 -13   1   6     178     303
 -13   1   5    2422     372
 -13   1   4    1186     337
 -13   1   3     633     310
 -13   1   2     273     301
  13  -1  -2     763     138
 -13   1   1    3150     250
 -13   1   1    3322     371
 -13   1   0    5291     308
 -13   1   0    5872     436
 -13   1  -1    3746     421
 -13   1  -1    3415     296
 -13   1  -2     704     214
 -13   1  -2     388     303
 -13   1  -3     316     206
 -13   1  -3     200     259
 -13   1  -4    1553     342
 -13   1  -4    1732     283
 -13   1  -5    1633     338
 -13   1  -5    1498     249
 -13   1  -6     167     292
 -13   1  -6     328     225
 -13   1  -7     626     285
 -13   1  -7    1695     368
 -13   1  -8      20     224
 -13   1  -8     453     303
 -13   1  -9       4     245
 -13   1  -9       4     264
 -13   1 -10       2     269
 -13   1 -10     101     304
 -13   1 -11     671     293
 -13   1 -11     746     334
 -13   1 -12     495     342
 -14   2  12      92     273
 -14   2  12      22     298
 -14   2  11     527     343
 -14   2  11     553     251
 -14   2  10     468     337
 -14   2  10       5     244
 -14   2   9     165     240
 -14   2   9      52     284
 -14   2   8      29     281
 -14   2   7    1436     347
 -14   2   6     353     289
 -14   2   5     558     316
 -14   2   4     240     305
 -14   2   3     510     315
 -14   2   2     103     258
 -14   2   1    1916     362
  14  -2  -1    1867     216
 -14   2   0       2     245
 -14   2   0     291     178
 -14   2  -1    2027     258
 -14   2  -1    1402     186
 -14   2  -1    1282     310
 -14   2  -2      34     208
 -14   2  -2     123     307
 -14   2  -3       7     289
 -14   2  -3     448     224
 -14   2  -4     233     311
 -14   2  -4     589     244
 -14   2  -5     528     263
 -14   2  -5     372     316
 -14   2  -6      16     249
 -14   2  -6      16     269
 -14   2  -7    1712     372
 -14   2  -7    1291     285
 -14   2  -8       5     267
 -14   2  -8     106     289
 -14   2  -9     208     246
 -14   2  -9       4     310
 -14   2 -10     702     346
 -14   2 -10     176     311
 -14   2 -11     419     294
 -14   2 -11     322     310
 -14   2 -12     304     303
 -14   2 -12      76     325
 -15   3  12      14     268
 -15   3  12      14     326
 -15   3  11      41     274
 -15   3  11      18     327
 -15   3  10     215     274
 -15   3  10     355     325
 -15   3   9      98     255
 -15   3   9     167     325
 -15   3   8     261     263
 -15   3   8      24     292
 -15   3   7     184     288
 -15   3   7      77     227
 -15   3   6    1143     331
 -15   3   6     844     260
 -15   3   5     493     316
 -15   3   5     762     247
 -15   3   4    1161     349
 -15   3   4    1833     276
 -15   3   3     915     299
 -15   3   3     719     228
 -15   3   2      38     305
 -15   3   2     101     187
 -15   3   1     890     323
 -15   3   1     246     190
  15  -3  -1     290     166
 -15   3   0     831     326
 -15   3   0     664     184
  15  -3   0     676     202
 -15   3  -1     337     210
 -15   3  -1     767     334
 -15   3  -2      42     298
 -15   3  -2     623     232
 -15   3  -3       2     290
 -15   3  -3     597     251
 -15   3  -4    1690     298
 -15   3  -4    1127     358
 -15   3  -5     580     335
 -15   3  -5     459     263
 -15   3  -6    1633     323
 -15   3  -6    1363     364
 -15   3  -7     346     233
 -15   3  -7     177     289
 -15   3  -8      85     304
 -15   3  -8     187     279
 -15   3  -9     164     311
 -15   3  -9     299     264
 -15   3 -10     404     330
 -15   3 -10     247     313
 -15   3 -11      73     301
 -15   3 -11     166     284
 -15   3 -12     218     343
 -15   3 -12      23     285
 -16   4  11      11     299
 -16   4  11     243     286
 -16   4  10     540     277
 -16   4  10     220     311
 -16   4   9     764     355
 -16   4   9     708     297
 -16   4   8     111     295
 -16   4   8     251     255
 -16   4   7     389     251
 -16   4   7     189     293
 -16   4   6      65     235
 -16   4   6      57     281
 -16   4   5     270     228
 -16   4   5     197     294
 -16   4   4       5     289
 -16   4   4     187     193
 -16   4   3    1102     259
 -16   4   3    1340     361
 -16   4   2    1211     355
 -16   4   2    1344     255
 -16   4   1     582     271
 -16   4   1     251     184
  16  -4  -1     233     187
 -16   4   0     148     175
 -16   4   0     121     269
  16  -4   0     300     189
 -16   4  -1     262     312
  16  -4   1     426     214
 -16   4  -2    1132     263
 -16   4  -2     729     292
 -16   4  -3     595     248
 -16   4  -3     319     317
 -16   4  -4     317     267
 -16   4  -4     353     247
 -16   4  -5     193     300
 -16   4  -5       3     234
 -16   4  -6     311     264
 -16   4  -6      52     283
 -16   4  -7     276     272
 -16   4  -7     130     301
 -16   4  -8      96     331
 -16   4  -8       2     277
 -16   4  -9      10     251
 -16   4  -9     829     348
 -16   4 -10     470     321
 -16   4 -10     275     275
 -16   4 -11     736     342
 -16   4 -11     587     334
 -17   5  11     355     319
 -17   5  11       6     284
 -17   5  10       5     270
 -17   5  10     147     306
 -17   5   9    1259     373
 -17   5   9     705     322
 -17   5   8     172     260
 -17   5   8     246     333
 -17   5   7     439     307
 -17   5   7     152     253
 -17   5   6       0     223
 -17   5   6       0     292
 -17   5   5     112     288
 -17   5   5      10     215
 -17   5   4      54      76
 -17   5   4       9     281
 -17   5   3    1510     276
 -17   5   3    1569     363
 -17   5   2     394     305
 -17   5   2     134     201
 -17   5   1    1255     360
 -17   5   1    1029     232
 -17   5   0     665     274
  17  -5   0     535     232
 -17   5  -1     485     276
  17  -5   1    1152     249
 -17   5  -2     212     304
  17  -5   2     351     227
 -17   5  -3    1471     372
 -17   5  -3    1208     284
  17  -5   3    1363     262
 -17   5  -4       4     228
 -17   5  -4      13     291
 -17   5  -5      28     254
 -17   5  -5      10     292
 -17   5  -6       0     264
 -17   5  -6     398     311
 -17   5  -7      78     287
 -17   5  -7     704     337
 -17   5  -8      78     324
 -17   5  -8     240     306
 -17   5  -9     606     299
 -17   5  -9     820     355
 -17   5 -10     211     331
 -17   5 -10     153     326
 -17   5 -11     367     345
 -18   6  10     718     316
 -18   6  10     728     319
 -18   6   9       0     277
 -18   6   9      87     321
 -18   6   8      11     266
 -18   6   8     143     328
 -18   6   7     520     313
 -18   6   7     879     320
 -18   6   6     351     332
 -18   6   6     426     258
 -18   6   5     297     301
 -18   6   5     151     258
 -18   6   4      12     168
 -18   6   4     809     306
 -18   6   3     646     320
 -18   6   3     503     240
 -18   6   2     283     307
 -18   6   2       9     203
 -18   6   1     390     300
 -18   6   0       2     275
  18  -6   0       2     203
 -18   6  -1     707     313
  18  -6   1     788     251
 -18   6  -2     391     300
  18  -6   2      10     206
 -18   6  -3     694     324
  18  -6   3     424     248
 -18   6  -4     504     330
  18  -6   4     784     255
 -18   6  -5       6     264
 -18   6  -5     176     264
 -18   6  -6     386     329
 -18   6  -6     113     241
 -18   6  -7     594     331
 -18   6  -7     808     324
 -18   6  -8     177     303
 -18   6  -8      11     319
 -18   6  -9       0     308
 -18   6  -9       0     314
 -18   6 -10     473     370
 -18   6 -10       5     272
 -19   7   9       1     320
 -19   7   9      70     296
 -19   7   8      15     286
 -19   7   8      15     298
 -19   7   7     115     298
 -19   7   7     596     295
 -19   7   6     567     278
 -19   7   6     581     312
 -19   7   5      76     261
 -19   7   5     538     321
 -19   7   4     337     246
 -19   7   4     361     307
 -19   7   3       9     229
 -19   7   3     686     329
 -19   7   2     123     253
 -19   7   1     319     307
 -19   7   0      55     299
 -19   7  -1     320     312
  19  -7   1     106     244
 -19   7  -2     616     324
  19  -7   2     413     244
 -19   7  -3      97     310
  19  -7   3     144     229
 -19   7  -4       5     309
  19  -7   4     270     269
 -19   7  -5     290     334
  19  -7   5     581     290
 -19   7  -6     290     284
  19  -7   6     121     267
 -19   7  -7     461     344
 -19   7  -7       6     292
  19  -7   7     617     302
 -19   7  -8     525     354
 -19   7  -8      15     306
 -19   7  -9       2     258
 -19   7  -9     526     347
 -20   8   8      17     288
 -20   8   8     168     302
 -20   8   7       4     267
 -20   8   7     176     301
 -20   8   6      56     307
 -20   8   6      74     285
 -20   8   5       3     229
 -20   8   5     191     307
 -20   8   4      25     269
 -20   8   4      25     258
 -20   8   3     190     290
 -20   8   2       4     276
 -20   8   1     880     328
 -20   8   0       1     260
 -20   8  -1       8     301
  20  -8   1       8     221
 -20   8  -2     230     273
  20  -8   2     145     276
 -20   8  -3       1     310
  20  -8   3     352     269
 -20   8  -4      35     316
  20  -8   4      25     251
 -20   8  -5     157     327
  20  -8   5     190     276
 -20   8  -6     119     341
  20  -8   6      74     272
 -20   8  -7     802     380
  20  -8   7     585     324
 -20   8  -8      86     355
  20  -8   8     160     265
 -21   9   7       6     273
 -21   9   7       6     316
 -21   9   6      19     313
 -21   9   6      18     269
 -21   9   5     124     304
 -21   9   5       6      97
 -21   9   4     441     315
 -21   9   3     132     301
 -21   9   2       8     298
 -21   9   1       1     286
 -21   9   0       5     303
 -21   9  -1     110     311
 -21   9  -2     461     337
  21  -9   2      18     273
 -21   9  -3      19     309
  21  -9   3     131     306
 -21   9  -4      56     310
  21  -9   4     194     283
 -21   9  -5     300     331
  21  -9   5     106     276
 -21   9  -6     464     364
  21  -9   6      36     299
 -21   9  -7     226     353
  21  -9   7      81     304
 -22  10   5     117     316
 -22  10   4      40     316
 -22  10   3     204     313
 -22  10   2     112     324
 -22  10   1      14     306
 -22  10   0       1     319
 -22  10  -1      30     318
 -22  10  -2     145     311
  22 -10   2       0     266
 -22  10  -3     828     352
  22 -10   3     276     280
 -22  10  -4     257     348
  22 -10   4     176     320
 -22  10  -5     440     364
  22 -10   5       8     308
 -23  11   3     107     322
 -23  11   2     292     338
 -23  11   1      25     329
 -23  11   0     179     332
 -23  11  -1       4     329
 -23  11  -2      15     333
 -23  11  -3       3     278
  23 -11   3       3     322
  10 -23   3       4     396
  10 -23   2     265     412
  10 -23   1      78     339
  10 -23   0       4     381
  10 -23  -1       8     326
  10 -23  -2     440     348
   9 -22   5      44     387
   9 -22   4     873     421
   9 -22   3       8     316
   9 -22   2     428     397
   9 -22   1     316     380
   9 -22   0       5     376
   9 -22  -1       5     343
   9 -22  -2      10     342
   9 -22  -3       5     362
   9 -22  -4     107     314
   9 -22  -5     126     368
   8 -21   7       1     392
   8 -21   6     182     386
   8 -21   5     407     382
   8 -21   4      27     370
   8 -21   3     264     377
   8 -21   2      16     315
   8 -21   1     154     373
   8 -21   0     114     366
   8 -21  -1       8     338
   8 -21  -2      15     289
   8 -21  -3      68     358
   8 -21  -4       3     303
   8 -21  -5     575     376
   8 -21  -6     123     358
   8 -21  -7      81     304
   7 -20   8       4     373
   7 -20   7     114     381
   7 -20   6     246     385
   7 -20   5      25     347
   7 -20   4     272     322
   7 -20   3      21     351
   7 -20   2     304     327
   7 -20   1      30     298
   7 -20   0    1043     296
   7 -20   0     620     329
   7 -20  -1      58     355
   7 -20  -1       6     254
   7 -20  -2     187     299
   7 -20  -3      21     333
   7 -20  -4     248     356
   7 -20  -5     101     335
   7 -20  -6      92     295
   7 -20  -7       3     300
   7 -20  -8     137     354
   6 -19   9     159     385
   6 -19   8      11     324
   6 -19   7     109     363
   6 -19   6    1207     386
   6 -19   5     790     384
   6 -19   4      17     277
   6 -19   3    1878     430
   6 -19   2     240     360
   6 -19   1     252     291
   6 -19   1     313     349
   6 -19   0     461     310
   6 -19   0     557     264
   6 -19  -1      52     344
   6 -19  -1     391     258
   6 -19  -2     119     328
   6 -19  -3    1300     395
   6 -19  -4     183     333
   6 -19  -5     292     288
   6 -19  -6     233     287
   6 -19  -7     309     316
   6 -19  -8      10     315
   6 -19  -9     825     386
   5 -18  10      42     341
   5 -18  10     397     301
   5 -18   9       7     335
   5 -18   8     648     360
   5 -18   7     340     352
   5 -18   6     627     361
   5 -18   5      13     321
   5 -18   4    1157     338
   5 -18   3     769     312
   5 -18   3     766     314
   5 -18   2    1123     308
   5 -18   2     329     335
   5 -18   1     127     324
   5 -18   1     223     256
   5 -18   0    1180     368
   5 -18   0     773     204
   5 -18  -1      14     317
   5 -18  -1      14     234
   5 -18  -2     832     348
   5 -18  -2    1194     294
   5 -18  -3     240     323
   5 -18  -4     991     361
   5 -18  -5     688     340
   5 -18  -6     496     348
   5 -18  -7     394     352
   5 -18  -8     268     339
   5 -18  -9     338     309
   5 -18 -10     248     299
  -5  18  10     356     363
   4 -17  10     900     370
   4 -17  10     568     348
   4 -17   9     432     324
   4 -17   9     508     367
   4 -17   8     249     324
   4 -17   8     154     358
   4 -17   7     526     339
   4 -17   7     831     367
   4 -17   6      80     307
   4 -17   6     169     331
   4 -17   5     358     319
   4 -17   5     177     252
   4 -17   4     164     277
   4 -17   4     246     329
   4 -17   3    1036     344
   4 -17   3     568     294
   4 -17   2    1481     373
   4 -17   2    1849     338
   4 -17   1    1286     325
   4 -17   1    1445     360
   4 -17   0     271      75
   4 -17   0       1     292
   4 -17  -1    1520     362
   4 -17  -1    1071     283
   4 -17  -2    1725     300
   4 -17  -2    1086     365
   4 -17  -3     238     280
   4 -17  -4      12     254
   4 -17  -5     316     309
   4 -17  -6      21     313
   4 -17  -7     382     342
   4 -17  -8       1     311
   4 -17  -9     495     307
   4 -17 -10     424     303
  -4  17  10     329     347
   3 -16  11     478     348
   3 -16  10      63     344
   3 -16  10     372     340
   3 -16   9     178     276
   3 -16   9     112     307
   3 -16   8     330     327
   3 -16   8     309     312
   3 -16   7     127     302
   3 -16   7     137     315
   3 -16   6     611     319
   3 -16   6     660     330
   3 -16   5      24     279
   3 -16   5      64     296
   3 -16   4     161     277
   3 -16   4       2     305
   3 -16   3    1391     335
   3 -16   3    1468     366
   3 -16   2     264     272
   3 -16   2       4     264
   3 -16   1     267     325
   3 -16   1     192     265
   3 -16   0     293     138
   3 -16   0     788     346
   3 -16  -1     170     265
   3 -16  -1     122     238
   3 -16  -2     386     248
   3 -16  -2     208     319
   3 -16  -3     830     300
   3 -16  -3    1278     262
   3 -16  -4      31     293
   3 -16  -5      23     288
   3 -16  -6     343     315
   3 -16  -7      21     249
   3 -16  -8     378     333
   3 -16  -9     260     332
  -3  16   9     231     332
   3 -16 -10     212     303
  -3  16  10      18     328
   3 -16 -11     368     364
  -3  16  11       8     346
   2 -15  11      26     325
   2 -15  10      81     313
   2 -15  10       3     299
   2 -15   9      50     302
   2 -15   9      29     311
   2 -15   8      16     298
   2 -15   8     219     293
   2 -15   7     717     329
   2 -15   7     478     308
   2 -15   6     829     315
   2 -15   6    1283     346
   2 -15   5     435     304
   2 -15   5     969     312
   2 -15   4     798     315
   2 -15   4     710     310
   2 -15   3     125     297
   2 -15   3     322     288
   2 -15   2     799     325
   2 -15   2     701     305
   2 -15   1    1543     316
   2 -15   1    1955     327
   2 -15   0      96     204
   2 -15   0     142     305
   2 -15  -1    1649     300
   2 -15  -1    1791     368
   2 -15  -2     717     252
   2 -15  -2     648     295
   2 -15  -3       6     217
   2 -15  -3     240     310
   2 -15  -4     669     278
   2 -15  -5     857     330
   2 -15  -6    1449     349
   2 -15  -7     928     348
   2 -15  -8     422     328
   2 -15  -9       3     253
  -2  15   9     351     327
   2 -15 -10     353     275
  -2  15  10     512     355
   2 -15 -11     151     323
  -2  15  11      98     323
   1 -14  12     398     353
   1 -14  11      64     281
   1 -14  10     114     321
   1 -14   9      55     310
   1 -14   9     352     306
   1 -14   8     161     302
   1 -14   8     701     313
   1 -14   7     115     260
   1 -14   7     179     280
   1 -14   6    4184     447
   1 -14   6    4972     501
   1 -14   5     190     297
   1 -14   5      73     279
   1 -14   4      51     248
   1 -14   4       2     281
   1 -14   3     420     292
   1 -14   3     536     299
   1 -14   2    2768     369
   1 -14   2    2698     366
   1 -14   1      24     259
   1 -14   1     253     292
   1 -14   0    5424     417
   1 -14   0    5598     471
   1 -14  -1      25     239
   1 -14  -1      25     230
   1 -14  -2    2026     292
   1 -14  -2    2254     333
   1 -14  -3       5     224
   1 -14  -3     187     255
   1 -14  -4       2     294
   1 -14  -4      76     208
   1 -14  -5     105     313
   1 -14  -6    3702     427
   1 -14  -7       3     240
   1 -14  -8     711     317
   1 -14  -9      28     306
  -1  14   9       3     333
   1 -14 -10     955     320
  -1  14  10     793     335
   1 -14 -11       9     248
  -1  14  11     111     339
   1 -14 -12     296     330
  -1  14  12     363     336
   0 -13  12       5     310
   0 -13  11     993     366
   0 -13  10       0     320
   0 -13   9      69     281
   0 -13   9      96     307
   0 -13   8       5     270
   0 -13   8     101     302
   0 -13   7    1404     331
   0 -13   7    1974     371
   0 -13   6    4538     420
   0 -13   6    3974     433
   0 -13   5    2926     399
   0 -13   5    3539     377
   0 -13   4    1454     310
   0 -13   4     776     282
   0 -13   3     329     276
   0 -13   3      50     257
   0 -13   2    4250     398
   0 -13   2    4879     411
   0 -13   1    5311     447
   0 -13   1    5606     455
   0 -13   0     159     256
   0 -13   0     778     303
   0 -13  -1    4550     389
   0 -13  -1    4733     412
   0 -13  -2    4225     385
   0 -13  -2    4515     367
   0 -13  -3      81     278
   0 -13  -3      74     224
   0 -13  -4     911     250
   0 -13  -4    1060     332
   0 -13  -5    2904     380
   0 -13  -6    4122     433
   0 -13  -7    1199     343
   0 -13  -8      36     280
   0 -13  -9      13     239
   0  13   9     108     322
   0 -13 -10     534     289
   0  13  10     240     305
   0 -13 -11     853     338
   0  13  11     580     314
   0 -13 -12       5     310
   0  13  12       5     299
  -1 -12  13     547     356
  -1 -12  12     427     343
  -1 -12  11       8     317
  -1 -12  10       2     312
  -1 -12   9       6     292
  -1 -12   8      85     260
  -1 -12   8     555     264
  -1 -12   7    1332     356
  -1 -12   7    1374     311
  -1 -12   6     342     273
  -1 -12   6       1     253
  -1 -12   5    2492     334
  -1 -12   5    1964     347
  -1 -12   4    1480     343
  -1 -12   4    1508     318
  -1 -12   3     578     257
  -1 -12   3     660     290
  -1 -12   2    1145     282
  -1 -12   2     695     260
  -1 -12   1    3687     370
  -1 -12   1    3870     377
  -1 -12   0    5548     431
  -1 -12   0    6177     420
  -1 -12  -1    4044     390
  -1 -12  -2     806     241
  -1 -12  -2     398     272
  -1 -12  -3     495     288
  -1 -12  -3     350     239
  -1 -12  -4    1243     285
  -1 -12  -4    1474     261
  -1 -12  -5    1270     330
  -1 -12  -5    2196     271
  -1 -12  -6     420     304
  -1 -12  -7     738     282
  -1 -12  -8     794     307
  -1 -12  -9       6     247
   1  12   9       6     272
  -1 -12 -10      40     249
   1  12  10     314     310
  -1 -12 -11     719     301
   1  12  11     426     329
  -1 -12 -12      38     313
   1  12  12     669     314
   1  12  13     133     330
  -2 -11  13     148     343
  -2 -11  12     444     343
  -2 -11  11       5     311
  -2 -11  10    1178     357
  -2 -11   9      94     257
  -2 -11   8     427     269
  -2 -11   7     222     298
  -2 -11   7      22     252
  -2 -11   6      49     244
  -2 -11   6      49     291
  -2 -11   5      36     267
  -2 -11   5     115     245
  -2 -11   4    1075     306
  -2 -11   4     754     243
  -2 -11   3     619     245
  -2 -11   3     650     235
  -2 -11   2    5108     437
  -2 -11   2    4802     392
  -2 -11   1     563     234
  -2 -11   1     281     245
  -2 -11   0    9245     523
  -2 -11   0    8826     550
  -2 -11  -1     467     181
  -2 -11  -1     261     240
  -2 -11  -2    5008     438
  -2 -11  -2    5308     408
  -2 -11  -3     727     242
  -2 -11  -3      66     220
  -2 -11  -4     460     285
  -2 -11  -4     558     247
  -2 -11  -5      37     269
  -2 -11  -5      37     217
  -2 -11  -6      50     272
  -2 -11  -7     246     252
  -2 -11  -8     929     277
  -2 -11  -9      48     229
  -2 -11 -10    1130     310
   2  11  10    1626     356
  -2 -11 -11       4     282
   2  11  11       4     264
  -2 -11 -12     831     349
   2  11  12     337     324
  -2 -11 -13     318     286
  -3 -10  13     102     330
  -3 -10  12      85     320
  -3 -10  11       2     303
  -3 -10  10    1205     358
  -3 -10   9     553     318
  -3 -10   8     466     307
  -3 -10   7    1309     278
  -3 -10   7    1111     314
  -3 -10   6     751     325
  -3 -10   6    1055     260
  -3 -10   5     362     290
  -3 -10   5     723     229
  -3 -10   4     795     237
  -3 -10   4    1243     314
  -3 -10   3    1825     264
  -3 -10   3    2998     341
  -3 -10   2    7912     462
  -3 -10   2    8440     536
  -3 -10   1     435     247
  -3 -10   1     495     217
  -3 -10   0     174     239
  -3 -10   0      24     198
  -3 -10  -1     609     230
  -3 -10  -1     262     238
  -3 -10  -2    7518     484
  -3 -10  -2    8324     497
  -3 -10  -3    1854     275
  -3 -10  -3    1731     293
  -3 -10  -4    1721     316
  -3 -10  -4    1614     277
  -3 -10  -5     275     268
  -3 -10  -5     420     248
  -3 -10  -6     379     230
  -3 -10  -6     695     267
  -3 -10  -7    1078     292
  -3 -10  -8     355     248
  -3 -10  -9     460     259
  -3 -10 -10    1230     326
   3  10  10    1590     336
  -3 -10 -11      74     250
   3  10  11     362     282
  -3 -10 -12     792     339
  -3 -10 -13      96     326
  -4  -9  13       7     298
  -4  -9  12     500     330
  -4  -9  11     572     332
  -4  -9  10     297     266
  -4  -9   9    2835     406
  -4  -9   8      17     274
  -4  -9   7       5     291
  -4  -9   6    6780     518
  -4  -9   6    6255     392
  -4  -9   5    2060     325
  -4  -9   5    2385     266
  -4  -9   4    1041     225
  -4  -9   4     529     292
  -4  -9   3   10429     593
  -4  -9   3    9687     489
  -4  -9   2    4137     320
  -4  -9   2    3758     374
  -4  -9   1    1937     304
  -4  -9   1    1929     265
  -4  -9   0     711     214
  -4  -9   0     307     236
  -4  -9  -1    2149     277
  -4  -9  -1    1908     295
  -4  -9  -2    3828     312
  -4  -9  -3    9312     512
  -4  -9  -3   10425     549
  -4  -9  -4     651     258
  -4  -9  -4     972     280
  -4  -9  -5    2008     300
  -4  -9  -5    1979     294
  -4  -9  -6    5505     418
  -4  -9  -6    6111     416
  -4  -9  -7       4     224
  -4  -9  -8     101     283
  -4  -9  -9    2367     338
  -4  -9 -10     362     253
  -4  -9 -11     373     315
  -4  -9 -12     419     316
  -4  -9 -13       7     312
  -5  -8  13     259     328
  -5  -8  12     108     315
  -5  -8  11     406     321
  -5  -8  10    1102     337
  -5  -8   9     114     284
  -5  -8   8    1167     331
  -5  -8   7    2158     378
  -5  -8   6     314     297
  -5  -8   5    3621     404
  -5  -8   5    3763     290
  -5  -8   4    5164     460
  -5  -8   4    5133     330
  -5  -8   3    2719     338
  -5  -8   3    2721     265
  -5  -8   2    2391     323
  -5  -8   2    2474     249
  -5  -8   1    3255     283
  -5  -8   1    2692     320
  -5  -8   0     394     197
  -5  -8   0     595     245
  -5  -8  -1    3113     292
  -5  -8  -1    2927     325
  -5  -8  -2    2065     305
  -5  -8  -2    2334     257
  -5  -8  -3    2874     326
  -5  -8  -3    2569     337
  -5  -8  -4    5247     415
  -5  -8  -4    4795     409
  -5  -8  -5    2939     345
  -5  -8  -5    3124     327
  -5  -8  -6     599     276
  -5  -8  -6     771     255
  -5  -8  -7    2287     290
  -5  -8  -7    2057     315
  -5  -8  -8     428     241
  -5  -8  -9     150     274
  -5  -8 -10     816     274
  -5  -8 -11     427     273
  -5  -8 -12      80     301
  -5  -8 -13     107     302
  -6  -7  13      62     323
  -6  -7  12      19     291
  -6  -7  11      14     274
  -6  -7  10     294     268
  -6  -7   9     718     323
  -6  -7   8    1397     348
  -6  -7   7    1164     341
  -6  -7   6      13     280
  -6  -7   5     226     143
  -6  -7   5      16     264
  -6  -7   4    6099     305
  -6  -7   4    5738     459
  -6  -7   3    4064     363
  -6  -7   3    3701     261
  -6  -7   2     400     158
  -6  -7   2     137     237
  -6  -7   1     275     166
  -6  -7   1     636     255
  -6  -7   0     279     241
  -6  -7   0     655     193
  -6  -7  -1     564     242
  -6  -7  -1     831     196
  -6  -7  -2     367     236
  -6  -7  -2     650     201
  -6  -7  -3    3793     324
  -6  -7  -3    2315     268
  -6  -7  -4    5646     369
  -6  -7  -4    5608     409
  -6  -7  -5     119     198
  -6  -7  -5      16     248
  -6  -7  -6       9     213
  -6  -7  -6     132     253
  -6  -7  -7     576     283
  -6  -7  -7     569     245
  -6  -7  -8    1212     318
  -6  -7  -9     807     271
  -6  -7 -10     178     281
  -6  -7 -11      13     244
  -6  -7 -12     141     309
  -6  -7 -13       0     286
  -7  -6  13       0     316
  -7  -6  12     516     350
  -7  -6  11      14     280
  -7  -6  10      34     293
  -7  -6   9     769     286
  -7  -6   8     699     319
  -7  -6   7     655     311
  -7  -6   6      69     284
  -7  -6   5      17     254
  -7  -6   4    5926     467
  -7  -6   4    5880     281
  -7  -6   3    3871     360
  -7  -6   3    3473     229
  -7  -6   2     228     139
  -7  -6   2     331     218
  -7  -6   1     361     161
  -7  -6   1     452     227
  -7  -6   0     394     243
  -7  -6   0     420     176
  -7  -6  -1     446     253
  -7  -6  -1     426     178
  -7  -6  -2     286     178
  -7  -6  -2     593     268
  -7  -6  -3    3977     366
  -7  -6  -3    3910     328
  -7  -6  -5     211     234
  -7  -6  -5      17     229
  -7  -6  -6       7     240
  -7  -6  -6       7     247
  -7  -6  -7     768     287
  -7  -6  -7     615     258
  -7  -6  -8     878     306
  -7  -6  -8    1674     296
  -7  -6  -9     813     267
  -7  -6 -10      17     236
  -7  -6 -11      14     231
  -7  -6 -12     303     271
  -7  -6 -13     427     280
  -8  -5  13       2     310
  -8  -5  12       2     297
  -8  -5  11     239     317
  -8  -5  10    1544     343
  -8  -5   9     123     277
  -8  -5   8     585     306
  -8  -5   7    2186     372
  -8  -5   6      80     252
  -8  -5   5    3359     394
  -8  -5   4    5645     474
  -8  -5   3    2945     376
  -8  -5   3    2716     205
  -8  -5   2    2254     197
  -8  -5   2    2523     344
  -8  -5   1    3087     242
  -8  -5   1    3316     362
  -8  -5   0     673     173
  -8  -5   0     854     282
  -8  -5  -1    2797     349
  -8  -5  -1    3123     268
  -8  -5  -2    2439     325
  -8  -5  -2    2585     268
  -8  -5  -3    2692     292
  -8  -5  -3    2402     361
  -8  -5  -4    4997     430
  -8  -5  -4    5117     387
  -8  -5  -5    3474     331
  -8  -5  -6     726     290
  -8  -5  -6     333     254
  -8  -5  -7    2095     306
  -8  -5  -7    1943     327
  -8  -5  -8     548     278
  -8  -5  -8     990     288
  -8  -5  -9     203     224
  -8  -5  -9      69     231
  -8  -5 -10     940     321
  -8  -5 -11     498     289
  -8  -5 -12       1     224
  -8  -5 -13       3     292
  -9  -4  13      90     326
  -9  -4  12      14     300
  -9  -4  11     482     325
  -9  -4  10       4     288
  -9  -4   9    2963     407
  -9  -4   8      17     271
  -9  -4   7       4     251
  -9  -4   6    6670     515
  -9  -4   5    2207     359
  -9  -4   4     974     320
  -9  -4   3   10507     607
  -9  -4   3   10094     403
  -9  -4   2    4071     375
  -9  -4   2    4007     235
  -9  -4   1    1734     195
  -9  -4   1    1916     332
  -9  -4   0     512     279
  -9  -4   0     198     161
  -9  -4  -1    1666     322
  -9  -4  -1    1693     229
  -9  -4  -2    3858     296
  -9  -4  -2    4208     402
  -9  -4  -3   10389     597
  -9  -4  -3   10428     519
  -9  -4  -4     909     254
  -9  -4  -4     500     290
  -9  -4  -5    2342     343
  -9  -4  -5    1965     302
  -9  -4  -6    6648     466
  -9  -4  -7     231     266
  -9  -4  -7     658     286
  -9  -4  -8     189     265
  -9  -4  -8     118     230
  -9  -4  -9    2391     336
  -9  -4  -9    2426     347
  -9  -4 -10       5     252
  -9  -4 -11    1198     338
  -9  -4 -12      63     251
  -9  -4 -13     231     322
 -10  -3  13     207     323
 -10  -3  12     690     347
 -10  -3  11      47     305
 -10  -3  10    1123     342
 -10  -3   9     658     309
 -10  -3   8     366     307
 -10  -3   7    1474     355
 -10  -3   6     563     324
 -10  -3   5     350     306
 -10  -3   4    1659     307
 -10  -3   3    2050     305
 -10  -3   2    8126     374
 -10  -3   2    8425     562
 -10  -3   1     753     253
 -10  -3   1     288     133
 -10  -3   0     352     163
 -10  -3   0     297     276
 -10  -3  -1     443     177
 -10  -3  -1     283     283
 -10  -3  -2    8364     556
 -10  -3  -2    8380     465
 -10  -3  -3    1938     253
 -10  -3  -3    1660     322
 -10  -3  -4     787     297
 -10  -3  -4     800     248
 -10  -3  -5     218     285
 -10  -3  -5     551     246
 -10  -3  -6     927     286
 -10  -3  -6     715     292
 -10  -3  -7    1291     309
 -10  -3  -8    1092     311
 -10  -3  -8     504     243
 -10  -3  -9     600     290
 -10  -3  -9     530     306
 -10  -3 -10    1211     295
 -10  -3 -10    1589     321
 -10  -3 -11     269     267
 -10  -3 -12      49     260
 -10  -3 -13      53     256
 -11  -2  13      27     347
 -11  -2  12     346     337
 -11  -2  11     190     315
 -11  -2  10    1045     344
 -11  -2   9     358     308
 -11  -2   8     769     313
 -11  -2   7     109     300
 -11  -2   6      49     294
 -11  -2   5      36     286
 -11  -2   4     815     279
 -11  -2   3     881     315
 -11  -2   2    4980     272
 -11  -2   2    5017     466
 -11  -2   1     621     263
 -11  -2   1     724     161
 -11  -2   0    9259     448
 -11  -2   0    9107     594
 -11  -2  -1     533     189
 -11  -2  -1     680     292
 -11  -2  -2    4955     345
 -11  -2  -2    4619     462
 -11  -2  -3     280     206
 -11  -2  -3     418     288
 -11  -2  -4     770     314
 -11  -2  -4     759     239
 -11  -2  -5     454     234
 -11  -2  -5     508     285
 -11  -2  -6     439     217
 -11  -2  -6      48     264
 -11  -2  -7      16     232
 -11  -2  -7     394     294
 -11  -2  -8     460     236
 -11  -2  -8      11     180
 -11  -2  -9     277     244
 -11  -2  -9     236     273
 -11  -2 -10    1033     297
 -11  -2 -10    1453     343
 -11  -2 -11       4     284
 -11  -2 -12     621     296
 -11  -2 -13      25     255
 -12  -1  13     807     398
 -12  -1  12     279     356
 -12  -1  11     349     320
 -12  -1  10       2     307
 -12  -1   9     108     296
 -12  -1   8     245     296
 -12  -1   7    1392     340
 -12  -1   6     552     277
 -12  -1   5    1831     346
 -12  -1   4    1501     355
 -12  -1   3     522     313
 -12  -1   2     730     309
 -12  -1   2     644     136
 -12  -1   1    3918     419
 -12  -1   1    3487     254
 -12  -1   0    5884     330
 -12  -1   0    5717     437
 -12  -1  -1    3674     297
 -12  -1  -1    3289     408
 -12  -1  -2    1048     323
 -12  -1  -2     425     211
 -12  -1  -3     338     206
 -12  -1  -3       1     272
 -12  -1  -4    1185     351
 -12  -1  -4    1291     261
 -12  -1  -5    2122     358
 -12  -1  -5    1558     277
 -12  -1  -6     445     302
 -12  -1  -6     353     221
 -12  -1  -7    1209     335
 -12  -1  -7    1095     304
 -12  -1  -8     748     319
 -12  -1  -8     320     236
 -12  -1  -9       5     284
 -12  -1  -9       5     250
 -12  -1 -10       2     231
 -12  -1 -11     153     263
 -12  -1 -11     466     297
 -12  -1 -12     636     336
 -13   0  12       5     319
 -13   0  11     647     360
 -13   0  10     317     316
 -13   0   9      13     292
 -13   0   8     139     301
 -13   0   7    1307     344
 -13   0   6    3778     419
 -13   0   5    2984     394
 -13   0   4    1411     356
 -13   0   3     286     311
 -13   0   2    3735     383
 -13   0   1    5073     299
 -13   0   1    4810     458
 -13   0   0     320     180
 -13   0   0     180     307
 -13   0  -1    5494     354
 -13   0  -1    5838     494
 -13   0  -2    4610     345
 -13   0  -2    4268     445
 -13   0  -3     235     272
 -13   0  -3     210     208
 -13   0  -4     926     247
 -13   0  -4    1108     335
 -13   0  -5    3534     355
 -13   0  -5    3141     411
 -13   0  -6    5123     501
 -13   0  -6    4144     390
 -13   0  -7    1638     351
 -13   0  -7    1724     317
 -13   0  -8     503     308
 -13   0  -8     235     267
 -13   0  -9      97     303
 -13   0  -9     356     293
 -13   0 -10     618     276
 -13   0 -10    1040     328
 -13   0 -11      94     306
 -13   0 -12       5     282
 -14   1  12     424     257
 -14   1  12     621     369
 -14   1  11     185     239
 -14   1  11      10     303
 -14   1  10     459     338
 -14   1   9     316     322
 -14   1   8     188     303
 -14   1   7       3     295
 -14   1   6    3868     452
 -14   1   5     268     320
 -14   1   4      65     264
 -14   1   3     638     285
 -14   1   2    3272     410
 -14   1   1      74     305
 -14   1   1      22     144
 -14   1   0    5016     457
 -14   1   0    5788     343
 -14   1  -1      27     250
 -14   1  -1     206     193
 -14   1  -2    2810     304
 -14   1  -2    2790     410
 -14   1  -3     317     214
 -14   1  -3       4     293
 -14   1  -4     206     305
 -14   1  -4       2     214
 -14   1  -5     326     246
 -14   1  -5       6     290
 -14   1  -6    3810     468
 -14   1  -6    3735     375
 -14   1  -7       4     248
 -14   1  -7       4     279
 -14   1  -8     161     289
 -14   1  -8     140     268
 -14   1  -9      10     237
 -14   1  -9      10     285
 -14   1 -10     530     347
 -14   1 -10      51     252
 -14   1 -11     203     276
 -14   1 -11      32     313
 -14   1 -12     799     298
 -14   1 -12       0     316
 -15   2  11       8     305
 -15   2  11       8     259
 -15   2  10     164     319
 -15   2  10     795     287
 -15   2   9     286     347
 -15   2   9     184     253
 -15   2   8     107     231
 -15   2   8     302     327
 -15   2   7     771     327
 -15   2   6    1064     335
 -15   2   5     245     314
 -15   2   4     689     336
 -15   2   3     250     311
 -15   2   2    1150     352
 -15   2   1    2443     397
 -15   2   0      25     185
 -15   2   0       4     302
 -15   2  -1    2145     391
 -15   2  -1    2344     277
 -15   2  -2    1139     365
 -15   2  -2     996     249
 -15   2  -3     416     245
 -15   2  -3       6     273
 -15   2  -4     452     323
 -15   2  -4     595     273
 -15   2  -5     166     250
 -15   2  -5     934     332
 -15   2  -6    1084     348
 -15   2  -6    1095     295
 -15   2  -7     667     331
 -15   2  -7     524     284
 -15   2  -8     393     320
 -15   2  -8     103     239
 -15   2  -9     156     252
 -15   2  -9     158     316
 -15   2 -10     129     316
 -15   2 -10     204     309
 -15   2 -11      94     325
 -15   2 -11     381     345
 -16   3  11       9     340
 -16   3  11     247     300
 -16   3  10      45     275
 -16   3  10      42     314
 -16   3   9     388     327
 -16   3   9     212     272
 -16   3   8     332     263
 -16   3   8     152     311
 -16   3   7      43     310
 -16   3   7      20     223
 -16   3   6     221     249
 -16   3   6    1027     335
 -16   3   5     105     217
 -16   3   5      23     272
 -16   3   4     112     178
 -16   3   4       3     250
 -16   3   3     949     345
 -16   3   3    1358     261
 -16   3   2     403     319
 -16   3   2      53     195
 -16   3   1      63     264
 -16   3   1     265     196
 -16   3   0     852     303
  16  -3   0     678     206
 -16   3  -1      36     199
 -16   3  -1       8     307
 -16   3  -2     398     229
 -16   3  -2     247     298
 -16   3  -3     655     315
 -16   3  -3    1561     277
 -16   3  -4      31     215
 -16   3  -4      19     256
 -16   3  -5      24     225
 -16   3  -5      98     316
 -16   3  -6     101     299
 -16   3  -6     106     250
 -16   3  -7     248     316
 -16   3  -7      22     274
 -16   3  -8     376     319
 -16   3  -8     223     291
 -16   3  -9     191     297
 -16   3  -9     293     324
 -16   3 -10     314     328
 -16   3 -10      67     301
 -16   3 -11     215     293
 -16   3 -11      10     327
 -17   4  10     734     313
 -17   4  10     707     366
 -17   4   9     230     276
 -17   4   9     170     313
 -17   4   8     110     309
 -17   4   8      17     254
 -17   4   7     525     274
 -17   4   7     717     328
 -17   4   6     212     261
 -17   4   6      11     301
 -17   4   5       9     228
 -17   4   5     174     298
 -17   4   4     409     310
 -17   4   3     375     317
 -17   4   3     546     225
 -17   4   2    1256     251
 -17   4   2    1818     369
 -17   4   1     742     219
 -17   4   1    1399     353
 -17   4   0     325     274
  17  -4   0     224     194
 -17   4  -1    1140     306
  17  -4   1    1040     244
 -17   4  -2    1713     274
 -17   4  -2    1295     342
  17  -4   2    1812     262
 -17   4  -3     480     261
 -17   4  -3     344     314
 -17   4  -4     244     236
 -17   4  -4     471     320
 -17   4  -5      28     250
 -17   4  -5      10     298
 -17   4  -6      22     248
 -17   4  -6     204     320
 -17   4  -7     940     360
 -17   4  -7     264     256
 -17   4  -8     150     318
 -17   4  -8     289     293
 -17   4  -9     474     353
 -17   4  -9     349     274
 -17   4 -10     131     265
 -17   4 -10    1050     370
 -18   5  10     285     299
 -18   5  10    1079     360
 -18   5   9      82     341
 -18   5   9       8     293
 -18   5   8     796     302
 -18   5   8     680     367
 -18   5   7     201     311
 -18   5   7     261     286
 -18   5   6       5     258
 -18   5   6       5     306
 -18   5   5     199     315
 -18   5   5       1     246
 -18   5   4     993     245
 -18   5   4     790     326
 -18   5   3     130     301
 -18   5   3     348     228
 -18   5   2    1244     251
 -18   5   2     461     322
 -18   5   1      13     282
 -18   5   0     862     319
 -18   5  -1     314     291
  18  -5   1      18     203
 -18   5  -2     781     333
  18  -5   2    1444     262
 -18   5  -3     407     317
 -18   5  -4     777     345
 -18   5  -4    1081     279
 -18   5  -5     645     343
 -18   5  -5      63     258
 -18   5  -6       5     270
 -18   5  -6      35     309
 -18   5  -7       3     317
 -18   5  -7     544     315
 -18   5  -8     592     339
 -18   5  -8     793     324
 -18   5  -9     237     334
 -18   5  -9     139     282
 -18   5 -10    1291     400
 -18   5 -10       2     340
 -19   6   9     152     302
 -19   6   9     811     346
 -19   6   8      31     270
 -19   6   8     280     321
 -19   6   7       5     238
 -19   6   7       5     290
 -19   6   6       4     306
 -19   6   6     747     297
 -19   6   5     251     277
 -19   6   5     184     316
 -19   6   4     136     306
 -19   6   4      66     247
 -19   6   3    1332     367
 -19   6   3     772     283
 -19   6   2     103     262
 -19   6   1     155     311
 -19   6   0      60     301
 -19   6  -1      67     301
  19  -6   1     195     240
 -19   6  -2       7     293
  19  -6   2       7     223
 -19   6  -3    1332     343
 -19   6  -4      66     275
  19  -6   4      22     245
 -19   6  -5     296     328
 -19   6  -5     154     285
  19  -6   5     359     258
 -19   6  -6     521     298
 -19   6  -6     618     350
 -19   6  -7     281     328
 -19   6  -7       4     277
 -19   6  -8      10     304
 -19   6  -8     288     362
 -19   6  -9     438     348
 -19   6  -9     777     384
 -20   7   8     255     319
 -20   7   8       5     300
 -20   7   7      20     263
 -20   7   7      41     309
 -20   7   6      53     306
 -20   7   6      53     254
 -20   7   5     284     346
 -20   7   5      26     147
 -20   7   4     210     260
 -20   7   4     296     321
 -20   7   3      22     260
 -20   7   2     178     264
 -20   7   1       6     271
 -20   7   0     534     295
 -20   7  -1       7     239
 -20   7  -2      15     316
  20  -7   2     148     247
 -20   7  -3      20     308
  20  -7   3      46      64
 -20   7  -4     113     326
  20  -7   4     163     265
 -20   7  -5     362     304
  20  -7   5     187     275
 -20   7  -6      54     285
  20  -7   6     240     295
 -20   7  -7      20     311
  20  -7   7      20     272
 -20   7  -8       4     323
 -20   7  -8       4     305
  20  -7   8     153     294
 -21   8   7       1     262
 -21   8   7     552     344
 -21   8   6      53     280
 -21   8   6     155     319
 -21   8   5     182     308
 -21   8   5       9     112
 -21   8   4     340     317
 -21   8   3     691     325
 -21   8   2     152     301
 -21   8   1       8     281
 -21   8   0     447     327
 -21   8  -1     118     277
 -21   8  -2     296     334
  21  -8   2      15     252
 -21   8  -3     729     302
  21  -8   3     116     100
 -21   8  -4      83     328
  21  -8   4     114     260
 -21   8  -5     594     358
  21  -8   5     623     304
 -21   8  -6     299     347
  21  -8   6      45     285
 -21   8  -7       1     350
  21  -8   7      11     311
 -22   9   5      27     337
 -22   9   4     869     346
 -22   9   3     273     345
 -22   9   2      10     308
 -22   9   1       4     303
 -22   9   0     496     340
 -22   9  -1       6     309
 -22   9  -2      10     315
 -22   9  -3       8     317
  22  -9   3       8     112
 -22   9  -4    1036     378
  22  -9   4     612     324
 -22   9  -5      76     348
  22  -9   5      25     278
 -23  10   3     592     348
 -23  10   2     136     322
 -23  10   1     773     367
 -23  10   0     215     341
 -23  10  -1     102     325
 -23  10  -2     107     329
 -23  10  -3     613     363
   9 -23   2       3     385
   9 -23   1      80     315
   9 -23   0      16     380
   9 -23  -1      10     290
   9 -23  -2       7     354
   8 -22   5     406     399
   8 -22   4     825     423
   8 -22   3       5     372
   8 -22   2     931     338
   8 -22   2       0     368
   8 -22   1      28     304
   8 -22   1     589     305
   8 -22   0     349     380
   8 -22  -1      29     354
   8 -22  -2      50     362
   8 -22  -3     414     382
   8 -22  -4     339     364
   8 -22  -5      22     289
   7 -21   6       8     355
   7 -21   5     286     383
   7 -21   4     215     371
   7 -21   3    1136     425
   7 -21   3    1067     342
   7 -21   2     314     372
   7 -21   2       1     265
   7 -21   1       1     347
   7 -21   1     193     267
   7 -21   0     402     318
   7 -21   0       1     277
   7 -21  -1     267     318
   7 -21  -2     413     365
   7 -21  -3     464     375
   7 -21  -4     634     315
   7 -21  -5      24     338
   7 -21  -6       8     349
   6 -20   8     380     351
   6 -20   7     881     373
   6 -20   7     169     387
   6 -20   6     134     317
   6 -20   6       2     334
   6 -20   5      32     345
   6 -20   5     472     329
   6 -20   4     733     383
   6 -20   4     329     312
   6 -20   3     701     320
   6 -20   3     838     390
   6 -20   2     897     341
   6 -20   2     719     331
   6 -20   1     124     293
   6 -20   1     159     286
   6 -20   0     217     294
   6 -20   0      87     296
   6 -20  -1       6     283
   6 -20  -2     804     378
   6 -20  -3     271     318
   6 -20  -4     232     358
   6 -20  -5     460     323
   6 -20  -6       2     328
   6 -20  -7     137     336
   5 -19   9     399     342
   5 -19   8     235     355
   5 -19   8     319     322
   5 -19   7       2     330
   5 -19   7    1312     366
   5 -19   6     497     355
   5 -19   6       1     293
   5 -19   5    1140     353
   5 -19   5     554     372
   5 -19   4     928     333
   5 -19   4    1206     380
   5 -19   3     363     309
   5 -19   3    1364     344
   5 -19   2     756     301
   5 -19   2     468     304
   5 -19   1     906     323
   5 -19   1     713     316
   5 -19   0     310     343
   5 -19   0      10     233
   5 -19  -1    1061     373
   5 -19  -1     462     277
   5 -19  -2      69     344
   5 -19  -3     559     315
   5 -19  -4     984     368
   5 -19  -5       1     327
   5 -19  -6     332     307
   5 -19  -7     329     360
   5 -19  -8     285     303
   4 -18   9     874     399
   4 -18   9     981     333
   4 -18   8     176     315
   4 -18   8      31     342
   4 -18   7     365     319
   4 -18   7     462     341
   4 -18   6     761     311
   4 -18   6     426     347
   4 -18   5     620     360
   4 -18   5     625     336
   4 -18   4      56     325
   4 -18   4      95     304
   4 -18   3    1848     353
   4 -18   3    1972     357
   4 -18   2       0     285
   4 -18   2       0     260
   4 -18   1     721     281
   4 -18   1     448     327
   4 -18   0     332     144
   4 -18   0     602     291
   4 -18  -1     439     259
   4 -18  -1     691     333
   4 -18  -2       0     226
   4 -18  -2     108     315
   4 -18  -3    1963     364
   4 -18  -4      35     257
   4 -18  -5     250     290
   4 -18  -6     576     362
   4 -18  -7     142     278
   4 -18  -8     155     305
   4 -18  -9    1161     409
   3 -17  10     605     359
   3 -17   9     149     327
   3 -17   9     125     333
   3 -17   8      65     320
   3 -17   8     400     293
   3 -17   7     852     359
   3 -17   7     667     343
   3 -17   6     276     316
   3 -17   6     423     318
   3 -17   5     680     314
   3 -17   5       3     308
   3 -17   4     212     316
   3 -17   4      69     279
   3 -17   3     707     333
   3 -17   3     513     287
   3 -17   2    1412     334
   3 -17   2    1878     376
   3 -17   1     355     269
   3 -17   1     221     307
   3 -17   0       9     253
   3 -17   0     125      84
   3 -17  -1     231     251
   3 -17  -1     472     282
   3 -17  -2    1467     280
   3 -17  -2     911     305
   3 -17  -3     312     267
   3 -17  -4      59     261
   3 -17  -5      53     267
   3 -17  -6     433     343
   3 -17  -7    1010     370
   3 -17  -8       4     266
   3 -17  -9      23     329
   3 -17 -10      98     291
   2 -16  11       2     334
   2 -16  10     385     357
   2 -16   9       5     299
   2 -16   9     340     340
   2 -16   8     408     290
   2 -16   8     762     352
   2 -16   7     120     265
   2 -16   7     100     306
   2 -16   6     657     323
   2 -16   6     173     322
   2 -16   5     261     302
   2 -16   5       3     290
   2 -16   4     274     307
   2 -16   4     152     283
   2 -16   3     522     289
   2 -16   3     570     306
   2 -16   2     102     249
   2 -16   2       7     254
   2 -16   1     242     260
   2 -16   1     191     265
   2 -16   0    1527     306
   2 -16   0    1441     272
   2 -16  -1      17     243
   2 -16  -1     234     264
   2 -16  -2       8     223
   2 -16  -2     389     307
   2 -16  -3     168     234
   2 -16  -3       9     282
   2 -16  -4      12     281
   2 -16  -5     216     314
   2 -16  -6     188     262
   2 -16  -7     393     284
   2 -16  -8     849     345
   2 -16  -9     243     292
   2 -16 -10      68     310
   2 -16 -11     234     359
  -2  16  11     295     340
   1 -15  11     406     366
   1 -15  10      37     331
   1 -15   9     171     284
   1 -15   8     242     285
   1 -15   8     365     332
   1 -15   7    1073     358
   1 -15   7     410     291
   1 -15   6     305     271
   1 -15   6      22     266
   1 -15   5     674     302
   1 -15   5     997     327
   1 -15   4     589     332
   1 -15   4     517     305
   1 -15   3      45     278
   1 -15   3      31     278
   1 -15   2      81     283
   1 -15   2       1     253
   1 -15   1    3159     388
   1 -15   1    2913     374
   1 -15   0    3560     423
   1 -15   0    3517     375
   1 -15  -1    3185     370
   1 -15  -1    3186     425
   1 -15  -2       0     250
   1 -15  -2       0     238
   1 -15  -3       2     219
   1 -15  -3     112     291
   1 -15  -4     880     328
   1 -15  -5     251     310
   1 -15  -6      42     248
   1 -15  -7     744     292
   1 -15  -8     569     326
   1 -15  -9       9     264
   1 -15 -10     187     299
   1 -15 -11     324     319
  -1  15  11      15     324
   0 -14  11     758     361
   0 -14  10     125     329
   0 -14   9     483     330
   0 -14   8     621     310
   0 -14   8       0     312
   0 -14   7     734     282
   0 -14   7    1021     346
   0 -14   6     527     283
   0 -14   6     831     336
   0 -14   5    2107     370
   0 -14   5    1855     386
   0 -14   4     334     308
   0 -14   4      25     300
   0 -14   3     263     267
   0 -14   3       1     274
   0 -14   2    1130     307
   0 -14   2     537     291
   0 -14   1    5720     473
   0 -14   1    5752     470
   0 -14   0    1861     307
   0 -14   0    1477     331
   0 -14  -1    5395     441
   0 -14  -1    5032     431
   0 -14  -2     523     307
   0 -14  -2     831     269
   0 -14  -3       1     239
   0 -14  -3      87     247
   0 -14  -4     152     231
   0 -14  -4     123     262
   0 -14  -5    1763     326
   0 -14  -6     800     317
   0 -14  -7    1355     353
   0 -14  -8       0     284
   0 -14  -9      15     252
   0 -14 -10      57     271
   0 -14 -11     655     293
   0  14  11     308     323
   0  14  12      16     332
  -1 -13  12     125     345
  -1 -13  11     200     344
  -1 -13  10     584     350
  -1 -13   9     231     322
  -1 -13   8     180     308
  -1 -13   7      22     247
  -1 -13   7      42     274
  -1 -13   6    3534     428
  -1 -13   6    4395     416
  -1 -13   5      64     258
  -1 -13   5      38     292
  -1 -13   4       2     290
  -1 -13   4       2     238
  -1 -13   3       4     278
  -1 -13   3     702     276
  -1 -13   2    2457     339
  -1 -13   2    2239     353
  -1 -13   1      21     251
  -1 -13   1      86     260
  -1 -13   0    6191     456
  -1 -13   0    6140     478
  -1 -13  -1      21      98
  -1 -13  -1      74     270
  -1 -13  -2    2601     363
  -1 -13  -2    2937     336
  -1 -13  -3       4     245
  -1 -13  -3     121     237
  -1 -13  -4       3     239
  -1 -13  -4      27     235
  -1 -13  -5       6     246
  -1 -13  -6    4553     480
  -1 -13  -7     179     252
  -1 -13  -8     291     293
  -1 -13  -9      10     284
  -1 -13 -10     123     325
  -1 -13 -11     189     320
   1  13  11     164     310
  -1 -13 -12     500     298
   1  13  12     855     374
  -2 -12  12      48     329
  -2 -12  11     372     337
  -2 -12  10      81     321
  -2 -12   9      44     303
  -2 -12   8      47     298
  -2 -12   7    1431     312
  -2 -12   7    1356     352
  -2 -12   6     270     255
  -2 -12   6     276     258
  -2 -12   5     422     264
  -2 -12   5      17     296
  -2 -12   4     419     296
  -2 -12   4     539     270
  -2 -12   3     155     280
  -2 -12   3     296     268
  -2 -12   2      36     260
  -2 -12   2      36     254
  -2 -12   1    1719     305
  -2 -12   1    1871     340
  -2 -12   0       2     233
  -2 -12   0     412     253
  -2 -12  -1    1047     237
  -2 -12  -1    1809     317
  -2 -12  -2     127     230
  -2 -12  -2     183     248
  -2 -12  -3     419     268
  -2 -12  -3       7     226
  -2 -12  -4     208     248
  -2 -12  -4     579     264
  -2 -12  -5     551     256
  -2 -12  -5     676     279
  -2 -12  -6     683     297
  -2 -12  -7    1206     333
  -2 -12  -8      45     294
  -2 -12  -9     421     301
  -2 -12 -10       5     277
  -2 -12 -11     415     280
  -2 -12 -12     193     320
   2  12  12     131     327
  -3 -11  12     525     314
  -3 -11  11     272     288
  -3 -11  10       7     307
  -3 -11   9    1299     349
  -3 -11   8     526     314
  -3 -11   7      52     291
  -3 -11   6    1136     266
  -3 -11   6    1102     342
  -3 -11   5     796     247
  -3 -11   5     639     330
  -3 -11   4     338     240
  -3 -11   4     507     297
  -3 -11   3    2357     299
  -3 -11   3    2142     354
  -3 -11   2      84     238
  -3 -11   2      58     261
  -3 -11   1     412     249
  -3 -11   1     445     231
  -3 -11   0    4444     386
  -3 -11   0    4730     429
  -3 -11  -1     443     241
  -3 -11  -1     731     255
  -3 -11  -2       5     197
  -3 -11  -2     136     232
  -3 -11  -3    2215     326
  -3 -11  -3    1672     287
  -3 -11  -4       3     261
  -3 -11  -4       3     256
  -3 -11  -5     498     257
  -3 -11  -5     601     262
  -3 -11  -6     711     304
  -3 -11  -7     143     286
  -3 -11  -8     343     258
  -3 -11  -9    1081     293
  -3 -11 -10      95     297
  -3 -11 -11     204     267
  -3 -11 -12     181     280
  -4 -10  13      35     338
  -4 -10  12     318     340
  -4 -10  11     395     328
  -4 -10  10     731     348
  -4 -10   9    1019     347
  -4 -10   8     490     304
  -4 -10   7    1006     335
  -4 -10   6     756     232
  -4 -10   6     158     300
  -4 -10   5    3298     418
  -4 -10   5    3307     308
  -4 -10   4    3965     424
  -4 -10   4    3745     318
  -4 -10   3    3128     300
  -4 -10   3    3495     404
  -4 -10   2    2182     276
  -4 -10   2    1982     330
  -4 -10   1    5454     450
  -4 -10   1    4866     398
  -4 -10   0       2     212
  -4 -10   0       5     250
  -4 -10  -1    4361     379
  -4 -10  -1    4628     421
  -4 -10  -2    1541     257
  -4 -10  -3    3886     380
  -4 -10  -3    3587     375
  -4 -10  -4    3263     346
  -4 -10  -4    4048     371
  -4 -10  -5    2780     340
  -4 -10  -5    2829     345
  -4 -10  -6     304     251
  -4 -10  -6     444     259
  -4 -10  -7     960     312
  -4 -10  -8     598     290
  -4 -10  -9    1698     349
  -4 -10 -10     499     271
  -4 -10 -11     587     292
  -4 -10 -12      17     256
  -4 -10 -13     602     320
  -5  -9  13     109     366
  -5  -9  12     332     330
  -5  -9  11       9     292
  -5  -9  10    1202     359
  -5  -9   9     485     273
  -5  -9   8    1169     356
  -5  -9   7     420     308
  -5  -9   6    1585     361
  -5  -9   5     743     283
  -5  -9   5     490     211
  -5  -9   4    5650     358
  -5  -9   4    6808     507
  -5  -9   3    3460     403
  -5  -9   3    3886     321
  -5  -9   2    6222     465
  -5  -9   2    6223     373
  -5  -9   1    1108     273
  -5  -9   1    1251     213
  -5  -9   0    3271     307
  -5  -9   0    3394     372
  -5  -9  -1    1438     240
  -5  -9  -1    1029     296
  -5  -9  -2    6240     430
  -5  -9  -2    5563     371
  -5  -9  -3    3203     366
  -5  -9  -3    2788     330
  -5  -9  -4    7119     489
  -5  -9  -4    5534     407
  -5  -9  -5     856     285
  -5  -9  -5     737     279
  -5  -9  -6    1688     305
  -5  -9  -6    1293     289
  -5  -9  -7     367     282
  -5  -9  -8    1072     322
  -5  -9  -9     807     301
  -5  -9 -10     733     331
  -5  -9 -11      16     294
  -5  -9 -12     216     273
  -5  -9 -13     286     275
  -6  -8  13     212     349
  -6  -8  12      59     329
  -6  -8  11     447     342
  -6  -8  10       6     304
  -6  -8   9     633     296
  -6  -8   8     479     324
  -6  -8   7     765     330
  -6  -8   6     926     325
  -6  -8   5    2496     338
  -6  -8   4     513     168
  -6  -8   4     290     294
  -6  -8   3    9839     619
  -6  -8   3   10198     493
  -6  -8   2     206     172
  -6  -8   2     630     276
  -6  -8   1    1706     235
  -6  -8   1    2094     328
  -6  -8   0    8272     515
  -6  -8   0    7597     433
  -6  -8  -1    2209     267
  -6  -8  -1    2165     338
  -6  -8  -2     189     202
  -6  -8  -2      83     280
  -6  -8  -3   10426     577
  -6  -8  -4     127     266
  -6  -8  -4     494     254
  -6  -8  -5    2081     290
  -6  -8  -5    2552     339
  -6  -8  -6     492     245
  -6  -8  -6     687     286
  -6  -8  -7    1056     306
  -6  -8  -7    1396     281
  -6  -8  -8     252     277
  -6  -8  -9     830     277
  -6  -8 -10       6     271
  -6  -8 -11     536     283
  -6  -8 -12      36     314
  -6  -8 -13       4     270
  -7  -7  13       1     349
  -7  -7  12       2     308
  -7  -7  11     475     326
  -7  -7  10     331     313
  -7  -7   9       0     295
  -7  -7   8     281     299
  -7  -7   7     925     279
  -7  -7   6     284     302
  -7  -7   5     150     244
  -7  -7   4    3365     238
  -7  -7   4    3693     401
  -7  -7   3    1205     202
  -7  -7   3    1253     334
  -7  -7   2    1900     227
  -7  -7   2    1638     306
  -7  -7   1    1786     229
  -7  -7   1    1542     328
  -7  -7   0    3643     367
  -7  -7   0    3850     291
  -7  -7  -1    1576     318
  -7  -7  -1    1418     243
  -7  -7  -2    1898     330
  -7  -7  -2    1565     278
  -7  -7  -3    1113     337
  -7  -7  -3     752     257
  -7  -7  -4    3105     329
  -7  -7  -5      33     268
  -7  -7  -5     169     242
  -7  -7  -6       5     220
  -7  -7  -6       5     241
  -7  -7  -7    1515     290
  -7  -7  -7    1365     271
  -7  -7  -8     260     263
  -7  -7  -9       0     270
  -7  -7 -10     239     297
  -7  -7 -11      42     248
  -7  -7 -12     273     270
  -7  -7 -13       1     276
  -8  -6  13       1     312
  -8  -6  12      98     318
  -8  -6  11     210     312
  -8  -6  10     173     303
  -8  -6   9     670     319
  -8  -6   8     116     252
  -8  -6   7     987     331
  -8  -6   6     972     329
  -8  -6   5    2222     363
  -8  -6   4     355     296
  -8  -6   3    9360     581
  -8  -6   3    9360     430
  -8  -6   2      80     278
  -8  -6   2     413     156
  -8  -6   1    2528     239
  -8  -6   1    2319     348
  -8  -6   0    8197     494
  -8  -6   0    7632     402
  -8  -6  -1    2128     342
  -8  -6  -1    1975     240
  -8  -6  -2     266     272
  -8  -6  -2     115     185
  -8  -6  -3    9639     532
  -8  -6  -3   10184     633
  -8  -6  -4    1175     323
  -8  -6  -4     346     202
  -8  -6  -5    1322     274
  -8  -6  -5    2589     326
  -8  -6  -6     627     277
  -8  -6  -6     531     306
  -8  -6  -7    1112     294
  -8  -6  -7     977     265
  -8  -6  -8     369     274
  -8  -6  -8     835     289
  -8  -6  -9    1033     317
  -8  -6 -10      35     244
  -8  -6 -11     205     268
  -8  -6 -12     524     329
  -8  -6 -13      51     305
  -9  -5  13       4     355
  -9  -5  12      11     321
  -9  -5  11      91     322
  -9  -5  10    1377     364
  -9  -5   9     689     308
  -9  -5   8    1232     315
  -9  -5   7     600     289
  -9  -5   6    2316     386
  -9  -5   5     485     266
  -9  -5   4    5929     459
  -9  -5   3    2620     351
  -9  -5   2    5660     298
  -9  -5   2    6394     489
  -9  -5   1    1279     167
  -9  -5   1    1427     313
  -9  -5   0    2840     374
  -9  -5   0    3220     265
  -9  -5  -1    1622     197
  -9  -5  -1    1098     299
  -9  -5  -2    6433     488
  -9  -5  -2    6377     375
  -9  -5  -3    3239     384
  -9  -5  -3    3625     327
  -9  -5  -4    5650     410
  -9  -5  -4    5623     487
  -9  -5  -5     336     298
  -9  -5  -5     655     225
  -9  -5  -6    2087     296
  -9  -5  -6    1380     319
  -9  -5  -7     925     267
  -9  -5  -7     797     303
  -9  -5  -8    1154     292
  -9  -5  -8    1510     327
  -9  -5  -9      19     262
  -9  -5  -9     404     253
  -9  -5 -10     994     330
  -9  -5 -11     516     270
  -9  -5 -12      23     291
  -9  -5 -13     537     295
 -10  -4  13       6     323
 -10  -4  12      33     329
 -10  -4  11     933     358
 -10  -4  10     716     327
 -10  -4   9    1111     347
 -10  -4   8     796     326
 -10  -4   7    1252     346
 -10  -4   6     509     315
 -10  -4   5    3191     418
 -10  -4   4    3618     425
 -10  -4   3    3289     407
 -10  -4   2    1448     342
 -10  -4   2    1806     183
 -10  -4   1    4443     429
 -10  -4   1    4860     297
 -10  -4   0     285     291
 -10  -4   0       2     161
 -10  -4  -1    5441     490
 -10  -4  -1    4841     349
 -10  -4  -2    1900     242
 -10  -4  -2    1838     344
 -10  -4  -3    3525     327
 -10  -4  -3    3208     411
 -10  -4  -4    3350     398
 -10  -4  -4    3878     350
 -10  -4  -5    2880     412
 -10  -4  -5    3035     344
 -10  -4  -6     297     275
 -10  -4  -6     163     252
 -10  -4  -7    1525     313
 -10  -4  -7    1221     284
 -10  -4  -8     891     299
 -10  -4  -8     789     285
 -10  -4  -9    1298     320
 -10  -4  -9    1118     316
 -10  -4 -10     962     326
 -10  -4 -11     446     306
 -10  -4 -12      23     311
 -10  -4 -13     443     359
 -11  -3  12      16     360
 -11  -3  11     451     328
 -11  -3  10     148     325
 -11  -3   9    1446     357
 -11  -3   8     632     320
 -11  -3   7     186     302
 -11  -3   6    1354     354
 -11  -3   5     725     322
 -11  -3   4     311     310
 -11  -3   3    2447     389
 -11  -3   2       4     280
 -11  -3   2      66     136
 -11  -3   1     420     305
 -11  -3   1     451     158
 -11  -3   0    4770     326
 -11  -3   0    4854     466
 -11  -3  -1      14     290
 -11  -3  -1     419     185
 -11  -3  -2       4     284
 -11  -3  -2       4     174
 -11  -3  -3    1933     363
 -11  -3  -3    1815     273
 -11  -3  -4     385     229
 -11  -3  -4       1     289
 -11  -3  -5     543     311
 -11  -3  -5     671     258
 -11  -3  -6     894     279
 -11  -3  -6     712     303
 -11  -3  -7     105     261
 -11  -3  -7     129     250
 -11  -3  -8     313     262
 -11  -3  -9    1198     325
 -11  -3  -9    1169     319
 -11  -3 -10       6     266
 -11  -3 -10       6     240
 -11  -3 -11     161     311
 -11  -3 -12     168     306
 -12  -2  12      12     361
 -12  -2  11     580     341
 -12  -2  10       4     329
 -12  -2   9     185     312
 -12  -2   8       9     233
 -12  -2   7    1546     362
 -12  -2   6     551     320
 -12  -2   5     654     294
 -12  -2   4      46     303
 -12  -2   3     133     274
 -12  -2   2      34     299
 -12  -2   1    1835     207
 -12  -2   1    2095     342
 -12  -2   0      82     260
 -12  -2   0     405     180
 -12  -2  -1    1531     238
 -12  -2  -1    1778     362
 -12  -2  -2      35     289
 -12  -2  -2      35     182
 -12  -2  -3       6     295
 -12  -2  -3     243     213
 -12  -2  -4     139     224
 -12  -2  -4     166     312
 -12  -2  -5     405     250
 -12  -2  -5     271     309
 -12  -2  -6      17     285
 -12  -2  -6     114     240
 -12  -2  -7    2046     383
 -12  -2  -7    1795     296
 -12  -2  -8     328     268
 -12  -2  -8     191     284
 -12  -2  -9       5     207
 -12  -2 -10     675     325
 -12  -2 -10     188     261
 -12  -2 -11     387     275
 -12  -2 -12      19     307
 -13  -1  12     266     373
 -13  -1  11      11     310
 -13  -1  10     569     348
 -13  -1   9       3     315
 -13  -1   8     165     305
 -13  -1   7       4     279
 -13  -1   6    3641     419
 -13  -1   5      27     314
 -13  -1   4       2     305
 -13  -1   3       4     304
 -13  -1   2    2026     348
 -13  -1   1      90     312
 -13  -1   1      21     153
 -13  -1   0    5835     347
 -13  -1   0    4725     449
 -13  -1  -1      20     309
 -13  -1  -1      11     181
 -13  -1  -2    2634     293
 -13  -1  -2    2105     349
 -13  -1  -3     328     314
 -13  -1  -3     548     222
 -13  -1  -4      32     227
 -13  -1  -4     195     307
 -13  -1  -5       6     222
 -13  -1  -5       3     293
 -13  -1  -6    4447     428
 -13  -1  -6    4428     487
 -13  -1  -7      78     255
 -13  -1  -7       4     304
 -13  -1  -8      93     224
 -13  -1  -8    1159     335
 -13  -1  -9      10     256
 -13  -1  -9     445     333
 -13  -1 -10    1131     251
 -13  -1 -10     456     315
 -13  -1 -11      11     278
 -13  -1 -11     447     315
 -13  -1 -12     569     346
 -14   0  11       4     316
 -14   0  10      56     315
 -14   0   9     482     319
 -14   0   8     343     320
 -14   0   7    1130     343
 -14   0   6     709     328
 -14   0   5    2245     396
 -14   0   4     239     318
 -14   0   3     218     270
 -14   0   2     587     336
 -14   0   1    6314     545
 -14   0   0    1793     376
 -14   0   0    1784     240
 -14   0  -1    6073     391
 -14   0  -1    6658     554
 -14   0  -2     963     303
 -14   0  -2    1478     252
 -14   0  -3      20     205
 -14   0  -3       0     295
 -14   0  -4      13     264
 -14   0  -4      12     225
 -14   0  -5    1935     318
 -14   0  -5    1747     381
 -14   0  -6    1163     348
 -14   0  -6     804     279
 -14   0  -7     892     327
 -14   0  -7     623     276
 -14   0  -8     188     274
 -14   0  -8     403     305
 -14   0  -9      14     268
 -14   0  -9    1060     337
 -14   0 -10     382     309
 -14   0 -10     218     332
 -14   0 -11     333     269
 -14   0 -11       4     259
 -15   1  11      74     260
 -15   1  11     323     371
 -15   1  10     172     368
 -15   1  10     232     285
 -15   1   9     309     328
 -15   1   8     760     349
 -15   1   7     475     316
 -15   1   6      21     259
 -15   1   5     503     325
 -15   1   4     209     313
 -15   1   3     505     316
 -15   1   2      62     303
 -15   1   1    3089     399
 -15   1   0    3513     412
 -15   1   0    4292     324
 -15   1  -1    2915     311
 -15   1  -1    2893     438
 -15   1  -2       4     214
 -15   1  -2       0     294
 -15   1  -3       2     286
 -15   1  -3      62     229
 -15   1  -4     264     228
 -15   1  -4     218     300
 -15   1  -5     459     254
 -15   1  -5     687     327
 -15   1  -6     139     330
 -15   1  -6      22     233
 -15   1  -7    1517     374
 -15   1  -7     471     280
 -15   1  -8     731     370
 -15   1  -8     197     286
 -15   1  -9    1158     372
 -15   1  -9     790     321
 -15   1 -10      33     315
 -15   1 -10     239     329
 -15   1 -11     161     294
 -15   1 -11      18     319
 -16   2  11     110     339
 -16   2  11     264     287
 -16   2  10     174     267
 -16   2  10      67     311
 -16   2   9     119     261
 -16   2   9     217     354
 -16   2   8     191     246
 -16   2   8     163     339
 -16   2   7       0     316
 -16   2   7     423     242
 -16   2   6     642     326
 -16   2   5     526     325
 -16   2   4      13     290
 -16   2   3      35     303
 -16   2   2       6     300
 -16   2   1     111     308
 -16   2   0    1667     370
  16  -2   0    2080     233
 -16   2  -1     213     325
 -16   2  -1     337     208
 -16   2  -2       1     304
 -16   2  -2       7     210
 -16   2  -3     234     300
 -16   2  -3     486     228
 -16   2  -4      11     225
 -16   2  -4      11     299
 -16   2  -5       3     289
 -16   2  -5      17     242
 -16   2  -6     468     269
 -16   2  -6     434     324
 -16   2  -7      72     271
 -16   2  -7     452     323
 -16   2  -8     448     344
 -16   2  -8     296     297
 -16   2  -9     277     337
 -16   2  -9     425     323
 -16   2 -10     163     360
 -16   2 -10      68     245
 -16   2 -11     341     331
 -16   2 -11      77     335
 -17   3  10     132     276
 -17   3  10     623     390
 -17   3   9      21     263
 -17   3   9     675     349
 -17   3   8     551     341
 -17   3   8       5     250
 -17   3   7     782     294
 -17   3   7     630     348
 -17   3   6     502     254
 -17   3   6       2     309
 -17   3   5     192     243
 -17   3   5     119     296
 -17   3   4     311     317
 -17   3   3     520     226
 -17   3   3     620     286
 -17   3   2     886     333
 -17   3   2    1227     239
 -17   3   1     356     306
 -17   3   0       9     296
 -17   3  -1     650     331
  17  -3   1     711     207
 -17   3  -2    1653     285
 -17   3  -2    1652     360
 -17   3  -3     539     269
 -17   3  -3     513     300
 -17   3  -4     245     240
 -17   3  -4     328     282
 -17   3  -5     230     275
 -17   3  -5     103     242
 -17   3  -6     522     288
 -17   3  -6     305     328
 -17   3  -7     600     274
 -17   3  -7     471     353
 -17   3  -8     139     326
 -17   3  -8     227     257
 -17   3  -9     387     374
 -17   3  -9     304     317
 -17   3 -10     629     351
 -17   3 -10    1027     413
 -18   4   9     823     320
 -18   4   9     509     345
 -18   4   8      26     268
 -18   4   8     213     324
 -18   4   7     364     316
 -18   4   7     517     289
 -18   4   6     428     268
 -18   4   6     462     338
 -18   4   5     134     314
 -18   4   5     412     261
 -18   4   4      46     216
 -18   4   4      84     321
 -18   4   3    1627     376
 -18   4   3    2093     296
 -18   4   2     190     306
 -18   4   1      73     262
 -18   4   0    1485     364
 -18   4  -1     399     302
  18  -4   1     558     222
 -18   4  -2      21     291
  18  -4   2     499     223
 -18   4  -3    2837     339
 -18   4  -3    1740     348
 -18   4  -4     553     350
 -18   4  -4      34     252
 -18   4  -5       8     277
 -18   4  -5     416     286
 -18   4  -6     524     342
 -18   4  -6     470     302
 -18   4  -7       9     274
 -18   4  -7      19     315
 -18   4  -8      25     277
 -18   4  -8     120     329
 -18   4  -9    1247     406
 -18   4  -9     480     337
 -19   5   9       6     281
 -19   5   8      91     280
 -19   5   8     409     340
 -19   5   7    1169     385
 -19   5   7     672     294
 -19   5   6     210     246
 -19   5   6     365     325
 -19   5   5     629     336
 -19   5   5     482     244
 -19   5   4    1070     351
 -19   5   4    1451     305
 -19   5   3     356     283
 -19   5   3     274     249
 -19   5   2     674     346
 -19   5   1     660     300
 -19   5   0     133     274
 -19   5  -1     939     344
 -19   5  -2     328     317
  19  -5   2     607     260
 -19   5  -3     691     352
  19  -5   3     888     254
 -19   5  -4    1616     391
 -19   5  -4     694     276
  19  -5   4    1700     295
 -19   5  -5     721     291
 -19   5  -5     536     342
 -19   5  -6     469     292
 -19   5  -6       1     316
 -19   5  -7     805     319
 -19   5  -7      33     338
 -19   5  -8     501     374
 -19   5  -8     282     316
 -19   5  -9    1233     387
 -20   6   8       6     277
 -20   6   8     201     329
 -20   6   7     110     348
 -20   6   7      10     261
 -20   6   6       2     297
 -20   6   6       2     238
 -20   6   5      32      77
 -20   6   5      32     292
 -20   6   4      40     307
 -20   6   4     364     267
 -20   6   3     409     347
 -20   6   2      10     316
 -20   6   1     594     326
 -20   6   0      64     319
 -20   6  -1       6     302
 -20   6  -2     272     321
  20  -6   2     427     261
 -20   6  -3     445     336
  20  -6   3     443     257
 -20   6  -4     269     332
  20  -6   4     389     293
 -20   6  -5      77     324
  20  -6   5      32     240
 -20   6  -6      23     292
 -20   6  -6     129     335
  20  -6   6     348     281
 -20   6  -7      32     331
 -20   6  -7      32     288
 -20   6  -8     204     374
 -21   7   6     161     364
 -21   7   6       7     279
 -21   7   5      24     199
 -21   7   5      43     323
 -21   7   4      35     320
 -21   7   3     554     345
 -21   7   2     544     330
 -21   7   1     271     311
 -21   7   0     287     320
 -21   7  -1       1     306
 -21   7  -2       1     316
 -21   7  -3     692     378
  21  -7   3     609     294
 -21   7  -4     156     284
  21  -7   4     443     265
 -21   7  -5     288     342
  21  -7   5      24     284
 -21   7  -6      93     345
  21  -7   6     262     309
 -22   8   5     130     320
 -22   8   4     382     356
 -22   8   3     271     343
 -22   8   2       8     303
 -22   8   1      38     332
 -22   8   0       3     297
 -22   8  -1     379     353
 -22   8  -2       9     278
 -22   8  -3     227     324
 -22   8  -4     575     309
  22  -8   4     596     309
 -22   8  -5     433     364
  22  -8   5     284     329
 -23   9   2     223     337
 -23   9   1     497     338
 -23   9   0     109     302
 -23   9  -1     359     336
 -23   9  -2      58     342
   8 -23   1     541     228
   8 -23   1      17     329
   8 -23   0     126     383
   8 -23  -1     215     323
   7 -22   4     203     391
   7 -22   4     287     319
   7 -22   3     138     330
   7 -22   3     802     349
   7 -22   2      13     289
   7 -22   2     287     315
   7 -22   1     255     367
   7 -22   1      13     278
   7 -22   0       4     286
   7 -22  -1      10     345
   7 -22  -2      13     366
   7 -22  -3     451     375
   7 -22  -4      13     365
   6 -21   6     406     323
   6 -21   6     597     393
   6 -21   5       6     368
   6 -21   5     554     339
   6 -21   4       2     367
   6 -21   4     619     328
   6 -21   3      33     349
   6 -21   3     193     336
   6 -21   2     398     300
   6 -21   2     282     364
   6 -21   1     120     305
   6 -21   1     215     289
   6 -21   0     354     293
   6 -21   0     516     353
   6 -21  -1      79     344
   6 -21  -2     413     368
   6 -21  -3     190     350
   6 -21  -4     122     293
   6 -21  -5       8     297
   6 -21  -6       2     333
   5 -20   7      11     345
   5 -20   7     118     330
   5 -20   6     365     314
   5 -20   6     113     357
   5 -20   5      49     307
   5 -20   5     281     360
   5 -20   4       4     358
   5 -20   4     511     329
   5 -20   3    1006     347
   5 -20   3     858     333
   5 -20   2     131     348
   5 -20   2       7     331
   5 -20   1      59     309
   5 -20   1      37     253
   5 -20   0      28     280
   5 -20   0      91     280
   5 -20  -1      37     267
   5 -20  -2      65     334
   5 -20  -3     563     367
   5 -20  -4      92     331
   5 -20  -5       6     276
   5 -20  -6     359     365
   5 -20  -7     102     352
   4 -19   8       5     339
   4 -19   8     645     360
   4 -19   7       4     332
   4 -19   7     191     319
   4 -19   6     189     316
   4 -19   6     157     343
   4 -19   5     421     353
   4 -19   5       1     310
   4 -19   4     505     333
   4 -19   4     767     382
   4 -19   3     846     343
   4 -19   3     369     342
   4 -19   2     724     363
   4 -19   2     486     337
   4 -19   1     409     289
   4 -19   1     315     341
   4 -19   0      47     205
   4 -19   0     456     340
   4 -19  -1     135     277
   4 -19  -1     373     294
   4 -19  -2     519     301
   4 -19  -3     944     366
   4 -19  -4     781     320
   4 -19  -5     473     338
   4 -19  -6       8     293
   4 -19  -7     342     342
   4 -19  -8     409     368
   3 -18   9     170     333
   3 -18   9     254     359
   3 -18   8      11     320
   3 -18   8     311     345
   3 -18   7     144     333
   3 -18   7     438     341
   3 -18   6     760     340
   3 -18   6      13     320
   3 -18   5     786     341
   3 -18   5     234     328
   3 -18   4     101     312
   3 -18   4     307     331
   3 -18   3     392     328
   3 -18   3     113     302
   3 -18   2     458     324
   3 -18   2     883     323
   3 -18   1     238     305
   3 -18   1     467     338
   3 -18   0       0      77
   3 -18   0     188     306
   3 -18  -1     542     283
   3 -18  -1     270     285
   3 -18  -2     814     348
   3 -18  -3     147     279
   3 -18  -4     316     324
   3 -18  -5       5     316
   3 -18  -6     690     353
   3 -18  -7      96     288
   3 -18  -8     339     349
   3 -18  -9      18     330
   2 -17  10     284     353
   2 -17   9     404     303
   2 -17   8     518     352
   2 -17   8     122     338
   2 -17   7       8     302
   2 -17   7    1075     365
   2 -17   6     691     340
   2 -17   6     909     343
   2 -17   5     156     314
   2 -17   5     190     316
   2 -17   4     612     315
   2 -17   4       5     295
   2 -17   3     775     319
   2 -17   3     552     338
   2 -17   2      35     286
   2 -17   2      23     294
   2 -17   1       4     276
   2 -17   1     366     291
   2 -17   0      10     188
   2 -17   0     380     307
   2 -17  -1     439     268
   2 -17  -1      63     252
   2 -17  -2      23     247
   2 -17  -2     411     319
   2 -17  -3    1062     335
   2 -17  -4     110     257
   2 -17  -5     284     332
   2 -17  -6     470     298
   2 -17  -7      10     332
   2 -17  -8     255     341
   2 -17  -9      74     261
   2 -17 -10      45     275
   1 -16  10      45     327
   1 -16   9     193     329
   1 -16   8     293     331
   1 -16   8     587     354
   1 -16   7     714     310
   1 -16   7     770     329
   1 -16   6       8     296
   1 -16   6       8     270
   1 -16   5       2     281
   1 -16   5       2     287
   1 -16   4     186     280
   1 -16   4       4     281
   1 -16   3      20     269
   1 -16   3       1     277
   1 -16   2     139     284
   1 -16   2      19     277
   1 -16   1    1291     320
   1 -16   1    1358     309
   1 -16   0     617     280
   1 -16   0     541     314
   1 -16  -1     515     312
   1 -16  -1     946     295
   1 -16  -2      51     244
   1 -16  -2       6     226
   1 -16  -3       1     232
   1 -16  -3       1     246
   1 -16  -4     228     310
   1 -16  -5       2     248
   1 -16  -6      56     303
   1 -16  -7     918     309
   1 -16  -8     134     317
   1 -16  -9     306     334
   1 -16 -10       7     336
   0 -15  11      12     341
   0 -15  10     115     323
   0 -15   9      79     335
   0 -15   8    1280     387
   0 -15   7       3     295
   0 -15   7       3     254
   0 -15   6     206     303
   0 -15   6     394     322
   0 -15   5       1     227
   0 -15   5       1     288
   0 -15   4     594     290
   0 -15   4     693     310
   0 -15   3       1     258
   0 -15   3       1     270
   0 -15   2     211     277
   0 -15   2     165     276
   0 -15   1       3     252
   0 -15   1      23     282
   0 -15   0    8499     577
   0 -15   0    7771     541
   0 -15  -1       2     220
   0 -15  -1     107     285
   0 -15  -2     407     261
   0 -15  -2     106     286
   0 -15  -3     108     236
   0 -15  -3     368     258
   0 -15  -4     480     278
   0 -15  -5       1     270
   0 -15  -6     101     259
   0 -15  -7       3     246
   0 -15  -8    1220     368
   0 -15  -9     330     321
   0 -15 -10      23     329
   0 -15 -11     105     328
  -1 -14  11     192     348
  -1 -14  10     224     339
  -1 -14   9     385     347
  -1 -14   8     822     353
  -1 -14   7     777     303
  -1 -14   7     554     295
  -1 -14   6     390     288
  -1 -14   6      24     278
  -1 -14   5     130     299
  -1 -14   5     819     278
  -1 -14   4     251     296
  -1 -14   4     686     298
  -1 -14   3     267     284
  -1 -14   3       2     263
  -1 -14   2       9     274
  -1 -14   2     135     277
  -1 -14   1    2701     379
  -1 -14   1    2686     366
  -1 -14   0    3909     412
  -1 -14   0    4277     414
  -1 -14  -1    2799     389
  -1 -14  -2       6     229
  -1 -14  -2       7     254
  -1 -14  -3       2     232
  -1 -14  -3       2     241
  -1 -14  -4     393     255
  -1 -14  -4     600     299
  -1 -14  -5     298     260
  -1 -14  -6     242     304
  -1 -14  -7     143     294
  -1 -14  -8     397     272
  -1 -14  -9     131     308
  -1 -14 -10     258     337
  -1 -14 -11      55     326
  -2 -13  11      96     338
  -2 -13  10      68     279
  -2 -13   9       3     311
  -2 -13   8     218     311
  -2 -13   7    1131     351
  -2 -13   6    1026     288
  -2 -13   6    1221     345
  -2 -13   5     464     311
  -2 -13   5     586     271
  -2 -13   4     524     283
  -2 -13   4    1058     330
  -2 -13   3       6     234
  -2 -13   3      44     263
  -2 -13   2     954     283
  -2 -13   2     915     313
  -2 -13   1    2108     352
  -2 -13   1    2517     344
  -2 -13   0     124     272
  -2 -13   0       4     252
  -2 -13  -1    1659     316
  -2 -13  -1    1341     247
  -2 -13  -2     652     306
  -2 -13  -2    1029     294
  -2 -13  -3     225     284
  -2 -13  -3       5     247
  -2 -13  -4     713     270
  -2 -13  -4     661     271
  -2 -13  -5     371     294
  -2 -13  -6    1410     337
  -2 -13  -7     735     311
  -2 -13  -8       8     289
  -2 -13  -9     104     310
  -2 -13 -10     295     264
  -2 -13 -11       6     297
  -3 -12  12      13     327
  -3 -12  11      60     330
  -3 -12  10     195     338
  -3 -12   9     715     358
  -3 -12   8      11     289
  -3 -12   7     299     302
  -3 -12   6    1303     360
  -3 -12   6    1334     289
  -3 -12   5     621     257
  -3 -12   5     951     343
  -3 -12   4    1556     299
  -3 -12   4    1902     373
  -3 -12   3     701     247
  -3 -12   3     625     305
  -3 -12   2      44     259
  -3 -12   2     128     286
  -3 -12   1     638     253
  -3 -12   1     311     283
  -3 -12   0     988     290
  -3 -12   0     127     248
  -3 -12  -1     156     283
  -3 -12  -1     456     269
  -3 -12  -2     781     274
  -3 -12  -2     459     279
  -3 -12  -3     458     285
  -3 -12  -3     656     280
  -3 -12  -4    1937     323
  -3 -12  -4    1434     304
  -3 -12  -5     483     271
  -3 -12  -5     613     306
  -3 -12  -6    1755     342
  -3 -12  -7      73     242
  -3 -12  -8     138     252
  -3 -12  -9     295     301
  -3 -12 -10     394     280
  -3 -12 -11      85     274
  -3 -12 -12     424     342
  -4 -11  12     372     364
  -4 -11  11     310     348
  -4 -11  10     166     329
  -4 -11   9     664     335
  -4 -11   8     760     340
  -4 -11   7      86     305
  -4 -11   6      37     261
  -4 -11   5       0     293
  -4 -11   5       0     204
  -4 -11   4    3622     337
  -4 -11   4    3269     426
  -4 -11   3    1797     344
  -4 -11   3    1376     276
  -4 -11   2      23     228
  -4 -11   2     189     286
  -4 -11   1     527     285
  -4 -11   1     468     252
  -4 -11   0    2288     369
  -4 -11   0    2848     340
  -4 -11  -1     534     249
  -4 -11  -1     365     289
  -4 -11  -2     189     254
  -4 -11  -2      24      84
  -4 -11  -3    1667     326
  -4 -11  -3    1642     311
  -4 -11  -4    2914     351
  -4 -11  -4    3700     385
  -4 -11  -5       1     258
  -4 -11  -5       1     240
  -4 -11  -6     126     276
  -4 -11  -7     441     254
  -4 -11  -8     855     312
  -4 -11  -9     337     268
  -4 -11 -10     784     287
  -4 -11 -11      23     252
  -4 -11 -12     150     275
  -5 -10  12     111     328
  -5 -10  11       4     324
  -5 -10  10      80     318
  -5 -10   9    1457     385
  -5 -10   8      86     255
  -5 -10   7       0     280
  -5 -10   6     773     296
  -5 -10   5    1065     343
  -5 -10   4      54     208
  -5 -10   4     466     303
  -5 -10   3    5553     476
  -5 -10   3    4984     360
  -5 -10   2     147     211
  -5 -10   2     320     287
  -5 -10   1    1126     237
  -5 -10   1    1202     298
  -5 -10   0    5444     411
  -5 -10   0    5218     450
  -5 -10  -1    1415     265
  -5 -10  -1    1087     294
  -5 -10  -2     149     277
  -5 -10  -2     240     243
  -5 -10  -3    5439     430
  -5 -10  -3    5141     444
  -5 -10  -4      53     273
  -5 -10  -4      53     245
  -5 -10  -5    1233     306
  -5 -10  -5    1432     297
  -5 -10  -6     663     254
  -5 -10  -6     659     265
  -5 -10  -7       0     260
  -5 -10  -8       5     268
  -5 -10  -9    1002     335
  -5 -10 -10     187     303
  -5 -10 -11     117     305
  -5 -10 -12       1     251
  -6  -9  12      13     333
  -6  -9  11      17     335
  -6  -9  10     683     356
  -6  -9   9      84     316
  -6  -9   8      19     307
  -6  -9   7     611     270
  -6  -9   6       7     248
  -6  -9   5    1041     350
  -6  -9   4    1324     295
  -6  -9   4    1200     207
  -6  -9   3     783     225
  -6  -9   3     869     319
  -6  -9   2    3229     296
  -6  -9   2    3499     396
  -6  -9   1    1810     343
  -6  -9   1    1755     264
  -6  -9   0    4515     330
  -6  -9   0    3973     397
  -6  -9  -1    1784     280
  -6  -9  -1    2103     346
  -6  -9  -2    3141     373
  -6  -9  -2    2659     317
  -6  -9  -3      12      78
  -6  -9  -3     956     273
  -6  -9  -4    1031     279
  -6  -9  -4    1504     302
  -6  -9  -5    1041     302
  -6  -9  -5     797     302
  -6  -9  -6       7     260
  -6  -9  -6       7     240
  -6  -9  -7     706     252
  -6  -9  -8      27     227
  -6  -9  -9     148     297
  -6  -9 -10     394     266
  -6  -9 -11      17     297
  -6  -9 -12     275     284
  -7  -8  12       7     337
  -7  -8  11     167     328
  -7  -8  10       8     322
  -7  -8   9       5     298
  -7  -8   8       9     294
  -7  -8   7       1     272
  -7  -8   6     386     309
  -7  -8   5     215     298
  -7  -8   4    1500     345
  -7  -8   3    1928     355
  -7  -8   3    2167     228
  -7  -8   2     503     300
  -7  -8   2     391     185
  -7  -8   1    1477     345
  -7  -8   1    1754     248
  -7  -8   0       9     269
  -7  -8   0     405     204
  -7  -8  -1    1855     339
  -7  -8  -1    1656     277
  -7  -8  -2     532     235
  -7  -8  -2     684     300
  -7  -8  -3    1966     287
  -7  -8  -3    1899     350
  -7  -8  -4     957     310
  -7  -8  -4     994     250
  -7  -8  -5     288     261
  -7  -8  -5      13     269
  -7  -8  -6     212     219
  -7  -8  -6      62     262
  -7  -8  -7     279     262
  -7  -8  -7     225     254
  -7  -8  -8      66     266
  -7  -8  -9       3     229
  -7  -8 -10     293     270
  -7  -8 -11      15     292
  -7  -8 -12       6     310
  -8  -7  12       7     325
  -8  -7  11      35     273
  -8  -7  10     159     319
  -8  -7   9     249     317
  -8  -7   8     574     282
  -8  -7   7     414     311
  -8  -7   6     692     282
  -8  -7   5      78     255
  -8  -7   4     670     326
  -8  -7   3    1913     202
  -8  -7   3    2250     367
  -8  -7   2     421     307
  -8  -7   2     493     179
  -8  -7   1    2061     245
  -8  -7   1    2018     353
  -8  -7   0      41     185
  -8  -7   0     448     283
  -8  -7  -1    1737     349
  -8  -7  -1    1607     259
  -8  -7  -2       1     284
  -8  -7  -2     361     216
  -8  -7  -3    1877     283
  -8  -7  -3    1745     355
  -8  -7  -4    1357     278
  -8  -7  -4    1300     319
  -8  -7  -5      98     292
  -8  -7  -5     438     223
  -8  -7  -6      83     272
  -8  -7  -6     447     230
  -8  -7  -7       1     244
  -8  -7  -7      40     243
  -8  -7  -8     497     283
  -8  -7  -9      29     279
  -8  -7 -10     262     270
  -8  -7 -11     111     255
  -8  -7 -12     211     282
  -9  -6  12      51     338
  -9  -6  11      17     308
  -9  -6  10     681     358
  -9  -6   9     383     317
  -9  -6   8     339     312
  -9  -6   7     921     339
  -9  -6   6      13     257
  -9  -6   5     757     296
  -9  -6   4    1091     298
  -9  -6   3     626     331
  -9  -6   2    3039     372
  -9  -6   2    2969     241
  -9  -6   1    2269     231
  -9  -6   1    2034     373
  -9  -6   0    4558     436
  -9  -6   0    4580     303
  -9  -6  -1    1943     367
  -9  -6  -1    2031     266
  -9  -6  -2    3445     313
  -9  -6  -2    3105     402
  -9  -6  -3     898     241
  -9  -6  -3     455     308
  -9  -6  -4    1651     360
  -9  -6  -4    1147     232
  -9  -6  -5     790     216
  -9  -6  -5     770     241
  -9  -6  -6      83     211
  -9  -6  -6       7     274
  -9  -6  -7     794     279
  -9  -6  -7     984     290
  -9  -6  -8     575     273
  -9  -6  -8     116     274
  -9  -6  -9     212     250
  -9  -6 -10     424     316
  -9  -6 -11      17     252
  -9  -6 -12     226     320
 -10  -5  12       1     335
 -10  -5  11     119     335
 -10  -5  10     167     331
 -10  -5   9    1155     367
 -10  -5   8       5     285
 -10  -5   7     153     303
 -10  -5   6     935     300
 -10  -5   5    1277     354
 -10  -5   4      51     311
 -10  -5   3    4686     431
 -10  -5   2      69     145
 -10  -5   2      13     298
 -10  -5   1    1306     191
 -10  -5   1     709     329
 -10  -5   0    5822     497
 -10  -5   0    4972     332
 -10  -5  -1    1367     213
 -10  -5  -1    1338     342
 -10  -5  -2      58     305
 -10  -5  -2     102     190
 -10  -5  -3    4922     385
 -10  -5  -3    4990     465
 -10  -5  -4      58     287
 -10  -5  -4     181     220
 -10  -5  -5    1412     291
 -10  -5  -5     693     313
 -10  -5  -6     431     148
 -10  -5  -6     364     262
 -10  -5  -7     182     290
 -10  -5  -7     439     271
 -10  -5  -8     318     285
 -10  -5  -8       4     229
 -10  -5  -9    1093     291
 -10  -5 -10       4     235
 -10  -5 -11     220     258
 -10  -5 -12     309     310
 -11  -4  12       4     351
 -11  -4  11      45     334
 -11  -4  10      16     330
 -11  -4   9     575     338
 -11  -4   8    1078     351
 -11  -4   7     229     313
 -11  -4   6       8     260
 -11  -4   5       1     310
 -11  -4   4    3614     441
 -11  -4   3    1304     353
 -11  -4   2      24     306
 -11  -4   1     402     322
 -11  -4   1     690     173
 -11  -4   0    2120     250
 -11  -4   0    2079     392
 -11  -4  -1     624     194
 -11  -4  -1     421     320
 -11  -4  -2      24     293
 -11  -4  -2      24     205
 -11  -4  -3    1338     260
 -11  -4  -3    1695     366
 -11  -4  -4    3550     425
 -11  -4  -4    3195     348
 -11  -4  -5     257     243
 -11  -4  -5       1     289
 -11  -4  -6       8     234
 -11  -4  -6      69     295
 -11  -4  -7     268     169
 -11  -4  -7     414     266
 -11  -4  -8     449     278
 -11  -4  -8    1387     341
 -11  -4  -9     458     300
 -11  -4  -9     366     254
 -11  -4 -10     310     293
 -11  -4 -11      22     294
 -11  -4 -12     150     279
 -12  -3  12      47     352
 -12  -3  11      30     325
 -12  -3  10     307     341
 -12  -3   9     411     343
 -12  -3   8     170     322
 -12  -3   7      11     293
 -12  -3   6    1318     357
 -12  -3   5     748     337
 -12  -3   4    1509     370
 -12  -3   3     676     341
 -12  -3   2     344     308
 -12  -3   1     699     171
 -12  -3   1     294     315
 -12  -3   0     680     202
 -12  -3   0     992     348
 -12  -3  -1     460     198
 -12  -3  -1     564     285
 -12  -3  -2      45     184
 -12  -3  -2      45     251
 -12  -3  -3     468     229
 -12  -3  -3     828     343
 -12  -3  -4    1699     378
 -12  -3  -4    1545     295
 -12  -3  -5     283     321
 -12  -3  -5     499     251
 -12  -3  -6    1454     345
 -12  -3  -6     911     256
 -12  -3  -7     371     257
 -12  -3  -7     231     277
 -12  -3  -8     452     254
 -12  -3  -8     248     247
 -12  -3  -9     154     249
 -12  -3  -9     427     316
 -12  -3 -10     856     324
 -12  -3 -10      43     291
 -12  -3 -11     284     310
 -12  -3 -12      51     277
 -13  -2  11     182     333
 -13  -2  10     250     326
 -13  -2   9     322     338
 -13  -2   8     260     321
 -13  -2   7     803     348
 -13  -2   6    1288     355
 -13  -2   5     335     277
 -13  -2   4     719     301
 -13  -2   3       6     317
 -13  -2   2     612     298
 -13  -2   1    1953     380
 -13  -2   0       4     318
 -13  -2   0       4     171
 -13  -2  -1    2520     277
 -13  -2  -1    1875     385
 -13  -2  -2     805     311
 -13  -2  -2     786     238
 -13  -2  -3      27     221
 -13  -2  -3       6     306
 -13  -2  -4     675     244
 -13  -2  -4     620     330
 -13  -2  -5     634     246
 -13  -2  -5     792     318
 -13  -2  -6    1118     334
 -13  -2  -6    1232     282
 -13  -2  -7     713     280
 -13  -2  -7     903     356
 -13  -2  -8     422     328
 -13  -2  -8     263     275
 -13  -2  -9     565     342
 -13  -2  -9     295     300
 -13  -2 -10     517     258
 -13  -2 -10     444     276
 -13  -2 -11       7     258
 -14  -1  11      15     330
 -14  -1  10      61     304
 -14  -1   9     192     346
 -14  -1   8    1021     364
 -14  -1   7     245     328
 -14  -1   6      25     307
 -14  -1   5     810     339
 -14  -1   4      12     303
 -14  -1   3     456     321
 -14  -1   2       7     306
 -14  -1   1    3061     436
 -14  -1   0    4178     311
 -14  -1   0    3132     425
 -14  -1  -1    2415     423
 -14  -1  -1    3323     311
 -14  -1  -2      76     211
 -14  -1  -2     183     318
 -14  -1  -3     318     325
 -14  -1  -3     478     241
 -14  -1  -4     570     256
 -14  -1  -4      70     301
 -14  -1  -5      15     296
 -14  -1  -5     922     260
 -14  -1  -6      25     275
 -14  -1  -6      86     247
 -14  -1  -7     748     292
 -14  -1  -7     550     323
 -14  -1  -8     354     292
 -14  -1  -8     284     308
 -14  -1  -9     606     348
 -14  -1  -9       6     274
 -14  -1 -10     177     321
 -14  -1 -10      59     294
 -14  -1 -11     427     336
 -15   0  11      13     311
 -15   0  10       1     334
 -15   0   9     185     341
 -15   0   8    1081     381
 -15   0   7      37     321
 -15   0   6     109     319
 -15   0   5       1     309
 -15   0   4     357     319
 -15   0   3     318     316
 -15   0   2     403     323
 -15   0   1     228     313
 -15   0   0    8222     618
 -15   0  -1     127     195
 -15   0  -1       2     304
 -15   0  -2     143     313
 -15   0  -2       0     208
 -15   0  -3       1     207
 -15   0  -3      42     309
 -15   0  -4     258     318
 -15   0  -4     319     235
 -15   0  -5      61     225
 -15   0  -5     315     301
 -15   0  -6       1     205
 -15   0  -6     105     295
 -15   0  -7       2     309
 -15   0  -7       2     254
 -15   0  -8    1025     396
 -15   0  -8     649     312
 -15   0  -9       1     288
 -15   0  -9     712     367
 -15   0 -10     113     316
 -15   0 -10       5     357
 -15   0 -11      92     327
 -15   0 -11      12     328
 -16   1  10      46     341
 -16   1  10     172     268
 -16   1   9     362     347
 -16   1   8     250     337
 -16   1   7     550     347
 -16   1   6       8     309
 -16   1   5       2     303
 -16   1   4     445     320
 -16   1   3       1     293
 -16   1   2       6     301
 -16   1   1    1642     365
 -16   1   0     842     336
 -16   1  -1     749     332
 -16   1  -1     791     225
 -16   1  -2       6     211
 -16   1  -2       6     261
 -16   1  -3       0     246
 -16   1  -3     249     238
 -16   1  -4     247     317
 -16   1  -4     261     232
 -16   1  -5      37     262
 -16   1  -5       2     294
 -16   1  -6       7     313
 -16   1  -6       7     252
 -16   1  -7     709     349
 -16   1  -7     102     273
 -16   1  -8     590     310
 -16   1  -8     700     355
 -16   1  -9     351     306
 -16   1  -9      87     356
 -16   1 -10      18     267
 -16   1 -10      47     316
 -17   2  10      44     352
 -17   2  10      91     288
 -17   2   9     117     283
 -17   2   9     546     376
 -17   2   8      41     254
 -17   2   8     392     338
 -17   2   7     414     254
 -17   2   7     481     332
 -17   2   6     683     264
 -17   2   6     995     363
 -17   2   5      13     308
 -17   2   5     262     216
 -17   2   4      66     304
 -17   2   3     375     296
 -17   2   2      22     306
 -17   2   2      22     192
 -17   2   1       3     300
 -17   2   0      10     303
 -17   2  -1     109     312
 -17   2  -2      23     309
 -17   2  -2      23     217
 -17   2  -3     871     305
 -17   2  -3     816     264
 -17   2  -4     392     329
 -17   2  -4     322     250
 -17   2  -5      14     243
 -17   2  -5      14     285
 -17   2  -6     851     369
 -17   2  -6     294     283
 -17   2  -7       8     281
 -17   2  -7     506     340
 -17   2  -8      21     281
 -17   2  -8      21     323
 -17   2  -9     584     349
 -17   2  -9     551     329
 -17   2 -10     322     356
 -17   2 -10     323     356
 -18   3   9      44     280
 -18   3   9      45     358
 -18   3   8       9     316
 -18   3   8     602     291
 -18   3   7     512     299
 -18   3   7     647     343
 -18   3   6      22     233
 -18   3   6      12     312
 -18   3   5       7     317
 -18   3   5     531     266
 -18   3   4     845     256
 -18   3   4     938     359
 -18   3   3      50     322
 -18   3   3     193     226
 -18   3   2     262     277
 -18   3   1      90     311
 -18   3   0     150     274
 -18   3  -1      46     305
 -18   3  -2     272     324
 -18   3  -2     469     252
 -18   3  -3      18     245
 -18   3  -3      18     297
 -18   3  -4     661     284
 -18   3  -4     617     348
 -18   3  -5      87     263
 -18   3  -5     363     302
 -18   3  -6     579     349
 -18   3  -6     904     295
 -18   3  -7     441     336
 -18   3  -7      36     286
 -18   3  -8      79     304
 -18   3  -8     627     372
 -18   3  -9       2     300
 -18   3  -9     410     349
 -19   4   8    1330     387
 -19   4   8       5     282
 -19   4   7     135     333
 -19   4   7     348     270
 -19   4   6     211     247
 -19   4   6     103     329
 -19   4   5     627     357
 -19   4   5       0     222
 -19   4   4    1245     296
 -19   4   4    1155     336
 -19   4   3     729     345
 -19   4   2     595     337
 -19   4   1     553     350
 -19   4   0     112     327
 -19   4  -1     405     287
 -19   4  -2     627     330
 -19   4  -3     313     344
 -19   4  -3     204     268
 -19   4  -4     996     378
 -19   4  -4    1028     318
 -19   4  -5     128     326
 -19   4  -5     371     273
 -19   4  -6     176     293
 -19   4  -6     223     344
 -19   4  -7     697     370
 -19   4  -7     193     311
 -19   4  -8      18     315
 -19   4  -8       5     341
 -20   5   7       8     317
 -20   5   7     148     296
 -20   5   6       1     232
 -20   5   6     806     358
 -20   5   5       5     297
 -20   5   5       5      78
 -20   5   4     254     333
 -20   5   3     767     322
 -20   5   2     183     295
 -20   5   1      15     321
 -20   5   0     487     324
 -20   5  -1      62     312
 -20   5  -2     103     327
 -20   5  -3     869     333
  20  -5   3    1454     320
 -20   5  -4       4     330
  20  -5   4     289     186
 -20   5  -5       6     291
 -20   5  -5     578     353
 -20   5  -6      28     313
 -20   5  -6       0     286
 -20   5  -7       1     336
 -20   5  -7      10     295
 -21   6   6       2     272
 -21   6   6     227     327
 -21   6   5      84     331
 -21   6   4     602     342
 -21   6   3     114     291
 -21   6   2      97     330
 -21   6   1     177     284
 -21   6   0     181     321
 -21   6  -1       9     318
 -21   6  -2      81     322
 -21   6  -3      75     334
 -21   6  -4     266     297
  21  -6   4     476     188
 -21   6  -5     185     333
  21  -6   5     115     270
 -21   6  -6       2     336
  21  -6   6     220     273
 -22   7   4     432     355
 -22   7   3     314     315
 -22   7   2     297     338
 -22   7   1     247     315
 -22   7   0      72     328
 -22   7  -1     367     333
 -22   7  -2      85     327
 -22   7  -3     129     337
 -22   7  -4     145     305
  22  -7   4      25     169
 -23   8   1      51     332
 -23   8   0      14     320
 -23   8  -1     226     313
   6 -22   4     118     375
   6 -22   4      14     316
   6 -22   3       5     344
   6 -22   3     223     306
   6 -22   2      11     293
   6 -22   2     108     309
   6 -22   1     409     321
   6 -22   1       1     353
   6 -22   0       0     346
   6 -22  -1      81     327
   6 -22  -2     152     363
   6 -22  -3      87     361
   6 -22  -4      14     356
   5 -21   5     211     334
   5 -21   5     284     370
   5 -21   4      27     345
   5 -21   4     162     336
   5 -21   3     291     322
   5 -21   3     843     374
   5 -21   2     425     336
   5 -21   2      58     337
   5 -21   1     215     311
   5 -21   1     450     316
   5 -21   0       1     293
   5 -21   0     801     360
   5 -21  -1     268     358
   5 -21  -2     382     311
   5 -21  -3      63     287
   5 -21  -4      27     283
   5 -21  -5      13     272
   4 -20   7      58     348
   4 -20   7     162     352
   4 -20   6     343     339
   4 -20   6     124     355
   4 -20   5     229     343
   4 -20   5       1     337
   4 -20   4      65     304
   4 -20   4     113     345
   4 -20   3      12     327
   4 -20   3     697     367
   4 -20   2     151     308
   4 -20   2       5     257
   4 -20   1      58     338
   4 -20   1      10     294
   4 -20   0      65     274
   4 -20   0     487     351
   4 -20  -1      92     291
   4 -20  -2     177     291
   4 -20  -3      12     273
   4 -20  -4      61     258
   4 -20  -5     184     354
   4 -20  -6       4     359
   4 -20  -7     107     351
   3 -19   8      17     350
   3 -19   8       7     319
   3 -19   7       8     323
   3 -19   7       8     325
   3 -19   6     279     331
   3 -19   6     262     373
   3 -19   5     369     339
   3 -19   5     176     344
   3 -19   4      13     310
   3 -19   4     108     327
   3 -19   3     648     314
   3 -19   3    1046     354
   3 -19   2       6     326
   3 -19   2     286     305
   3 -19   1      88     264
   3 -19   1     299     324
   3 -19   0     207     330
   3 -19   0       2     116
   3 -19  -1     125     275
   3 -19  -1      82     304
   3 -19  -2       5     312
   3 -19  -3     543     355
   3 -19  -4      52     316
   3 -19  -5      25     284
   3 -19  -6     399     296
   3 -19  -7     147     309
   3 -19  -8     159     308
   2 -18   8     112     352
   2 -18   7     366     352
   2 -18   7       4     300
   2 -18   6      61     317
   2 -18   6      23     312
   2 -18   5       6     330
   2 -18   5      12     326
   2 -18   4       3     315
   2 -18   4      15     303
   2 -18   3    1279     355
   2 -18   3     808     341
   2 -18   2     160     311
   2 -18   2      13     278
   2 -18   1     245     311
   2 -18   1      18     268
   2 -18   0      14     132
   2 -18   0      14     307
   2 -18  -1       4     301
   2 -18  -1      19     261
   2 -18  -2      13     242
   2 -18  -3     743     341
   2 -18  -4     113     331
   2 -18  -5       7     270
   2 -18  -6     548     289
   2 -18  -7     301     294
   2 -18  -8      84     293
   1 -17   9      62     345
   1 -17   8     280     349
   1 -17   7      54     330
   1 -17   7     259     338
   1 -17   6     817     356
   1 -17   6     564     325
   1 -17   5      80     304
   1 -17   5     165     323
   1 -17   4     511     313
   1 -17   4     749     339
   1 -17   3     439     337
   1 -17   3     623     306
   1 -17   2     154     295
   1 -17   2      23     262
   1 -17   1      39     277
   1 -17   1      96     297
   1 -17   0     321     300
   1 -17   0      29     269
   1 -17  -1     419     282
   1 -17  -1      10     242
   1 -17  -2      22     263
   1 -17  -2       9     290
   1 -17  -3     582     317
   1 -17  -4     223     279
   1 -17  -5      57     314
   1 -17  -6     493     354
   1 -17  -7     511     342
   1 -17  -8     319     340
   1 -17  -9     284     342
   0 -16  10       4     345
   0 -16   9     167     348
   0 -16   8     441     362
   0 -16   7     764     310
   0 -16   7       8     326
   0 -16   6     748     341
   0 -16   6     223     328
   0 -16   5     215     289
   0 -16   5      36     299
   0 -16   4     259     320
   0 -16   4    1174     310
   0 -16   3     282     281
   0 -16   3      37     279
   0 -16   2       0     265
   0 -16   2     167     267
   0 -16   1     544     284
   0 -16   1     296     298
   0 -16   0     101     295
   0 -16   0     137     292
   0 -16  -1     421     295
   0 -16  -1      72     243
   0 -16  -2      74     282
   0 -16  -2       0     255
   0 -16  -3      88     291
   0 -16  -4     555     279
   0 -16  -5      26     264
   0 -16  -6      74     319
   0 -16  -7     666     344
   0 -16  -8     426     323
   0 -16  -9      19     257
   0 -16 -10       4     268
  -1 -15  10      45     317
  -1 -15   9     645     366
  -1 -15   8     373     348
  -1 -15   7     658     346
  -1 -15   6     377     285
  -1 -15   6       8     297
  -1 -15   5     288     314
  -1 -15   5     160     288
  -1 -15   4      39     297
  -1 -15   4       3     272
  -1 -15   3     290     296
  -1 -15   3       1     236
  -1 -15   2      31     266
  -1 -15   2       7     272
  -1 -15   1     894     301
  -1 -15   1    1078     304
  -1 -15   0    1008     314
  -1 -15   0     676     294
  -1 -15  -1      68     174
  -1 -15  -1     941     306
  -1 -15  -2     105     284
  -1 -15  -2       4     257
  -1 -15  -3     373     259
  -1 -15  -3       7     247
  -1 -15  -4     127     284
  -1 -15  -5     143     303
  -1 -15  -6       8     288
  -1 -15  -7     417     315
  -1 -15  -8     269     320
  -1 -15  -9     209     291
  -1 -15 -10      30     275
  -2 -14  11       1     328
  -2 -14  10      55     338
  -2 -14   9       5     319
  -2 -14   8     480     333
  -2 -14   7     126     276
  -2 -14   6     287     330
  -2 -14   6     504     278
  -2 -14   5       3     255
  -2 -14   5     133     263
  -2 -14   4     631     264
  -2 -14   4      38     293
  -2 -14   3     512     303
  -2 -14   3     358     275
  -2 -14   2       4     243
  -2 -14   2     128     282
  -2 -14   1     792     301
  -2 -14   1     250     260
  -2 -14   0    1938     327
  -2 -14   0    1356     315
  -2 -14  -1      13     165
  -2 -14  -1      13     253
  -2 -14  -2      15     279
  -2 -14  -2      15     269
  -2 -14  -3     300     247
  -2 -14  -3     181     276
  -2 -14  -4       9     271
  -2 -14  -5     244     291
  -2 -14  -6     670     312
  -2 -14  -7     372     297
  -2 -14  -8     326     269
  -2 -14  -9      81     315
  -2 -14 -10      88     280
  -2 -14 -11     122     342
  -3 -13  11       9     331
  -3 -13  10      71     339
  -3 -13   9      90     344
  -3 -13   8       3     314
  -3 -13   7     146     326
  -3 -13   6     495     278
  -3 -13   5       2     257
  -3 -13   5     185     246
  -3 -13   4      72     295
  -3 -13   4       7     245
  -3 -13   3    1574     303
  -3 -13   3    1200     334
  -3 -13   2     164     279
  -3 -13   2     417     249
  -3 -13   1     283     296
  -3 -13   1      90     242
  -3 -13   0     612     267
  -3 -13   0     539     290
  -3 -13  -1     158     274
  -3 -13  -1       0     286
  -3 -13  -2     121     262
  -3 -13  -2     420     288
  -3 -13  -3    1369     320
  -3 -13  -3    1122     287
  -3 -13  -4      35     260
  -3 -13  -4     144     243
  -3 -13  -5     120     235
  -3 -13  -6     103     272
  -3 -13  -7      19     290
  -3 -13  -8     651     283
  -3 -13  -9     308     313
  -3 -13 -10      27     309
  -3 -13 -11       8     246
  -4 -12  11      11     341
  -4 -12  10     546     361
  -4 -12   9     412     310
  -4 -12   8       1     311
  -4 -12   7     120     318
  -4 -12   6      17     259
  -4 -12   5     489     322
  -4 -12   4     122     227
  -4 -12   4       6     246
  -4 -12   3    1477     290
  -4 -12   3    1508     355
  -4 -12   2    1071     330
  -4 -12   2    1041     282
  -4 -12   1      95     288
  -4 -12   1     391     239
  -4 -12   0     139     274
  -4 -12   0     269     301
  -4 -12  -1     319     252
  -4 -12  -1      76     269
  -4 -12  -2       8     127
  -4 -12  -2    1177     299
  -4 -12  -3    1043     311
  -4 -12  -3    1137     317
  -4 -12  -4     556     281
  -4 -12  -4      92     265
  -4 -12  -5     123     226
  -4 -12  -5     396     280
  -4 -12  -6     278     291
  -4 -12  -7     134     248
  -4 -12  -8       1     225
  -4 -12  -9     809     342
  -4 -12 -10      29     291
  -4 -12 -11      96     315
  -5 -11  11     226     358
  -5 -11  10     107     340
  -5 -11   9     156     327
  -5 -11   8      46     321
  -5 -11   7       8     293
  -5 -11   6       0     302
  -5 -11   5     141     309
  -5 -11   4     797     244
  -5 -11   4     921     325
  -5 -11   3     796     239
  -5 -11   3     480     309
  -5 -11   2    1552     262
  -5 -11   2    1811     352
  -5 -11   1     302     250
  -5 -11   1      20     287
  -5 -11   0     387     304
  -5 -11   0     281     258
  -5 -11  -1      80     284
  -5 -11  -1      32     234
  -5 -11  -2    1452     292
  -5 -11  -2    1225     293
  -5 -11  -3     478     272
  -5 -11  -3     146     297
  -5 -11  -4    1239     318
  -5 -11  -4     499     240
  -5 -11  -5      18     257
  -5 -11  -5      18     265
  -5 -11  -6     670     299
  -5 -11  -7     265     240
  -5 -11  -8      20     245
  -5 -11  -9       5     289
  -5 -11 -10     793     338
  -5 -11 -11     406     344
  -6 -10  11     216     352
  -6 -10  10     140     347
  -6 -10   9     427     300
  -6 -10   8     186     316
  -6 -10   7    1006     340
  -6 -10   6       2     252
  -6 -10   5     210     310
  -6 -10   4     216     301
  -6 -10   3    1508     366
  -6 -10   3    1607     257
  -6 -10   2    1674     271
  -6 -10   2    1459     361
  -6 -10   1    1530     340
  -6 -10   1    1650     269
  -6 -10   0      45     209
  -6 -10   0      53     290
  -6 -10  -1    1126     280
  -6 -10  -1    1730     360
  -6 -10  -2    1207     286
  -6 -10  -2    1593     364
  -6 -10  -3    1825     329
  -6 -10  -4      18     288
  -6 -10  -4      18     252
  -6 -10  -5     350     278
  -6 -10  -5    1131     298
  -6 -10  -6       2     250
  -6 -10  -6     341     275
  -6 -10  -7     943     278
  -6 -10  -8      20     236
  -6 -10  -9     568     319
  -6 -10 -10     379     276
  -6 -10 -11       6     302
  -7  -9  12       9     363
  -7  -9  11     285     353
  -7  -9  10     153     300
  -7  -9   9     359     345
  -7  -9   8      58     313
  -7  -9   7     404     277
  -7  -9   6     838     293
  -7  -9   5     599     320
  -7  -9   4     256     296
  -7  -9   3    1045     343
  -7  -9   3     970     214
  -7  -9   2     575     319
  -7  -9   2     389     204
  -7  -9   1    1024     242
  -7  -9   1    1084     339
  -7  -9   0    1178     257
  -7  -9   0    1182     353
  -7  -9  -1    1091     270
  -7  -9  -1    1132     329
  -7  -9  -2     299     244
  -7  -9  -2      35     316
  -7  -9  -3     937     270
  -7  -9  -3     643     328
  -7  -9  -4     127     295
  -7  -9  -4      14     236
  -7  -9  -5     706     252
  -7  -9  -5     519     300
  -7  -9  -6     979     296
  -7  -9  -6     819     286
  -7  -9  -7     168     231
  -7  -9  -8     128     249
  -7  -9  -9     286     299
  -7  -9 -10      13     296
  -7  -9 -11      23     250
  -7  -9 -12       9     265
  -8  -8  12       2     325
  -8  -8  11      57     341
  -8  -8  10      58     330
  -8  -8   9       4     315
  -8  -8   8       8     283
  -8  -8   7     379     283
  -8  -8   6    2212     381
  -8  -8   5     429     287
  -8  -8   4    1035     337
  -8  -8   3     724     286
  -8  -8   2     872     199
  -8  -8   2     892     293
  -8  -8   1    1228     300
  -8  -8   1    1099     217
  -8  -8   0    2198     381
  -8  -8   0    2354     295
  -8  -8  -1    1311     250
  -8  -8  -1    1313     331
  -8  -8  -2     742     321
  -8  -8  -2    1306     252
  -8  -8  -3     320     297
  -8  -8  -3     485     247
  -8  -8  -4     387     253
  -8  -8  -4     619     197
  -8  -8  -5     848     283
  -8  -8  -5     462     313
  -8  -8  -6    1946     334
  -8  -8  -6    1846     292
  -8  -8  -7     174     231
  -8  -8  -7     197     271
  -8  -8  -8       8     270
  -8  -8  -9     509     307
  -8  -8 -10     106     296
  -8  -8 -11      24     284
  -8  -8 -12       2     315
  -9  -7  12      18     348
  -9  -7  11      23     316
  -9  -7  10      76     340
  -9  -7   9     121     318
  -9  -7   8      27     295
  -9  -7   7      88     310
  -9  -7   6    1128     353
  -9  -7   5     249     308
  -9  -7   4     246     311
  -9  -7   3     984     347
  -9  -7   2     515     179
  -9  -7   2     510     329
  -9  -7   1     873     336
  -9  -7   1    1056     212
  -9  -7   0     679     341
  -9  -7   0     950     228
  -9  -7  -1     926     224
  -9  -7  -1    1106     340
  -9  -7  -2     907     357
  -9  -7  -2     682     228
  -9  -7  -3     726     333
  -9  -7  -3     696     250
  -9  -7  -4     600     246
  -9  -7  -4      15     308
  -9  -7  -5     541     260
  -9  -7  -6    1556     338
  -9  -7  -6     714     272
  -9  -7  -7     143     266
  -9  -7  -7     367     272
  -9  -7  -8      32     261
  -9  -7  -9     431     264
  -9  -7 -10      16     298
  -9  -7 -11      24     306
  -9  -7 -12     300     288
 -10  -6  11       5     324
 -10  -6  10     621     363
 -10  -6   9     284     334
 -10  -6   8      38     310
 -10  -6   7     733     339
 -10  -6   6       2     288
 -10  -6   5     123     305
 -10  -6   4      16     264
 -10  -6   3    1893     389
 -10  -6   2    1678     385
 -10  -6   1    1703     215
 -10  -6   1    1144     349
 -10  -6   0       9     172
 -10  -6   0     126     322
 -10  -6  -1    1318     246
 -10  -6  -1    1496     323
 -10  -6  -2    2174     285
 -10  -6  -2    1517     376
 -10  -6  -3    1689     293
 -10  -6  -3    1620     367
 -10  -6  -4     355     233
 -10  -6  -4     317     306
 -10  -6  -5     519     252
 -10  -6  -5     701     316
 -10  -6  -6     241     220
 -10  -6  -6     349     158
 -10  -6  -7     551     277
 -10  -6  -7     550     297
 -10  -6  -8     161     280
 -10  -6  -8      38     265
 -10  -6  -9     321     295
 -10  -6 -10     514     276
 -10  -6 -11       6     252
 -11  -5  11       6     335
 -11  -5  10     472     359
 -11  -5   9     143     331
 -11  -5   8      13     312
 -11  -5   7       7     319
 -11  -5   6     309     318
 -11  -5   5      31     271
 -11  -5   4     930     297
 -11  -5   3     571     324
 -11  -5   2    1254     363
 -11  -5   1      27     161
 -11  -5   1      59     319
 -11  -5   0     197     186
 -11  -5   0     355     330
 -11  -5  -1      24     316
 -11  -5  -1      24     198
 -11  -5  -2    1366     361
 -11  -5  -2    1611     250
 -11  -5  -3     275     218
 -11  -5  -3     383     326
 -11  -5  -4    1384     271
 -11  -5  -4     839     335
 -11  -5  -5      19     226
 -11  -5  -5     334     323
 -11  -5  -6     119     281
 -11  -5  -6     374     266
 -11  -5  -7     230     273
 -11  -5  -7     105     134
 -11  -5  -8     116     235
 -11  -5  -8     214     304
 -11  -5  -9     377     293
 -11  -5 -10     549     317
 -11  -5 -11       7     256
 -12  -4  11     255     357
 -12  -4  10     597     349
 -12  -4   9     650     369
 -12  -4   8     234     334
 -12  -4   7     117     280
 -12  -4   6     184     323
 -12  -4   5       3     264
 -12  -4   4     247     316
 -12  -4   3    1047     358
 -12  -4   2    1077     368
 -12  -4   1     110     325
 -12  -4   0     363     192
 -12  -4   0      12     322
 -12  -4  -1     471     203
 -12  -4  -1     276     322
 -12  -4  -2    1071     355
 -12  -4  -2     930     224
 -12  -4  -3    1201     261
 -12  -4  -3    1157     360
 -12  -4  -4     513     341
 -12  -4  -4     329     228
 -12  -4  -5     463     320
 -12  -4  -5     306     241
 -12  -4  -6      56     273
 -12  -4  -6      16     241
 -12  -4  -7     153     313
 -12  -4  -7      33     256
 -12  -4  -8     408     280
 -12  -4  -9    1763     374
 -12  -4  -9     388     310
 -12  -4 -10      30     282
 -12  -4 -11     323     314
 -13  -3  11     299     368
 -13  -3  10      28     338
 -13  -3   9      99     330
 -13  -3   8     376     339
 -13  -3   7     419     337
 -13  -3   6     117     310
 -13  -3   5     277     330
 -13  -3   4      35     306
 -13  -3   3    1235     363
 -13  -3   2     191     319
 -13  -3   1     185     288
 -13  -3   0     508     347
 -13  -3   0     972     220
 -13  -3  -1      20     312
 -13  -3  -1      93     187
 -13  -3  -2     197     192
 -13  -3  -2       7     312
 -13  -3  -3    1422     372
 -13  -3  -3    1403     285
 -13  -3  -4      99     223
 -13  -3  -4      32     297
 -13  -3  -5      54     232
 -13  -3  -5      27     300
 -13  -3  -6     323     259
 -13  -3  -6     207     288
 -13  -3  -7      28     311
 -13  -3  -7      20     244
 -13  -3  -8      59     276
 -13  -3  -8     591     340
 -13  -3  -9     394     296
 -13  -3 -10      29     294
 -13  -3 -11     591     344
 -14  -2  11       1     345
 -14  -2  10     325     368
 -14  -2   9      91     346
 -14  -2   8     613     354
 -14  -2   7     440     343
 -14  -2   6     447     334
 -14  -2   5      39     311
 -14  -2   4     171     319
 -14  -2   3     239     282
 -14  -2   2      18     261
 -14  -2   1      87     321
 -14  -2   0    1590     370
 -14  -2  -1     334     210
 -14  -2  -1      12     306
 -14  -2  -2      96     325
 -14  -2  -2      19     182
 -14  -2  -3     524     242
 -14  -2  -3      39     304
 -14  -2  -4     133     222
 -14  -2  -4      11     333
 -14  -2  -5      48     227
 -14  -2  -5       3     286
 -14  -2  -6     292     251
 -14  -2  -6     234     320
 -14  -2  -7     348     326
 -14  -2  -7     361     279
 -14  -2  -8       2     267
 -14  -2  -8    1080     366
 -14  -2  -9     465     323
 -14  -2  -9       3     291
 -14  -2 -10      74     251
 -14  -2 -11       1     299
 -15  -1  10      61     375
 -15  -1   9     243     347
 -15  -1   8     542     358
 -15  -1   7     493     362
 -15  -1   6       9     312
 -15  -1   5       3     325
 -15  -1   4     149     327
 -15  -1   3      91     314
 -15  -1   2       8     311
 -15  -1   1     738     336
 -15  -1   0     290     325
 -15  -1  -1    1230     232
 -15  -1  -1    1140     320
 -15  -1  -2     153     305
 -15  -1  -2       1     213
 -15  -1  -3     283     318
 -15  -1  -3       1     196
 -15  -1  -4       3     213
 -15  -1  -4       3     302
 -15  -1  -5       4     294
 -15  -1  -5       4     255
 -15  -1  -6       8     283
 -15  -1  -6      84     249
 -15  -1  -7    1097     357
 -15  -1  -7     771     304
 -15  -1  -8     551     301
 -15  -1  -8     289     313
 -15  -1  -9       2     291
 -15  -1  -9     417     326
 -15  -1 -10     174     350
 -15  -1 -10      43     312
 -16   0  10       5     345
 -16   0   9      20     339
 -16   0   8     126     346
 -16   0   7     194     336
 -16   0   6      11     274
 -16   0   5     145     328
 -16   0   4     401     297
 -16   0   3       9     300
 -16   0   2     171     299
 -16   0   1     567     290
 -16   0   0      32     316
 -16   0  -1      47     318
 -16   0  -2       0     296
 -16   0  -2      45     207
 -16   0  -3      11     321
 -16   0  -3       8     229
 -16   0  -4     410     328
 -16   0  -4       5     241
 -16   0  -5     100     245
 -16   0  -5      38     330
 -16   0  -6     375     342
 -16   0  -6     280     278
 -16   0  -7     457     287
 -16   0  -7     845     379
 -16   0  -8      28     235
 -16   0  -8     313     324
 -16   0  -9      19     294
 -16   0  -9     355     334
 -16   0 -10     136     322
 -16   0 -10     141     323
 -17   1   9     110     266
 -17   1   9      11     357
 -17   1   8      36     344
 -17   1   7     610     351
 -17   1   6     261     351
 -17   1   5      80     297
 -17   1   4     729     356
 -17   1   3     223     326
 -17   1   2      22     306
 -17   1   1     242     314
 -17   1   0       9     307
 -17   1  -1     218     319
 -17   1  -2       8     325
 -17   1  -2      40     221
 -17   1  -3    1000     348
 -17   1  -3     328     258
 -17   1  -4     527     259
 -17   1  -4     646     303
 -17   1  -5      79     243
 -17   1  -5      79     305
 -17   1  -6     843     300
 -17   1  -6     327     346
 -17   1  -7     484     291
 -17   1  -7     104     331
 -17   1  -8      16     295
 -17   1  -8      16     335
 -17   1  -9     343     383
 -17   1  -9      11     282
 -18   2   8       5     255
 -18   2   8     209     350
 -18   2   7       3     240
 -18   2   7       3     324
 -18   2   6     192     335
 -18   2   6     358     242
 -18   2   5      99     238
 -18   2   5      51     327
 -18   2   4     275     299
 -18   2   4     569     234
 -18   2   3     701     350
 -18   2   3     894     243
 -18   2   2      12     315
 -18   2   1      19     268
 -18   2   0      14     307
 -18   2  -1      19     322
 -18   2  -2      14     310
 -18   2  -3       2     306
 -18   2  -3    1193     279
 -18   2  -4     172     335
 -18   2  -4     654     259
 -18   2  -5      76     331
 -18   2  -5     246     263
 -18   2  -6     635     342
 -18   2  -6      90     273
 -18   2  -7      63     283
 -18   2  -7     848     363
 -18   2  -8       6     304
 -18   2  -8       6     338
 -19   3   8       2     344
 -19   3   8       8     302
 -19   3   7      65     342
 -19   3   7      92     281
 -19   3   6     312     261
 -19   3   6     293     339
 -19   3   5      25     305
 -19   3   5      81     199
 -19   3   4      51     240
 -19   3   4     148     342
 -19   3   3     794     358
 -19   3   2     176     329
 -19   3   1     644     347
 -19   3   0     183     327
 -19   3  -1     338     298
 -19   3  -2       5     315
 -19   3  -3     788     361
 -19   3  -3     612     272
 -19   3  -4     287     290
 -19   3  -4      13     303
 -19   3  -5      25     259
 -19   3  -5     239     348
 -19   3  -6       3     329
 -19   3  -6     315     288
 -19   3  -7       8     279
 -19   3  -7       8     334
 -19   3  -8     369     373
 -19   3  -8     355     317
 -20   4   7       4     237
 -20   4   7      18     338
 -20   4   6     246     341
 -20   4   6     401     257
 -20   4   5       1     104
 -20   4   5     385     342
 -20   4   4     336     333
 -20   4   3     246     333
 -20   4   2       5     305
 -20   4   1     365     350
 -20   4   0     647     358
 -20   4  -1      28     326
 -20   4  -2     366     330
 -20   4  -3     412     339
 -20   4  -4      65     279
 -20   4  -4      65     275
 -20   4  -5       1     257
 -20   4  -5      57     327
 -20   4  -6      31     288
 -20   4  -6     176     342
 -20   4  -7     196     308
 -20   4  -7     251     339
 -21   5   5      12     334
 -21   5   4      65     335
 -21   5   3     401     337
 -21   5   2     140     342
 -21   5   1     128     286
 -21   5   0      58     317
 -21   5  -1     309     328
 -21   5  -2     371     343
 -21   5  -3     364     348
 -21   5  -4      96     344
  21  -5   4     446     209
 -21   5  -5     498     324
  21  -5   5     408     265
 -22   6   4     364     365
 -22   6   3     138     338
 -22   6   2      13     323
 -22   6   1      12     317
 -22   6   0     376     341
 -22   6  -1     360     339
 -22   6  -2      22     285
 -22   6  -3     278     302
 -22   6  -4      13     342
   5 -22   3     487     386
   5 -22   3       7     360
   5 -22   2     264     340
   5 -22   2       2     287
   5 -22   1     257     321
   5 -22   1      15     283
   5 -22   0     671     384
   5 -22  -1     117     344
   5 -22  -2      49     315
   5 -22  -3      11     336
   4 -21   5     585     367
   4 -21   5       2     310
   4 -21   4      29     329
   4 -21   4      29     336
   4 -21   3     169     326
   4 -21   3     446     361
   4 -21   2     335     356
   4 -21   2     255     312
   4 -21   1     425     335
   4 -21   1      33     313
   4 -21   0     168     305
   4 -21   0       6     334
   4 -21  -1      29     343
   4 -21  -2       2     279
   4 -21  -3     633     365
   4 -21  -4      28     319
   4 -21  -5     191     313
   3 -20   6     776     371
   3 -20   6     285     354
   3 -20   5     104     329
   3 -20   5     787     352
   3 -20   4      50     324
   3 -20   4      17     349
   3 -20   3     204     324
   3 -20   3     517     356
   3 -20   2     348     314
   3 -20   2       2     320
   3 -20   1       1     306
   3 -20   1       1     306
   3 -20   0       3     211
   3 -20   0       3     322
   3 -20  -1     530     348
   3 -20  -2     195     284
   3 -20  -3     293     297
   3 -20  -4      49     318
   3 -20  -5       5     336
   3 -20  -6      17     334
   2 -19   7       8     339
   2 -19   7       8     327
   2 -19   6       1     301
   2 -19   6       1     300
   2 -19   5     530     319
   2 -19   5       7     325
   2 -19   4       1     295
   2 -19   4     284     323
   2 -19   3      18     301
   2 -19   3      18     308
   2 -19   2     532     322
   2 -19   2     667     333
   2 -19   1      13     310
   2 -19   1      61     294
   2 -19   0     441     278
   2 -19   0       3     104
   2 -19  -1      12     297
   2 -19  -1      29     291
   2 -19  -2     395     338
   2 -19  -3      20     304
   2 -19  -4       1     317
   2 -19  -5     200     337
   2 -19  -6     329     336
   2 -19  -7      98     299
   1 -18   8      15     331
   1 -18   7      17     322
   1 -18   6     435     322
   1 -18   6       2     311
   1 -18   5      23     285
   1 -18   5      92     323
   1 -18   4     352     310
   1 -18   4     316     328
   1 -18   3     419     314
   1 -18   3     331     322
   1 -18   2    1099     376
   1 -18   2    1486     357
   1 -18   1     322     309
   1 -18   1     132     264
   1 -18   0       1     229
   1 -18   0      58     307
   1 -18  -1      69     290
   1 -18  -1      21     297
   1 -18  -2    1294     357
   1 -18  -3     288     323
   1 -18  -4     563     355
   1 -18  -5      24     297
   1 -18  -6     825     367
   1 -18  -7     353     346
   1 -18  -8     209     298
   0 -17   9       3     351
   0 -17   8      39     317
   0 -17   7       6     334
   0 -17   6     374     353
   0 -17   6     967     353
   0 -17   5       0     310
   0 -17   5     144     332
   0 -17   4       0     283
   0 -17   4       0     280
   0 -17   3    1274     344
   0 -17   3    1189     367
   0 -17   2     447     305
   0 -17   2       1     297
   0 -17   1     254     287
   0 -17   1     102     297
   0 -17   0     333     306
   0 -17   0     173     309
   0 -17  -1       0     284
   0 -17  -1     547     305
   0 -17  -2       8     277
   0 -17  -2     851     322
   0 -17  -3    1196     366
   0 -17  -4       0     305
   0 -17  -5      71     268
   0 -17  -6     364     297
   0 -17  -7      28     282
   0 -17  -8      39     311
   0 -17  -9     582     340
  -1 -16   9       9     326
  -1 -16   8     362     355
  -1 -16   7     267     337
  -1 -16   6     509     304
  -1 -16   5      59     297
  -1 -16   5      84     326
  -1 -16   4    1263     365
  -1 -16   4     339     288
  -1 -16   3     173     307
  -1 -16   3     655     281
  -1 -16   2     273     318
  -1 -16   2      24     266
  -1 -16   1     345     325
  -1 -16   1      13     259
  -1 -16   0      10     266
  -1 -16   0     227     303
  -1 -16  -1     116     276
  -1 -16  -1      11     199
  -1 -16  -2      22     277
  -1 -16  -2      22     269
  -1 -16  -3     990     341
  -1 -16  -4     476     316
  -1 -16  -5     152     315
  -1 -16  -6     316     291
  -1 -16  -7     246     317
  -1 -16  -8     120     312
  -1 -16  -9       7     264
  -2 -15  10      44     321
  -2 -15   9       4     343
  -2 -15   8     157     285
  -2 -15   7     183     336
  -2 -15   6     807     322
  -2 -15   5     268     279
  -2 -15   5     292     334
  -2 -15   4       5     304
  -2 -15   4     937     299
  -2 -15   3     513     290
  -2 -15   3     455     325
  -2 -15   2      20     287
  -2 -15   2     222     284
  -2 -15   1     108     312
  -2 -15   1     190     291
  -2 -15   0     575     310
  -2 -15   0     207     261
  -2 -15  -1       5     132
  -2 -15  -1     240     273
  -2 -15  -2      28     272
  -2 -15  -2      28     243
  -2 -15  -3     432     295
  -2 -15  -3     375     249
  -2 -15  -4     564     264
  -2 -15  -5     360     313
  -2 -15  -6     654     334
  -2 -15  -7     291     270
  -2 -15  -8     339     329
  -2 -15  -9       4     271
  -2 -15 -10     400     352
  -3 -14  10     864     390
  -3 -14   9     266     346
  -3 -14   8       3     279
  -3 -14   7     695     325
  -3 -14   6     348     333
  -3 -14   5     588     335
  -3 -14   4      14     297
  -3 -14   4      18     249
  -3 -14   3     755     325
  -3 -14   3     730     267
  -3 -14   2    1295     291
  -3 -14   2    1549     352
  -3 -14   1     214     289
  -3 -14   1       8     246
  -3 -14   0       8     268
  -3 -14   0     243     259
  -3 -14  -1     187     273
  -3 -14  -1     134     292
  -3 -14  -2    1973     341
  -3 -14  -2    1486     340
  -3 -14  -3     112     270
  -3 -14  -3     519     292
  -3 -14  -4     281     292
  -3 -14  -5      95     246
  -3 -14  -6     158     303
  -3 -14  -7     191     272
  -3 -14  -8       3     302
  -3 -14  -9      77     297
  -3 -14 -10     659     342
  -4 -13  10     122     364
  -4 -13   9      30     338
  -4 -13   8      28     335
  -4 -13   7      96     329
  -4 -13   6      23     257
  -4 -13   5     240     304
  -4 -13   4     294     275
  -4 -13   4     228     240
  -4 -13   3     466     325
  -4 -13   3     458     262
  -4 -13   2    1667     354
  -4 -13   2    1691     313
  -4 -13   1     924     339
  -4 -13   1    1408     309
  -4 -13   0       1     239
  -4 -13   0     140     279
  -4 -13  -1    1264     315
  -4 -13  -1    1200     295
  -4 -13  -2      77     189
  -4 -13  -2    1617     318
  -4 -13  -3     348     277
  -4 -13  -3     517     295
  -4 -13  -4     276     276
  -4 -13  -4      89     224
  -4 -13  -5     263     279
  -4 -13  -6      23     280
  -4 -13  -7     763     297
  -4 -13  -8     412     273
  -4 -13  -9     147     314
  -4 -13 -10     494     335
  -5 -12  11      92     367
  -5 -12  10     589     363
  -5 -12   9     665     377
  -5 -12   8     332     337
  -5 -12   7      13     315
  -5 -12   6     339     287
  -5 -12   5      10     302
  -5 -12   4     229     309
  -5 -12   3    1954     297
  -5 -12   3    1348     323
  -5 -12   2       9     234
  -5 -12   2      11     283
  -5 -12   1     998     281
  -5 -12   1    1144     330
  -5 -12   0     906     307
  -5 -12   0     724     255
  -5 -12  -1     541     263
  -5 -12  -1    1059     321
  -5 -12  -2       5     239
  -5 -12  -2       5     219
  -5 -12  -3    1558     297
  -5 -12  -3    1821     363
  -5 -12  -4       7     254
  -5 -12  -4       5     274
  -5 -12  -5       9     309
  -5 -12  -5      41     272
  -5 -12  -6      96     272
  -5 -12  -7      13     282
  -5 -12  -8       1     291
  -5 -12  -9     272     305
  -5 -12 -10      97     276
  -6 -11  11       3     292
  -6 -11  10       8     331
  -6 -11   9     261     354
  -6 -11   8     290     332
  -6 -11   7     366     335
  -6 -11   6     681     342
  -6 -11   5       6     306
  -6 -11   4     231     294
  -6 -11   3     659     227
  -6 -11   3     249     309
  -6 -11   2     116     214
  -6 -11   2       1     279
  -6 -11   1       1     276
  -6 -11   1       1     212
  -6 -11   0       1     227
  -6 -11   0     127     293
  -6 -11  -1       0     218
  -6 -11  -1     464     322
  -6 -11  -2       1     227
  -6 -11  -2       1     274
  -6 -11  -3     347     263
  -6 -11  -3     182     226
  -6 -11  -4     174     308
  -6 -11  -4     663     278
  -6 -11  -5       7     275
  -6 -11  -5     326     235
  -6 -11  -6     307     241
  -6 -11  -7     221     289
  -6 -11  -8     131     252
  -6 -11  -9     159     301
  -6 -11 -10      83     307
  -6 -11 -11     156     276
  -7 -10  11       5     350
  -7 -10  10     232     354
  -7 -10   9     158     342
  -7 -10   8     640     350
  -7 -10   7      27     309
  -7 -10   6    1833     379
  -7 -10   5     164     321
  -7 -10   4      46     300
  -7 -10   3     164     307
  -7 -10   2      51     298
  -7 -10   2      17     187
  -7 -10   1      34     296
  -7 -10   1      34     209
  -7 -10   0     789     324
  -7 -10   0     771     244
  -7 -10  -1     118     290
  -7 -10  -1      32     213
  -7 -10  -2     337     235
  -7 -10  -2     116     285
  -7 -10  -3     149     254
  -7 -10  -3     357     248
  -7 -10  -4      13     228
  -7 -10  -4     130     302
  -7 -10  -5      37     287
  -7 -10  -5      30     253
  -7 -10  -6    1036     311
  -7 -10  -6    1228     332
  -7 -10  -7       3     228
  -7 -10  -8     656     311
  -7 -10  -9     110     306
  -7 -10 -10       2     281
  -7 -10 -11     146     272
  -8  -9  11      10     322
  -8  -9  10      28     322
  -8  -9   9       8     322
  -8  -9   8       1     307
  -8  -9   7    1206     371
  -8  -9   6     222     317
  -8  -9   5    1095     357
  -8  -9   4       0     291
  -8  -9   3     272     300
  -8  -9   2     308     180
  -8  -9   2      15     301
  -8  -9   1    1355     359
  -8  -9   1    1618     252
  -8  -9   0      73     327
  -8  -9   0     405     202
  -8  -9  -1    1468     269
  -8  -9  -1    1349     358
  -8  -9  -2     236     331
  -8  -9  -2      55     214
  -8  -9  -3     151     239
  -8  -9  -3      94     288
  -8  -9  -4     100      94
  -8  -9  -4     343     240
  -8  -9  -5     806     281
  -8  -9  -5    1014     335
  -8  -9  -6     327     270
  -8  -9  -6     608     311
  -8  -9  -7     808     302
  -8  -9  -8      50     281
  -8  -9  -9       8     279
  -8  -9 -10     165     315
  -8  -9 -11     185     326
  -9  -8  11      10     347
  -9  -8  10      28     344
  -9  -8   9       8     333
  -9  -8   8       1     300
  -9  -8   7     296     321
  -9  -8   6     291     321
  -9  -8   5    1065     355
  -9  -8   4      63     263
  -9  -8   3       7     288
  -9  -8   2      48     304
  -9  -8   1    1221     226
  -9  -8   1    1027     346
  -9  -8   0      87     314
  -9  -8   0       0     195
  -9  -8  -1    1431     268
  -9  -8  -1    1765     373
  -9  -8  -2      15     323
  -9  -8  -2     273     235
  -9  -8  -3     343     299
  -9  -8  -3      11     202
  -9  -8  -4       0     228
  -9  -8  -4     351     318
  -9  -8  -5     912     278
  -9  -8  -5     296     252
  -9  -8  -6     242     294
  -9  -8  -6     267     230
  -9  -8  -7     550     294
  -9  -8  -7    1044     315
  -9  -8  -8     156     238
  -9  -8  -9     247     302
  -9  -8 -10      85     306
  -9  -8 -11     273     284
 -10  -7  11       5     354
 -10  -7  10       2     339
 -10  -7   9       1     329
 -10  -7   8     337     346
 -10  -7   7      26     298
 -10  -7   6    1351     372
 -10  -7   5      37     297
 -10  -7   4      14     302
 -10  -7   3     386     323
 -10  -7   2      76     301
 -10  -7   1     941     330
 -10  -7   1     759     194
 -10  -7   0    1166     347
 -10  -7   0     880     217
 -10  -7  -1     291     204
 -10  -7  -1     661     318
 -10  -7  -2      17     301
 -10  -7  -2     136     201
 -10  -7  -3       8     222
 -10  -7  -3     248     332
 -10  -7  -4     141     227
 -10  -7  -4     272     298
 -10  -7  -5      35     303
 -10  -7  -5     158     242
 -10  -7  -6    1070     340
 -10  -7  -6    1518     316
 -10  -7  -7     298     300
 -10  -7  -7      18     260
 -10  -7  -8       6     227
 -10  -7  -9       1     243
 -10  -7 -10      95     299
 -10  -7 -11     311     322
 -11  -6  11       3     353
 -11  -6  10       7     325
 -11  -6   9     123     337
 -11  -6   8     231     348
 -11  -6   7     168     334
 -11  -6   6     254     293
 -11  -6   5     116     313
 -11  -6   4     212     308
 -11  -6   3     113     268
 -11  -6   2       1     263
 -11  -6   1     129     318
 -11  -6   0       0     307
 -11  -6   0       0     172
 -11  -6  -1       2     311
 -11  -6  -1       2     188
 -11  -6  -2     246     320
 -11  -6  -2       1     207
 -11  -6  -3     234     316
 -11  -6  -3     379     245
 -11  -6  -4     162     299
 -11  -6  -4     464     229
 -11  -6  -5       6     282
 -11  -6  -5       6     224
 -11  -6  -6     206     251
 -11  -6  -6     714     304
 -11  -6  -7     491     281
 -11  -6  -7     414     308
 -11  -6  -8      91     289
 -11  -6  -8     175     316
 -11  -6  -9     514     321
 -11  -6 -10      91     294
 -11  -6 -11       2     303
 -12  -5  11     281     379
 -12  -5  10      75     350
 -12  -5   9     610     370
 -12  -5   8     297     356
 -12  -5   7     576     350
 -12  -5   6       0     308
 -12  -5   5      10     314
 -12  -5   4     321     325
 -12  -5   3    1456     378
 -12  -5   2      38     320
 -12  -5   1     841     349
 -12  -5   0    1217     360
 -12  -5   0     996     222
 -12  -5  -1    1085     242
 -12  -5  -1    1464     372
 -12  -5  -2     215     200
 -12  -5  -2     415     309
 -12  -5  -3    1185     357
 -12  -5  -3    2029     301
 -12  -5  -4       1     220
 -12  -5  -4       5     283
 -12  -5  -5     631     320
 -12  -5  -5      10     229
 -12  -5  -6      98     324
 -12  -5  -6       0     201
 -12  -5  -7     261     261
 -12  -5  -7     335     240
 -12  -5  -8      48     239
 -12  -5  -8     737     340
 -12  -5  -9     948     339
 -12  -5 -10     156     299
 -13  -4  10     684     382
 -13  -4   9      34     316
 -13  -4   8       1     330
 -13  -4   7     527     359
 -13  -4   6     161     295
 -13  -4   5     331     286
 -13  -4   4     376     319
 -13  -4   3     788     346
 -13  -4   2    1173     329
 -13  -4   1    1531     380
 -13  -4   0       1     316
 -13  -4  -1    1220     240
 -13  -4  -1     653     345
 -13  -4  -2    1743     280
 -13  -4  -2    1086     370
 -13  -4  -3     325     242
 -13  -4  -3     174     316
 -13  -4  -4     225     245
 -13  -4  -4     131     307
 -13  -4  -5      11     300
 -13  -4  -5     397     241
 -13  -4  -6       5     327
 -13  -4  -6      26     250
 -13  -4  -7     298     281
 -13  -4  -7     454     326
 -13  -4  -8     442     290
 -13  -4  -8     400     300
 -13  -4  -9     554     341
 -13  -4  -9     181     258
 -13  -4 -10    1296     353
 -14  -3  10     498     368
 -14  -3   9      25     335
 -14  -3   8     337     350
 -14  -3   7     306     355
 -14  -3   6       2     329
 -14  -3   5     434     347
 -14  -3   4     227     326
 -14  -3   3     869     353
 -14  -3   2    1781     427
 -14  -3   1     443     327
 -14  -3   0       9     301
 -14  -3  -1     462     212
 -14  -3  -1     458     332
 -14  -3  -2    1254     365
 -14  -3  -2    1669     270
 -14  -3  -3     536     330
 -14  -3  -3     435     222
 -14  -3  -4     160     217
 -14  -3  -4     320     324
 -14  -3  -5     350     243
 -14  -3  -5     138     334
 -14  -3  -6       2     317
 -14  -3  -6     538     269
 -14  -3  -7     467     369
 -14  -3  -7     514     295
 -14  -3  -8       3     271
 -14  -3  -8      22     298
 -14  -3  -9      52     250
 -14  -3  -9    1352     360
 -14  -3 -10     403     332
 -15  -2  10      46     323
 -15  -2   9     404     362
 -15  -2   8     204     349
 -15  -2   7      10     332
 -15  -2   6     620     319
 -15  -2   5     490     350
 -15  -2   4     211     331
 -15  -2   3    1116     328
 -15  -2   2     229     328
 -15  -2   1     478     290
 -15  -2   0     621     328
 -15  -2  -1     428     333
 -15  -2  -2     193     329
 -15  -2  -2     331     223
 -15  -2  -3     338     333
 -15  -2  -3     841     257
 -15  -2  -4     566     240
 -15  -2  -4       6     310
 -15  -2  -5      12     313
 -15  -2  -5     175     251
 -15  -2  -6     708     349
 -15  -2  -6     647     278
 -15  -2  -7     225     275
 -15  -2  -7     332     330
 -15  -2  -8     216     343
 -15  -2  -8      24     276
 -15  -2  -9     333     342
 -15  -2  -9       4     290
 -15  -2 -10      44     277
 -15  -2 -10     556     373
 -16  -1   9      23     352
 -16  -1   8      27     345
 -16  -1   7       5     344
 -16  -1   6     538     369
 -16  -1   5     447     357
 -16  -1   4     118     335
 -16  -1   3     134     333
 -16  -1   2      22     272
 -16  -1   1     270     280
 -16  -1   0     253     342
 -16  -1  -1      12     316
 -16  -1  -2      25     208
 -16  -1  -2      33     283
 -16  -1  -3     497     234
 -16  -1  -3     538     347
 -16  -1  -4    1048     328
 -16  -1  -4     437     266
 -16  -1  -5      82     325
 -16  -1  -5     120     255
 -16  -1  -6     457     341
 -16  -1  -6     139     260
 -16  -1  -7       5     252
 -16  -1  -7     539     353
 -16  -1  -8     151     289
 -16  -1  -8     487     361
 -16  -1  -9     497     349
 -16  -1  -9       9     289
 -17   0   9      89     361
 -17   0   8     192     359
 -17   0   7      11     339
 -17   0   6    1188     377
 -17   0   5      71     286
 -17   0   4       0     332
 -17   0   3    1263     383
 -17   0   2     404     297
 -17   0   1     383     294
 -17   0   0     257     338
 -17   0  -1       2     280
 -17   0  -2     181     335
 -17   0  -3     890     375
 -17   0  -3     735     262
 -17   0  -4       0     255
 -17   0  -4     329     336
 -17   0  -5      68     317
 -17   0  -5      68     253
 -17   0  -6     421     287
 -17   0  -6     519     351
 -17   0  -7     292     348
 -17   0  -7     203     284
 -17   0  -8      50     303
 -17   0  -8      14     326
 -17   0  -9     447     371
 -18   1   8     445     388
 -18   1   8     443     282
 -18   1   7      17     340
 -18   1   6     572     359
 -18   1   5     565     346
 -18   1   4     710     347
 -18   1   3     750     365
 -18   1   2     534     300
 -18   1   1      21     312
 -18   1   0     329     337
 -18   1  -1      41     332
 -18   1  -2     729     373
 -18   1  -3      54     257
 -18   1  -3     591     359
 -18   1  -4       5     319
 -18   1  -4     200     255
 -18   1  -5      21     327
 -18   1  -5      87     259
 -18   1  -6       3     330
 -18   1  -6     174     275
 -18   1  -7       3     277
 -18   1  -7     215     350
 -18   1  -8     113     337
 -18   1  -8      15     294
 -19   2   7     283     294
 -19   2   7       8     334
 -19   2   6     277     274
 -19   2   6     396     360
 -19   2   5     922     381
 -19   2   5     542     203
 -19   2   4      43     218
 -19   2   4      21     286
 -19   2   3     364     342
 -19   2   2     719     360
 -19   2   1     200     348
 -19   2   0     474     361
 -19   2  -1      12     320
 -19   2  -2     572     344
 -19   2  -3      59     289
 -19   2  -4       1     319
 -19   2  -4       1     252
 -19   2  -5     383     272
 -19   2  -5     117     349
 -19   2  -6     339     367
 -19   2  -6       1     266
 -19   2  -7      65     357
 -19   2  -7       8     274
 -20   3   6       1     266
 -20   3   6      45     341
 -20   3   5     293     117
 -20   3   5       7     338
 -20   3   4     203     351
 -20   3   3      82     331
 -20   3   2      41     335
 -20   3   1     156     292
 -20   3   0     824     378
 -20   3  -1       2     320
 -20   3  -2     287     293
 -20   3  -3     100     338
 -20   3  -4     172     361
 -20   3  -5     302     284
 -20   3  -5       6     337
 -20   3  -6       1     324
 -20   3  -6       1     324
 -21   4   5     390     367
 -21   4   4     680     343
 -21   4   3       3     332
 -21   4   2     191     359
 -21   4   1     575     342
 -21   4   0     223     323
 -21   4  -1     323     323
 -21   4  -2     193     329
 -21   4  -3     379     325
 -21   4  -4      64     354
 -21   4  -5     224     284
 -21   4  -5     322     355
 -22   5   3     211     364
 -22   5   2     214     352
 -22   5   1      18     321
 -22   5   0      28     290
 -22   5  -1      64     332
 -22   5  -2       2     330
 -22   5  -3     284     359
   4 -22   0       1     350
   3 -21   4     188     347
   3 -21   4      53     344
   3 -21   3     543     347
   3 -21   3       3     319
   3 -21   2     549     346
   3 -21   2       0     303
   3 -21   1     405     351
   3 -21   1      20     293
   3 -21   0     574     320
   3 -21  -1      10     333
   3 -21  -2       0     316
   3 -21  -3       3     331
   3 -21  -4       9     324
   2 -20   5      31     330
   2 -20   5       7     371
   2 -20   4     397     372
   2 -20   4      72     367
   2 -20   3      19     320
   2 -20   3      76     323
   2 -20   2      20     305
   2 -20   2       5     314
   2 -20   1      97     275
   2 -20   1     113     303
   2 -20   0     221     332
   2 -20   0      16     131
   2 -20  -1      33     327
   2 -20  -2      72     334
   2 -20  -3     157     340
   2 -20  -4     332     359
   2 -20  -5     102     293
   1 -19   6       8     320
   1 -19   6       8     315
   1 -19   5       8     316
   1 -19   5     159     320
   1 -19   4       6     349
   1 -19   4     284     318
   1 -19   3     134     335
   1 -19   3     329     305
   1 -19   2     137     325
   1 -19   2     105     326
   1 -19   1     362     325
   1 -19   1     405     353
   1 -19   0     729     268
   1 -19   0    1349     325
   1 -19  -1     667     320
   1 -19  -1       1     315
   1 -19  -2       5     275
   1 -19  -3     858     350
   1 -19  -4     109     330
   1 -19  -5     474     297
   1 -19  -6     225     353
   0 -18   7      12     321
   0 -18   6      12     319
   0 -18   5     373     325
   0 -18   5     297     350
   0 -18   4     588     302
   0 -18   4      93     334
   0 -18   3     363     330
   0 -18   3     122     327
   0 -18   2     853     323
   0 -18   2     708     352
   0 -18   1     540     349
   0 -18   1     695     331
   0 -18   0     160     313
   0 -18   0     251     300
   0 -18  -1     456     321
   0 -18  -1     663     326
   0 -18  -2     951     354
   0 -18  -3     326     299
   0 -18  -4     117     318
   0 -18  -5      25     318
   0 -18  -6      12     275
   0 -18  -7     111     332
  -1 -17   8      30     369
  -1 -17   7      18     335
  -1 -17   6     169     330
  -1 -17   5     118     333
  -1 -17   5     482     308
  -1 -17   4      66     302
  -1 -17   4     378     334
  -1 -17   3     718     307
  -1 -17   3     328     362
  -1 -17   2    1246     329
  -1 -17   2     966     348
  -1 -17   1      45     293
  -1 -17   1      13     300
  -1 -17   0     141     322
  -1 -17   0      64     282
  -1 -17  -1      20     288
  -1 -17  -1      17     260
  -1 -17  -2    1496     372
  -1 -17  -2     724     319
  -1 -17  -3     365     273
  -1 -17  -4     100     314
  -1 -17  -5     618     298
  -1 -17  -6       2     310
  -1 -17  -7      21     274
  -1 -17  -8      54     330
  -2 -16   8       6     351
  -2 -16   7       4     338
  -2 -16   6     314     336
  -2 -16   5       7     316
  -2 -16   4     597     339
  -2 -16   4     309     266
  -2 -16   3     789     296
  -2 -16   3     849     361
  -2 -16   2     183     269
  -2 -16   2      10     327
  -2 -16   1      22     274
  -2 -16   1      36     272
  -2 -16   0      14     281
  -2 -16   0       3     273
  -2 -16  -1      22     103
  -2 -16  -1      22     236
  -2 -16  -2       9     286
  -2 -16  -2       9     284
  -2 -16  -3    1039     336
  -2 -16  -4     165     305
  -2 -16  -5       7     304
  -2 -16  -6     194     264
  -2 -16  -7     443     324
  -2 -16  -8     411     344
  -3 -15   9     501     335
  -3 -15   8      12     334
  -3 -15   7     468     368
  -3 -15   6     399     354
  -3 -15   5     509     344
  -3 -15   4     720     355
  -3 -15   4    1008     277
  -3 -15   3     328     284
  -3 -15   3     378     322
  -3 -15   2     499     270
  -3 -15   2     557     327
  -3 -15   1     427     323
  -3 -15   1     592     304
  -3 -15   0     221     300
  -3 -15   0     573     286
  -3 -15  -1     731     307
  -3 -15  -1     187     279
  -3 -15  -2     494     314
  -3 -15  -2     745     291
  -3 -15  -3     371     304
  -3 -15  -3      39     287
  -3 -15  -4     115     298
  -3 -15  -5     492     270
  -3 -15  -6     324     299
  -3 -15  -7     198     316
  -3 -15  -8      67     278
  -3 -15  -9     179     278
  -4 -14   9     679     353
  -4 -14   8       4     351
  -4 -14   7      86     340
  -4 -14   6     364     349
  -4 -14   5     128     336
  -4 -14   4     169     324
  -4 -14   3    1870     387
  -4 -14   3    2188     328
  -4 -14   2     103     236
  -4 -14   2     185     304
  -4 -14   1     343     277
  -4 -14   1     375     315
  -4 -14   0    1468     306
  -4 -14   0     844     321
  -4 -14  -1     482     318
  -4 -14  -1     401     285
  -4 -14  -2       0     238
  -4 -14  -2     119     269
  -4 -14  -3    2257     352
  -4 -14  -3    1980     358
  -4 -14  -4      22     239
  -4 -14  -5     356     306
  -4 -14  -6     576     337
  -4 -14  -7       9     288
  -4 -14  -8      27     288
  -4 -14  -9    1094     374
  -5 -13  10     394     338
  -5 -13   9       7     319
  -5 -13   8      21     296
  -5 -13   7     152     342
  -5 -13   6     185     327
  -5 -13   5     393     336
  -5 -13   4     955     312
  -5 -13   3    1208     263
  -5 -13   3     295     323
  -5 -13   2    1204     345
  -5 -13   2    1497     298
  -5 -13   1     653     264
  -5 -13   1      10     284
  -5 -13   0     848     331
  -5 -13   0    1357     288
  -5 -13  -1     322     295
  -5 -13  -1     731     265
  -5 -13  -2     449     206
  -5 -13  -2    1381     303
  -5 -13  -3     662     325
  -5 -13  -3     351     270
  -5 -13  -4     823     325
  -5 -13  -4    1505     294
  -5 -13  -5     407     257
  -5 -13  -6     213     251
  -5 -13  -7     566     316
  -5 -13  -8     779     323
  -5 -13  -9     842     344
  -5 -13 -10     180     287
  -6 -12  10     259     373
  -6 -12   9       0     340
  -6 -12   8     257     367
  -6 -12   7     353     300
  -6 -12   6     536     357
  -6 -12   5     100     326
  -6 -12   4     980     348
  -6 -12   3     249     308
  -6 -12   2      10     213
  -6 -12   2     183     307
  -6 -12   1     455     314
  -6 -12   1     413     246
  -6 -12   0       4     284
  -6 -12   0      46     240
  -6 -12  -1     672     277
  -6 -12  -1     876     346
  -6 -12  -2       8     266
  -6 -12  -2       8     231
  -6 -12  -3     506     268
  -6 -12  -3     390     294
  -6 -12  -4     819     324
  -6 -12  -4     852     298
  -6 -12  -5     807     318
  -6 -12  -6     465     298
  -6 -12  -7     870     331
  -6 -12  -8       9     235
  -6 -12  -9     190     316
  -6 -12 -10       7     261
  -7 -11  10       1     279
  -7 -11   9       7     322
  -7 -11   8     274     354
  -7 -11   7     334     300
  -7 -11   6    1046     322
  -7 -11   5     191     334
  -7 -11   4       3     295
  -7 -11   3     338     324
  -7 -11   2     438     308
  -7 -11   2     325     213
  -7 -11   1     167     313
  -7 -11   1     117     212
  -7 -11   0     103     230
  -7 -11   0     188     303
  -7 -11  -1     869     347
  -7 -11  -1     218     223
  -7 -11  -2     876     273
  -7 -11  -2     212     339
  -7 -11  -3     226     226
  -7 -11  -3     238     247
  -7 -11  -4     149     310
  -7 -11  -4     300     266
  -7 -11  -5      82     262
  -7 -11  -5       6     291
  -7 -11  -6     639     258
  -7 -11  -7     186     289
  -7 -11  -8     269     310
  -7 -11  -9       7     257
  -7 -11 -10       1     254
  -8 -10  10       7     334
  -8 -10   9     304     361
  -8 -10   8       1     339
  -8 -10   7     647     353
  -8 -10   6       2     317
  -8 -10   5     499     294
  -8 -10   4     252     320
  -8 -10   3       2     308
  -8 -10   2     858     335
  -8 -10   1    1577     257
  -8 -10   1    1990     386
  -8 -10   0    1649     359
  -8 -10   0    1229     270
  -8 -10  -1    1582     363
  -8 -10  -1    1518     278
  -8 -10  -2     186     227
  -8 -10  -2     463     340
  -8 -10  -3      76     226
  -8 -10  -3       2     314
  -8 -10  -4     271     216
  -8 -10  -4     622     266
  -8 -10  -5    1338     358
  -8 -10  -5    1191     301
  -8 -10  -6       2     281
  -8 -10  -6       2     263
  -8 -10  -7    1106     322
  -8 -10  -8     758     325
  -8 -10  -9       7     265
  -8 -10 -10     225     318
  -9  -9  10      29     333
  -9  -9   9      43     342
  -9  -9   8    1154     349
  -9  -9   7     133     342
  -9  -9   6    1192     341
  -9  -9   5      16     308
  -9  -9   4    1511     348
  -9  -9   3      80     306
  -9  -9   2      15     298
  -9  -9   1     814     216
  -9  -9   1     816     333
  -9  -9   0    5109     376
  -9  -9   0    4623     480
  -9  -9  -1    1048     242
  -9  -9  -1     811     334
  -9  -9  -2     288     311
  -9  -9  -2     335     224
  -9  -9  -3      80     304
  -9  -9  -3       8     203
  -9  -9  -4    1690     378
  -9  -9  -4    1901     311
  -9  -9  -5      32     249
  -9  -9  -5       4     310
  -9  -9  -6    1930     376
  -9  -9  -6     992     305
  -9  -9  -7       0     273
  -9  -9  -8    1474     319
  -9  -9  -9       8     277
  -9  -9 -10      76     266
 -10  -8  10       7     354
 -10  -8   9     127     350
 -10  -8   8     495     361
 -10  -8   7    1064     380
 -10  -8   6      66     330
 -10  -8   5    1093     370
 -10  -8   4       5     272
 -10  -8   3     277     323
 -10  -8   2     129     302
 -10  -8   1    1372     367
 -10  -8   0    1550     247
 -10  -8   0    1952     388
 -10  -8  -1    1347     250
 -10  -8  -1    1102     354
 -10  -8  -2     188     314
 -10  -8  -2     286     216
 -10  -8  -3     208     337
 -10  -8  -3      10     235
 -10  -8  -4     379     339
 -10  -8  -4     196     238
 -10  -8  -5     953     287
 -10  -8  -5     719     225
 -10  -8  -6      62     255
 -10  -8  -6       2     293
 -10  -8  -7    1185     324
 -10  -8  -7     665     317
 -10  -8  -8     761     325
 -10  -8  -9      14     295
 -10  -8 -10      45     255
 -11  -7  10       1     354
 -11  -7   9       7     341
 -11  -7   8       3     338
 -11  -7   7     506     364
 -11  -7   6     763     363
 -11  -7   5      67     326
 -11  -7   4       3     250
 -11  -7   3     460     333
 -11  -7   2     230     285
 -11  -7   1       8     310
 -11  -7   0       0     189
 -11  -7   0       0     299
 -11  -7  -1     373     216
 -11  -7  -1     436     335
 -11  -7  -2     299     228
 -11  -7  -2     193     355
 -11  -7  -3     265     221
 -11  -7  -3     197     316
 -11  -7  -4       3     223
 -11  -7  -4      73     301
 -11  -7  -5     466     256
 -11  -7  -5      19     327
 -11  -7  -6    1059     301
 -11  -7  -7     680     337
 -11  -7  -7     600     305
 -11  -7  -8       3     275
 -11  -7  -9     111     258
 -11  -7 -10       2     255
 -12  -6  10     516     391
 -12  -6   9       0     347
 -12  -6   8     333     361
 -12  -6   7     450     358
 -12  -6   6     872     377
 -12  -6   5     323     341
 -12  -6   4    1102     360
 -12  -6   3     462     341
 -12  -6   2       7     315
 -12  -6   1     746     348
 -12  -6   0       7     314
 -12  -6  -1     325     332
 -12  -6  -1     636     216
 -12  -6  -2     151     328
 -12  -6  -2      91     215
 -12  -6  -3     204     325
 -12  -6  -3     659     239
 -12  -6  -4    1208     273
 -12  -6  -4     422     329
 -12  -6  -5     304     276
 -12  -6  -5      82     317
 -12  -6  -6     702     367
 -12  -6  -6     518     284
 -12  -6  -7     625     291
 -12  -6  -8      52     240
 -12  -6  -8      21     293
 -12  -6  -9     262     294
 -12  -6 -10     231     269
 -13  -5  10     136     379
 -13  -5   9     476     374
 -13  -5   8     262     343
 -13  -5   7       4     339
 -13  -5   6       4     335
 -13  -5   5       2     306
 -13  -5   4    1180     377
 -13  -5   3     699     356
 -13  -5   2    1023     365
 -13  -5   1      10     319
 -13  -5   0    1260     375
 -13  -5  -1     336     284
 -13  -5  -2    1203     355
 -13  -5  -2    1219     256
 -13  -5  -3     725     237
 -13  -5  -3     592     337
 -13  -5  -4    1058     382
 -13  -5  -4    1391     292
 -13  -5  -5       2     306
 -13  -5  -5       2     225
 -13  -5  -6     563     364
 -13  -5  -6       4     250
 -13  -5  -7     314     307
 -13  -5  -7     345     283
 -13  -5  -8     251     248
 -13  -5  -9     257     267
 -13  -5 -10     512     334
 -14  -4   9     700     392
 -14  -4   8      73     369
 -14  -4   7      10     355
 -14  -4   6     713     330
 -14  -4   5     403     313
 -14  -4   4      36     330
 -14  -4   3    1978     398
 -14  -4   2     110     329
 -14  -4   1     395     337
 -14  -4   0    1881     390
 -14  -4  -1      56     314
 -14  -4  -2     308     337
 -14  -4  -2       0     206
 -14  -4  -3    2155     312
 -14  -4  -3    2186     406
 -14  -4  -4      18     324
 -14  -4  -4     147     242
 -14  -4  -5     368     259
 -14  -4  -5      34     370
 -14  -4  -6     534     376
 -14  -4  -6     648     279
 -14  -4  -7     289     278
 -14  -4  -7     581     353
 -14  -4  -8     167     310
 -14  -4  -8       4     275
 -14  -4  -9     874     335
 -15  -3   9     541     380
 -15  -3   8     211     367
 -15  -3   7      25     350
 -15  -3   6     508     358
 -15  -3   5     714     372
 -15  -3   4     924     382
 -15  -3   3      16     319
 -15  -3   2     545     348
 -15  -3   1     245     358
 -15  -3   0       0     294
 -15  -3  -1     169     337
 -15  -3  -2     246     330
 -15  -3  -3     180     328
 -15  -3  -3     229     245
 -15  -3  -4     578     258
 -15  -3  -4     821     372
 -15  -3  -5     735     360
 -15  -3  -5     259     250
 -15  -3  -6     298     319
 -15  -3  -6      15     252
 -15  -3  -7      28     266
 -15  -3  -7      28     288
 -15  -3  -8     206     359
 -15  -3  -8     254     300
 -15  -3  -9     321     318
 -15  -3  -9     889     346
 -16  -2   8     209     363
 -16  -2   7       4     341
 -16  -2   6     182     363
 -16  -2   5     201     361
 -16  -2   4       2     291
 -16  -2   3    1098     348
 -16  -2   2       9     298
 -16  -2   1     240     350
 -16  -2   0     203     344
 -16  -2  -1      21     320
 -16  -2  -2       0     283
 -16  -2  -3     815     372
 -16  -2  -3     765     254
 -16  -2  -4       2     328
 -16  -2  -4     156     260
 -16  -2  -5     224     257
 -16  -2  -5       7     311
 -16  -2  -6     774     285
 -16  -2  -6      22     317
 -16  -2  -7       4     275
 -16  -2  -7     256     339
 -16  -2  -8     435     364
 -16  -2  -8       5     284
 -17  -1   8     105     362
 -17  -1   7      19     348
 -17  -1   6      40     359
 -17  -1   5      25     339
 -17  -1   4     485     320
 -17  -1   3     136     293
 -17  -1   2    1249     380
 -17  -1   1     314     345
 -17  -1   0     164     350
 -17  -1  -1      20     284
 -17  -1  -2    1200     373
 -17  -1  -3     917     383
 -17  -1  -4     284     335
 -17  -1  -4       3     223
 -17  -1  -5     244     338
 -17  -1  -5      23     236
 -17  -1  -6     771     393
 -17  -1  -6     436     277
 -17  -1  -7      19     321
 -17  -1  -7     104     277
 -17  -1  -8      13     282
 -17  -1  -8      13     313
 -18   0   7     226     363
 -18   0   6     262     369
 -18   0   5     387     367
 -18   0   4       1     318
 -18   0   3     258     349
 -18   0   2     829     378
 -18   0   1     388     361
 -18   0   0       6     326
 -18   0  -1     687     367
 -18   0  -2     451     359
 -18   0  -3     376     359
 -18   0  -4      11     241
 -18   0  -4      37     326
 -18   0  -5     381     362
 -18   0  -5     530     297
 -18   0  -6      13     268
 -18   0  -6      13     311
 -18   0  -7      12     261
 -18   0  -7      12     354
 -19   1   6      16     335
 -19   1   6     447     269
 -19   1   5     850     392
 -19   1   4     336     352
 -19   1   3     516     369
 -19   1   2       5     333
 -19   1   1       1     321
 -19   1   0     783     368
 -19   1  -1     857     383
 -19   1  -2     105     280
 -19   1  -3     325     337
 -19   1  -4      74     327
 -19   1  -5      31     277
 -19   1  -5     433     363
 -19   1  -6     120     365
 -19   1  -6     176     293
 -20   2   5     556     375
 -20   2   4       2     295
 -20   2   3     483     374
 -20   2   2     116     344
 -20   2   1      58     331
 -20   2   0     625     363
 -20   2  -1     336     349
 -20   2  -2      66     329
 -20   2  -3      24     323
 -20   2  -4     246     343
 -20   2  -5     206     295
 -20   2  -5     401     368
 -21   3   4      10     325
 -21   3   3       3     340
 -21   3   2       0     281
 -21   3   1     155     355
 -21   3   0     609     374
 -21   3  -1      52     336
 -21   3  -2       0     322
 -21   3  -3       2     327
 -21   3  -4      46     349
 -22   4   0     249     359
 -22   4  -1     596     381
   2 -21   2     182     333
   2 -21   2       5     329
   2 -21   1     321     350
   2 -21   1       9     350
   2 -21   0     437     367
   2 -21  -1     286     347
   2 -21  -2      77     336
   1 -20   4     402     329
   1 -20   4     275     365
   1 -20   3      82     311
   1 -20   3      10     336
   1 -20   2      31     299
   1 -20   2      31     321
   1 -20   1       2     340
   1 -20   1       2     291
   1 -20   0      15     153
   1 -20   0     329     335
   1 -20  -1     382     330
   1 -20  -2      74     332
   1 -20  -3     635     374
   1 -20  -4     313     345
   0 -19   5       1     330
   0 -19   4     355     361
   0 -19   4     407     302
   0 -19   3      20     325
   0 -19   3     377     351
   0 -19   2      13     334
   0 -19   2      13     284
   0 -19   1     318     305
   0 -19   1     103     317
   0 -19   0     390     326
   0 -19   0     883     357
   0 -19  -1       4     298
   0 -19  -1       4     337
   0 -19  -2      14     312
   0 -19  -3      21     263
   0 -19  -4     884     360
   0 -19  -5       1     319
  -1 -18   6     786     384
  -1 -18   5      47     347
  -1 -18   4     430     305
  -1 -18   4     398     363
  -1 -18   3      22     332
  -1 -18   3     903     316
  -1 -18   2     106     283
  -1 -18   2     106     322
  -1 -18   1       1     293
  -1 -18   1     336     297
  -1 -18   0    1178     351
  -1 -18   0     435     352
  -1 -18  -1     630     317
  -1 -18  -1      88     310
  -1 -18  -2     121     331
  -1 -18  -3     551     339
  -1 -18  -4     162     279
  -1 -18  -5     232     335
  -1 -18  -6      26     332
  -2 -17   7       9     349
  -2 -17   6       2     349
  -2 -17   5     108     347
  -2 -17   4       1     328
  -2 -17   4     314     268
  -2 -17   3     750     297
  -2 -17   3     397     367
  -2 -17   2     749     308
  -2 -17   2     406     341
  -2 -17   1      13     295
  -2 -17   1     547     310
  -2 -17   0     764     318
  -2 -17   0     164     339
  -2 -17  -1     360     322
  -2 -17  -2     804     338
  -2 -17  -2     225     340
  -2 -17  -3     206     305
  -2 -17  -4     477     291
  -2 -17  -5     649     327
  -2 -17  -6     214     321
  -2 -17  -7     399     345
  -3 -16   8     141     319
  -3 -16   7     135     314
  -3 -16   6     676     371
  -3 -16   5     496     368
  -3 -16   4     344     349
  -3 -16   3    1068     377
  -3 -16   3    1091     325
  -3 -16   2     599     283
  -3 -16   2       7     323
  -3 -16   1     349     288
  -3 -16   1      89     339
  -3 -16   0     169     303
  -3 -16   0     344     296
  -3 -16  -1     198     295
  -3 -16  -1      89     276
  -3 -16  -2       8     295
  -3 -16  -2       8     275
  -3 -16  -3     751     341
  -3 -16  -4      88     309
  -3 -16  -5      86     295
  -3 -16  -6       4     295
  -3 -16  -7     253     336
  -3 -16  -8      45     283
  -4 -15   8      69     378
  -4 -15   7       7     342
  -4 -15   6     186     358
  -4 -15   5       0     332
  -4 -15   4     902     377
  -4 -15   3     545     348
  -4 -15   3     334     274
  -4 -15   2     192     276
  -4 -15   2     514     333
  -4 -15   1     359     330
  -4 -15   1     706     310
  -4 -15   0     168     274
  -4 -15   0     166     321
  -4 -15  -1     383     333
  -4 -15  -1     725     301
  -4 -15  -2      62     302
  -4 -15  -2     798     303
  -4 -15  -3     874     319
  -4 -15  -3      11     306
  -4 -15  -4     719     328
  -4 -15  -5     318     307
  -4 -15  -6     160     312
  -4 -15  -7     321     329
  -4 -15  -8     649     337
  -5 -14   8      99     354
  -5 -14   7     264     353
  -5 -14   6     151     345
  -5 -14   5     942     336
  -5 -14   4    1287     375
  -5 -14   3     284     337
  -5 -14   2     740     353
  -5 -14   2     403     270
  -5 -14   1    1088     292
  -5 -14   1     377     336
  -5 -14   0     135     252
  -5 -14   0      18     299
  -5 -14  -1     941     342
  -5 -14  -1     726     286
  -5 -14  -2       3     136
  -5 -14  -2     619     294
  -5 -14  -3     454     336
  -5 -14  -3     450     290
  -5 -14  -4    1214     294
  -5 -14  -5     619     313
  -5 -14  -6     523     323
  -5 -14  -7     310     312
  -5 -14  -8     241     282
  -6 -13   9       1     357
  -6 -13   8      10     339
  -6 -13   7       5     342
  -6 -13   6     653     358
  -6 -13   5     178     348
  -6 -13   4     268     343
  -6 -13   3    1737     398
  -6 -13   2     182     219
  -6 -13   2     125     325
  -6 -13   1      10     234
  -6 -13   1      10     295
  -6 -13   0     660     343
  -6 -13   0     483     247
  -6 -13  -1      10     223
  -6 -13  -1      10     290
  -6 -13  -2       8     301
  -6 -13  -2     254     262
  -6 -13  -3     951     354
  -6 -13  -3     980     310
  -6 -13  -4      92     236
  -6 -13  -4     226     329
  -6 -13  -5      79     290
  -6 -13  -6     255     256
  -6 -13  -7      73     298
  -6 -13  -8      12     252
  -6 -13  -9     409     331
  -7 -12   9       2     334
  -7 -12   8      15     336
  -7 -12   7     576     367
  -7 -12   6     124     353
  -7 -12   5     459     358
  -7 -12   4       7     326
  -7 -12   3      11     305
  -7 -12   2     152     322
  -7 -12   1     436     241
  -7 -12   1     792     340
  -7 -12   0     441     351
  -7 -12   0     301     249
  -7 -12  -1     131     346
  -7 -12  -1     635     273
  -7 -12  -2     118     338
  -7 -12  -2     393     249
  -7 -12  -3     274     263
  -7 -12  -3      11     120
  -7 -12  -4      75     264
  -7 -12  -4       5     318
  -7 -12  -5     589     295
  -7 -12  -6       3     222
  -7 -12  -7     223     288
  -7 -12  -8     146     310
  -7 -12  -9     513     334
  -8 -11   9      30     332
  -8 -11   8      12     339
  -8 -11   7       4     330
  -8 -11   6     515     352
  -8 -11   5      30     322
  -8 -11   4      32     279
  -8 -11   3     159     330
  -8 -11   2     275     326
  -8 -11   1       7     310
  -8 -11   0    2164     398
  -8 -11   0    1839     303
  -8 -11  -1     259     236
  -8 -11  -1     201     323
  -8 -11  -2     141     307
  -8 -11  -2     116     230
  -8 -11  -3      10     324
  -8 -11  -3     237     244
  -8 -11  -4      28     290
  -8 -11  -4      48     250
  -8 -11  -5      29     259
  -8 -11  -5     137     306
  -8 -11  -6     748     305
  -8 -11  -7      82     289
  -8 -11  -8      11     254
  -8 -11  -9      33     246
  -9 -10   9      56     369
  -9 -10   8     325     373
  -9 -10   7    1095     402
  -9 -10   6      75     338
  -9 -10   5     748     355
  -9 -10   4     748     361
  -9 -10   3     507     351
  -9 -10   2     130     325
  -9 -10   1     800     353
  -9 -10   0     948     353
  -9 -10   0     849     247
  -9 -10  -1    1139     267
  -9 -10  -1    1163     385
  -9 -10  -2     551     238
  -9 -10  -2      38     305
  -9 -10  -3      21     350
  -9 -10  -3     399     273
  -9 -10  -4      36     227
  -9 -10  -4      68     245
  -9 -10  -5     553     335
  -9 -10  -5     447     271
  -9 -10  -6     305     245
  -9 -10  -7    1027     338
  -9 -10  -8      35     258
  -9 -10  -9      42     300
 -10  -9   9       5     367
 -10  -9   8      36     342
 -10  -9   7     925     390
 -10  -9   6     257     337
 -10  -9   5     204     352
 -10  -9   4     230     293
 -10  -9   3     456     306
 -10  -9   2     330     329
 -10  -9   1    1136     365
 -10  -9   0     351     340
 -10  -9  -1    1044     256
 -10  -9  -1     928     358
 -10  -9  -2     302     246
 -10  -9  -2     102     350
 -10  -9  -3       4     316
 -10  -9  -3       4     212
 -10  -9  -4      37     302
 -10  -9  -4      37     237
 -10  -9  -5     684     278
 -10  -9  -5     353     100
 -10  -9  -6     227     328
 -10  -9  -6     166     264
 -10  -9  -7    2161     379
 -10  -9  -8     160     302
 -10  -9  -9     207     307
 -11  -8   9      32     304
 -11  -8   8      10     355
 -11  -8   7       3     330
 -11  -8   6     878     384
 -11  -8   5      29     339
 -11  -8   4      45     343
 -11  -8   3     235     329
 -11  -8   2     321     331
 -11  -8   1       7     305
 -11  -8   0    1467     395
 -11  -8  -1       9     321
 -11  -8  -1      52     205
 -11  -8  -2     328     235
 -11  -8  -2     200     324
 -11  -8  -3     181     220
 -11  -8  -3      11     312
 -11  -8  -4      30     221
 -11  -8  -4      30     314
 -11  -8  -5     423     316
 -11  -8  -5     402     255
 -11  -8  -6    1332     326
 -11  -8  -6     849     271
 -11  -8  -7       3     227
 -11  -8  -8      12     280
 -11  -8  -9     174     319
 -12  -7   9     316     380
 -12  -7   8      16     354
 -12  -7   7     211     367
 -12  -7   6       2     321
 -12  -7   5     237     303
 -12  -7   4      82     341
 -12  -7   3     242     342
 -12  -7   2     225     330
 -12  -7   1     539     356
 -12  -7   0      12     339
 -12  -7  -1     634     358
 -12  -7  -2     455     341
 -12  -7  -2      44     219
 -12  -7  -3     698     346
 -12  -7  -3     243     249
 -12  -7  -4     114     236
 -12  -7  -4      94     361
 -12  -7  -5     392     285
 -12  -7  -5     446     369
 -12  -7  -6       3     312
 -12  -7  -6       3     247
 -12  -7  -7     136     286
 -12  -7  -7     326     291
 -12  -7  -8      16     274
 -12  -7  -9      63     252
 -13  -6   9     548     389
 -13  -6   8      11     325
 -13  -6   7     171     358
 -13  -6   6    1038     345
 -13  -6   5     610     368
 -13  -6   4     207     356
 -13  -6   3    1105     398
 -13  -6   2      25     292
 -13  -6   1     251     349
 -13  -6   0     470     362
 -13  -6  -1     406     349
 -13  -6  -2     243     230
 -13  -6  -2     124     326
 -13  -6  -3    1362     304
 -13  -6  -3    1724     408
 -13  -6  -4      14     224
 -13  -6  -4      16     330
 -13  -6  -5     407     352
 -13  -6  -5     208     256
 -13  -6  -6     455     333
 -13  -6  -6     321     263
 -13  -6  -7       5     266
 -13  -6  -7     177     308
 -13  -6  -8     343     303
 -13  -6  -9       1     299
 -14  -5   8     540     395
 -14  -5   7     360     372
 -14  -5   6     260     367
 -14  -5   5     492     369
 -14  -5   4    1419     404
 -14  -5   3      79     357
 -14  -5   2     209     354
 -14  -5   1     759     373
 -14  -5   0       8     339
 -14  -5  -1     555     359
 -14  -5  -2     150     348
 -14  -5  -3     993     270
 -14  -5  -3     486     365
 -14  -5  -4    1668     291
 -14  -5  -4    1027     375
 -14  -5  -5     441     260
 -14  -5  -5     374     365
 -14  -5  -6     330     354
 -14  -5  -6     303     273
 -14  -5  -7     275     290
 -14  -5  -7     217     347
 -14  -5  -8     573     318
 -14  -5  -8      65     294
 -15  -4   8       5     367
 -15  -4   7     257     374
 -15  -4   6       9     356
 -15  -4   5     300     358
 -15  -4   4     893     382
 -15  -4   3     604     328
 -15  -4   2     371     361
 -15  -4   1     344     359
 -15  -4   0     139     296
 -15  -4  -1     233     332
 -15  -4  -2     467     368
 -15  -4  -3     342     250
 -15  -4  -3     124     343
 -15  -4  -4    1337     396
 -15  -4  -4     870     271
 -15  -4  -5     412     359
 -15  -4  -5       0     225
 -15  -4  -6     201     255
 -15  -4  -6     293     361
 -15  -4  -7      10     267
 -15  -4  -7     196     335
 -15  -4  -8     674     338
 -15  -4  -8     534     306
 -16  -3   8      49     367
 -16  -3   7       9     355
 -16  -3   6       4     363
 -16  -3   5      24     357
 -16  -3   4      14     288
 -16  -3   3     460     330
 -16  -3   2     660     379
 -16  -3   1     136     344
 -16  -3   0     882     384
 -16  -3  -1      87     333
 -16  -3  -2       7     340
 -16  -3  -3     910     377
 -16  -3  -4     167     361
 -16  -3  -4      14     261
 -16  -3  -5     125     275
 -16  -3  -5      24     336
 -16  -3  -6       4     321
 -16  -3  -6     340     281
 -16  -3  -7      10     302
 -16  -3  -7     248     294
 -16  -3  -8     462     373
 -16  -3  -8      72     304
 -17  -2   7     165     366
 -17  -2   6       2     333
 -17  -2   5      27     355
 -17  -2   4     140     304
 -17  -2   3      21     317
 -17  -2   2     671     328
 -17  -2   1      14     343
 -17  -2   0     429     356
 -17  -2  -1     501     373
 -17  -2  -2     491     362
 -17  -2  -3      19     341
 -17  -2  -4     242     355
 -17  -2  -4      20     258
 -17  -2  -5     133     255
 -17  -2  -5      77     326
 -17  -2  -6     408     359
 -17  -2  -6     354     285
 -17  -2  -7      72     287
 -17  -2  -7     135     390
 -18  -1   6       8     359
 -18  -1   5     123     370
 -18  -1   4     548     369
 -18  -1   3     461     371
 -18  -1   2      55     355
 -18  -1   1     101     349
 -18  -1   0     621     371
 -18  -1  -1     433     367
 -18  -1  -2      77     375
 -18  -1  -3     325     364
 -18  -1  -4       2     312
 -18  -1  -5     431     303
 -18  -1  -5     518     359
 -18  -1  -6     192     359
 -18  -1  -6     116     272
 -19   0   5       1     345
 -19   0   4     372     368
 -19   0   3     124     355
 -19   0   2     292     344
 -19   0   1       4     334
 -19   0   0     693     383
 -19   0  -1      16     340
 -19   0  -2      26     349
 -19   0  -3      20     290
 -19   0  -4     987     379
 -19   0  -5       1     335
 -20   1   4       1     362
 -20   1   3      81     376
 -20   1   2      31     327
 -20   1   1       1     277
 -20   1   0       1     318
 -20   1  -1     162     355
 -20   1  -2     245     359
 -20   1  -3      10     339
 -20   1  -4     373     359
 -21   2   2     427     366
 -21   2   1      41     355
 -21   2   0       0     365
 -21   2  -1     316     363
 -21   2  -2      14     344
   0 -20   2       0     329
   0 -20   2     297     322
   0 -20   1     215     324
   0 -20   1       7     328
   0 -20   0      72     322
   0 -20   0      15     255
   0 -20  -1     247     291
   0 -20  -2      19     280
  -1 -19   4     350     373
  -1 -19   3     247     368
  -1 -19   3     609     324
  -1 -19   2      27     351
  -1 -19   2      27     289
  -1 -19   1     121     326
  -1 -19   1     764     335
  -1 -19   0       1     335
  -1 -19   0       1     298
  -1 -19  -1     542     331
  -1 -19  -2     118     336
  -1 -19  -3     123     322
  -1 -19  -4       1     322
  -2 -18   5     152     369
  -2 -18   4     176     357
  -2 -18   3     236     321
  -2 -18   3      29     363
  -2 -18   2       4     277
  -2 -18   2      16     333
  -2 -18   1     594     312
  -2 -18   1      54     314
  -2 -18   0      13     336
  -2 -18   0     723     324
  -2 -18  -1      14     190
  -2 -18  -1     696     326
  -2 -18  -2       1     291
  -2 -18  -3      30     297
  -2 -18  -4     664     349
  -2 -18  -5      18     331
  -3 -17   6       1     344
  -3 -17   5      94     355
  -3 -17   4      51     339
  -3 -17   3       4     320
  -3 -17   2     106     339
  -3 -17   2     428     288
  -3 -17   1       2     323
  -3 -17   1       2     303
  -3 -17   0     366     307
  -3 -17   0       4     324
  -3 -17  -1       2     205
  -3 -17  -1       2     281
  -3 -17  -2     298     376
  -3 -17  -2     305     310
  -3 -17  -3       6     285
  -3 -17  -4      49     299
  -3 -17  -5       4     307
  -3 -17  -6     476     348
  -4 -16   7      12     363
  -4 -16   6       3     330
  -4 -16   5      78     343
  -4 -16   4      54     339
  -4 -16   3     266     341
  -4 -16   2     590     288
  -4 -16   2      21     361
  -4 -16   1      13     262
  -4 -16   1     103     337
  -4 -16   0     301     305
  -4 -16   0     419     344
  -4 -16  -1     454     306
  -4 -16  -1       9     341
  -4 -16  -2       4     317
  -4 -16  -2     412     297
  -4 -16  -3     350     298
  -4 -16  -4     192     293
  -4 -16  -5     242     263
  -4 -16  -6       3     319
  -4 -16  -7     146     338
  -5 -15   7       5     339
  -5 -15   6     424     364
  -5 -15   5       7     330
  -5 -15   4      58     329
  -5 -15   3     392     359
  -5 -15   2       5     314
  -5 -15   1      82     340
  -5 -15   1     222     244
  -5 -15   0     102     357
  -5 -15   0     616     300
  -5 -15  -1     160     280
  -5 -15  -1      33     308
  -5 -15  -2     160     277
  -5 -15  -2       6      99
  -5 -15  -3     727     322
  -5 -15  -3     703     355
  -5 -15  -4       7     286
  -5 -15  -5     111     255
  -5 -15  -6     306     330
  -5 -15  -7     134     277
  -6 -14   8      74     315
  -6 -14   7      21     342
  -6 -14   6       0     346
  -6 -14   5      33     336
  -6 -14   4     288     352
  -6 -14   3     350     350
  -6 -14   2     302     344
  -6 -14   1       6     361
  -6 -14   1     128     258
  -6 -14   0      61     252
  -6 -14   0     108     335
  -6 -14  -1     216     318
  -6 -14  -1       5     251
  -6 -14  -2     220     344
  -6 -14  -2     715     288
  -6 -14  -3     629     305
  -6 -14  -3     483     353
  -6 -14  -4     521     270
  -6 -14  -5     117     302
  -6 -14  -6     370     313
  -6 -14  -7      11     260
  -7 -13   8      14     367
  -7 -13   7      24     340
  -7 -13   6      50     330
  -7 -13   5      63     340
  -7 -13   4      88     331
  -7 -13   3      24     342
  -7 -13   2     443     347
  -7 -13   1       5     342
  -7 -13   0    1314     301
  -7 -13   0     212     332
  -7 -13  -1       9     249
  -7 -13  -1       9     318
  -7 -13  -2       9     330
  -7 -13  -2     273     285
  -7 -13  -3     301     273
  -7 -13  -3      23     138
  -7 -13  -4     572     353
  -7 -13  -4     431     290
  -7 -13  -5      26     274
  -7 -13  -6       5     281
  -7 -13  -7      23     279
  -7 -13  -8     117     320
  -8 -12   8      14     339
  -8 -12   7       3     340
  -8 -12   6      40     352
  -8 -12   5     198     349
  -8 -12   4      23     272
  -8 -12   3       0     334
  -8 -12   2       6     318
  -8 -12   1     190     339
  -8 -12   0     219     358
  -8 -12   0     341     231
  -8 -12  -1     331     260
  -8 -12  -1     114     331
  -8 -12  -2     121     249
  -8 -12  -2     574     371
  -8 -12  -3      85     312
  -8 -12  -3       1     242
  -8 -12  -4      63     268
  -8 -12  -4      93     338
  -8 -12  -5      19     279
  -8 -12  -6      78     272
  -8 -12  -7     364     308
  -8 -12  -8      11     252
  -9 -11   8      20     365
  -9 -11   7      25     357
  -9 -11   6     745     366
  -9 -11   5     247     337
  -9 -11   4      40     286
  -9 -11   3     354     357
  -9 -11   2     104     347
  -9 -11   1     510     347
  -9 -11   0     212     341
  -9 -11  -1     388     350
  -9 -11  -1     543     235
  -9 -11  -2     674     382
  -9 -11  -2     269     239
  -9 -11  -3       6     306
  -9 -11  -3       6     242
  -9 -11  -4     221     267
  -9 -11  -4     107     121
  -9 -11  -5     199     267
  -9 -11  -5     418     343
  -9 -11  -6     439     300
  -9 -11  -7     124     284
  -9 -11  -8      42     279
 -10 -10   8      25     335
 -10 -10   7      39     330
 -10 -10   6    1200     403
 -10 -10   5     128     318
 -10 -10   4      16     333
 -10 -10   3       0     326
 -10 -10   2     115     329
 -10 -10   1      30     328
 -10 -10   0     889     376
 -10 -10  -1      31     348
 -10 -10  -1      31     212
 -10 -10  -2     458     249
 -10 -10  -2      20     326
 -10 -10  -3       0     216
 -10 -10  -3       0     306
 -10 -10  -4      16     351
 -10 -10  -4      28     250
 -10 -10  -5      47     264
 -10 -10  -5     161     267
 -10 -10  -6    1457     341
 -10 -10  -7      65     292
 -10 -10  -8      42     300
 -11  -9   8      41     355
 -11  -9   7     414     383
 -11  -9   6     560     395
 -11  -9   5     238     369
 -11  -9   4      44     347
 -11  -9   3       6     335
 -11  -9   2     216     340
 -11  -9   1     561     353
 -11  -9   0       1     317
 -11  -9  -1      91     343
 -11  -9  -2     286     228
 -11  -9  -2     168     348
 -11  -9  -3     126     226
 -11  -9  -3       7     364
 -11  -9  -4     213     336
 -11  -9  -4     148     246
 -11  -9  -5     306     355
 -11  -9  -5      30     255
 -11  -9  -6     608     305
 -11  -9  -6     794     366
 -11  -9  -7     341     252
 -11  -9  -8      58     293
 -12  -8   8     169     379
 -12  -8   7     361     386
 -12  -8   6      77     302
 -12  -8   5     543     369
 -12  -8   4     148     350
 -12  -8   3     148     309
 -12  -8   2     133     347
 -12  -8   1      99     351
 -12  -8   0     846     368
 -12  -8  -1     284     352
 -12  -8  -2     328     243
 -12  -8  -2     111     342
 -12  -8  -3     257     368
 -12  -8  -3     231     229
 -12  -8  -4     183     380
 -12  -8  -4      23     231
 -12  -8  -5     100     258
 -12  -8  -5     160     358
 -12  -8  -6      65     209
 -12  -8  -6      15     276
 -12  -8  -7      89     288
 -12  -8  -8     416     313
 -13  -7   8       9     352
 -13  -7   7      20     344
 -13  -7   6      52     347
 -13  -7   5      27     349
 -13  -7   4     361     364
 -13  -7   3      24     349
 -13  -7   2     493     320
 -13  -7   1       8     327
 -13  -7   0     708     381
 -13  -7  -1     409     355
 -13  -7  -2     853     365
 -13  -7  -3     100     340
 -13  -7  -3      94     229
 -13  -7  -4      45     233
 -13  -7  -4      45     337
 -13  -7  -5     910     395
 -13  -7  -5     132     271
 -13  -7  -6     249     370
 -13  -7  -6      88     263
 -13  -7  -7      24     269
 -13  -7  -8      49     280
 -14  -6   8     404     395
 -14  -6   7      27     371
 -14  -6   6     225     322
 -14  -6   5      14     343
 -14  -6   4     429     376
 -14  -6   3     235     348
 -14  -6   2     348     368
 -14  -6   1     629     369
 -14  -6   0      21     341
 -14  -6  -1     234     338
 -14  -6  -2     222     349
 -14  -6  -3     443     356
 -14  -6  -3     585     269
 -14  -6  -4     423     273
 -14  -6  -4     280     351
 -14  -6  -5      33     329
 -14  -6  -5      33     240
 -14  -6  -6     149     370
 -14  -6  -6     166     274
 -14  -6  -7     547     367
 -14  -6  -7      21     265
 -15  -5   7       4     352
 -15  -5   6     182     376
 -15  -5   5       7     352
 -15  -5   4       6     335
 -15  -5   3     621     390
 -15  -5   2       6     279
 -15  -5   1     236     363
 -15  -5   0       0     336
 -15  -5  -1      34     329
 -15  -5  -2       5     339
 -15  -5  -3     754     372
 -15  -5  -4       6     252
 -15  -5  -4       6     333
 -15  -5  -5      97     352
 -15  -5  -5       7     275
 -15  -5  -6      25     268
 -15  -5  -6     331     353
 -15  -5  -7       4     334
 -15  -5  -7     299     290
 -16  -4   7     180     372
 -16  -4   6     358     375
 -16  -4   5      17     367
 -16  -4   4      64     346
 -16  -4   3      13     328
 -16  -4   2     378     377
 -16  -4   1       8     343
 -16  -4   0     118     354
 -16  -4  -1     233     357
 -16  -4  -2     413     368
 -16  -4  -3     137     354
 -16  -4  -4      64     307
 -16  -4  -4      64     244
 -16  -4  -5       2     319
 -16  -4  -5      84     249
 -16  -4  -6       3     348
 -16  -4  -6       3     247
 -16  -4  -7     199     293
 -16  -4  -7      11     309
 -17  -3   6       1     314
 -17  -3   5       3     333
 -17  -3   4      50     347
 -17  -3   3     267     363
 -17  -3   2      35     293
 -17  -3   1      96     352
 -17  -3   0     942     393
 -17  -3  -1       2     350
 -17  -3  -2       3     348
 -17  -3  -3     268     366
 -17  -3  -4     109     370
 -17  -3  -5       5     271
 -17  -3  -5     167     348
 -17  -3  -6     353     284
 -17  -3  -6       1     316
 -18  -2   5       6     368
 -18  -2   4       4     351
 -18  -2   3      31     337
 -18  -2   2      56     351
 -18  -2   1      16     298
 -18  -2   0     472     358
 -18  -2  -1      15     339
 -18  -2  -2      16     336
 -18  -2  -3     217     363
 -18  -2  -4     549     379
 -18  -2  -5       7     309
 -19  -1   4     232     371
 -19  -1   3       7     305
 -19  -1   2      26     336
 -19  -1   1     398     365
 -19  -1   0       1     292
 -19  -1  -1     562     366
 -19  -1  -2      28     355
 -19  -1  -3       9     344
 -19  -1  -4     657     380
 -20   0   2       0     360
 -20   0   1       7     350
 -20   0   0      15     297
 -20   0  -1       6     298
 -20   0  -2       0     369
 -20   0  -3     409     361
  -2 -19   2     227     366
  -2 -19   2     280     333
  -2 -19   1      11     353
  -2 -19   1     235     314
  -2 -19   0      24     306
  -2 -19   0     352     321
  -2 -19  -1      28     312
  -2 -19  -2     106     317
  -3 -18   4      17     368
  -3 -18   3       4     342
  -3 -18   2     483     298
  -3 -18   2       1     331
  -3 -18   1      19     353
  -3 -18   1      19     283
  -3 -18   0       2     314
  -3 -18   0     409     313
  -3 -18  -1      17     281
  -3 -18  -2      34     303
  -3 -18  -3       4     254
  -3 -18  -4     268     332
  -4 -17   5       1     355
  -4 -17   4      29     326
  -4 -17   3       7     356
  -4 -17   2      89     359
  -4 -17   1      36     273
  -4 -17   1     451     381
  -4 -17   0     232     305
  -4 -17   0       6     316
  -4 -17  -1     281     295
  -4 -17  -1      34     339
  -4 -17  -2     106     287
  -4 -17  -3     136     310
  -4 -17  -4      15     257
  -4 -17  -5      86     314
  -5 -16   5     271     371
  -5 -16   4     132     356
  -5 -16   3      15     328
  -5 -16   2       1     340
  -5 -16   1     165     369
  -5 -16   1     714     300
  -5 -16   0     238     340
  -5 -16   0       9     266
  -5 -16  -1     218     356
  -5 -16  -1      66     278
  -5 -16  -2       1     270
  -5 -16  -2       1     180
  -5 -16  -3     283     282
  -5 -16  -4      98     296
  -5 -16  -5     109     307
  -6 -15   6     197     379
  -6 -15   5       8     353
  -6 -15   4       1     345
  -6 -15   3      32     346
  -6 -15   2      38     350
  -6 -15   1      11     348
  -6 -15   0     667     280
  -6 -15   0      13     378
  -6 -15  -1      25     259
  -6 -15  -1       7     318
  -6 -15  -2     146     319
  -6 -15  -2     242     278
  -6 -15  -3     548     327
  -6 -15  -4       1     277
  -6 -15  -5     289     313
  -6 -15  -6       2     280
  -7 -14   6       7     352
  -7 -14   5      23     337
  -7 -14   4       7     364
  -7 -14   3      56     337
  -7 -14   2     151     356
  -7 -14   1       1     327
  -7 -14   0      53     238
  -7 -14   0       1     328
  -7 -14  -1       1     348
  -7 -14  -1       1     246
  -7 -14  -2       3     328
  -7 -14  -2      73     261
  -7 -14  -3     520     300
  -7 -14  -3      50     267
  -7 -14  -4     130     279
  -7 -14  -5     280     260
  -7 -14  -6       7     233
  -8 -13   7       1     359
  -8 -13   6      62     369
  -8 -13   5       9     344
  -8 -13   4      26     354
  -8 -13   3     471     375
  -8 -13   2      15     372
  -8 -13   1       8     336
  -8 -13   0       1     340
  -8 -13  -1     117     246
  -8 -13  -1     421     387
  -8 -13  -2      25     365
  -8 -13  -2     205     288
  -8 -13  -3     481     276
  -8 -13  -3     260     282
  -8 -13  -4      67     274
  -8 -13  -4      26     309
  -8 -13  -5     397     296
  -8 -13  -6     698     327
  -8 -13  -7     281     321
  -9 -12   7       5     354
  -9 -12   6      80     364
  -9 -12   5       4     349
  -9 -12   4      63     340
  -9 -12   3      19     341
  -9 -12   2       9     351
  -9 -12   1       1     342
  -9 -12   0     754     371
  -9 -12  -1      84     248
  -9 -12  -1     410     357
  -9 -12  -2     218     366
  -9 -12  -2     269     244
  -9 -12  -3      20     358
  -9 -12  -3     182     256
  -9 -12  -4     331     298
  -9 -12  -4      65     178
  -9 -12  -5     423     283
  -9 -12  -6     543     308
  -9 -12  -7      23     283
 -10 -11   7      14     350
 -10 -11   6     173     335
 -10 -11   5     481     385
 -10 -11   4      17     358
 -10 -11   3       4     362
 -10 -11   2       1     328
 -10 -11   1       5     344
 -10 -11   0       2     312
 -10 -11  -1     142     335
 -10 -11  -2       1     329
 -10 -11  -2       1     238
 -10 -11  -3     169     347
 -10 -11  -3      95     243
 -10 -11  -4     216     263
 -10 -11  -4      22     333
 -10 -11  -5     169     306
 -10 -11  -5      58     338
 -10 -11  -6      97     244
 -10 -11  -7      14     270
 -11 -10   7      84     383
 -11 -10   6       6     306
 -11 -10   5     135     389
 -11 -10   4     235     367
 -11 -10   3      74     365
 -11 -10   2     134     349
 -11 -10   1     103     350
 -11 -10   0     254     361
 -11 -10  -1     187     352
 -11 -10  -2     535     354
 -11 -10  -2       1     214
 -11 -10  -3       5     375
 -11 -10  -3     148     243
 -11 -10  -4      22     326
 -11 -10  -4      36     256
 -11 -10  -5     176     270
 -11 -10  -5     295     204
 -11 -10  -6      78     279
 -11 -10  -7      69     280
 -12  -9   7     167     384
 -12  -9   6      18     317
 -12  -9   5     455     367
 -12  -9   4      90     310
 -12  -9   3     174     366
 -12  -9   2     304     355
 -12  -9   1       1     332
 -12  -9   0       5     352
 -12  -9  -1       2     344
 -12  -9  -2       9     335
 -12  -9  -3      21     240
 -12  -9  -3       6     345
 -12  -9  -4     188     377
 -12  -9  -4     288     261
 -12  -9  -5     303     281
 -12  -9  -5     169     328
 -12  -9  -6     392     290
 -12  -9  -7      77     282
 -13  -8   7      40     316
 -13  -8   6      54     353
 -13  -8   5     335     319
 -13  -8   4      24     362
 -13  -8   3     489     332
 -13  -8   2      15     351
 -13  -8   1       9     314
 -13  -8   0     116     362
 -13  -8  -1       8     345
 -13  -8  -2      15     347
 -13  -8  -3     114     352
 -13  -8  -3     767     308
 -13  -8  -4     138     277
 -13  -8  -4     236     387
 -13  -8  -5       9     329
 -13  -8  -5     181     269
 -13  -8  -6     196     281
 -13  -8  -6      52     323
 -13  -8  -7     183     289
 -14  -7   6     221     382
 -14  -7   5     419     383
 -14  -7   4       8     366
 -14  -7   3      60     351
 -14  -7   2     232     376
 -14  -7   1       1     345
 -14  -7   0     146     358
 -14  -7  -1      75     362
 -14  -7  -2       3     375
 -14  -7  -3     230     394
 -14  -7  -4     429     366
 -14  -7  -4       8     225
 -14  -7  -5     644     296
 -14  -7  -5      22     333
 -14  -7  -6       8     238
 -14  -7  -6       8     354
 -15  -6   6       2     355
 -15  -6   5       8     378
 -15  -6   4     223     317
 -15  -6   3     132     379
 -15  -6   2      19     351
 -15  -6   1       7     349
 -15  -6   0      14     344
 -15  -6  -1       7     336
 -15  -6  -2      97     365
 -15  -6  -3      26     354
 -15  -6  -4       1     334
 -15  -6  -5      46     287
 -15  -6  -5     585     380
 -15  -6  -6      80     335
 -15  -6  -6      16     271
 -16  -5   5      13     357
 -16  -5   4      26     336
 -16  -5   3     252     326
 -16  -5   2     128     371
 -16  -5   1     361     369
 -16  -5   0       1     330
 -16  -5  -1     216     373
 -16  -5  -2     257     369
 -16  -5  -3      89     387
 -16  -5  -4      27     333
 -16  -5  -5      13     254
 -16  -5  -5     115     369
 -17  -4   5       1     375
 -17  -4   4       8     374
 -17  -4   3       6     360
 -17  -4   2     296     384
 -17  -4   1      34     307
 -17  -4   0       6     338
 -17  -4  -1     815     393
 -17  -4  -2       0     342
 -17  -4  -3      78     358
 -17  -4  -4     238     422
 -17  -4  -5       1     342
 -18  -3   4       8     365
 -18  -3   3      69     361
 -18  -3   2      80     364
 -18  -3   1     149     373
 -18  -3   0       1     347
 -18  -3  -1     230     372
 -18  -3  -2      94     363
 -18  -3  -3     360     387
 -18  -3  -4     190     370
 -19  -2   2     398     344
 -19  -2   1     447     393
 -19  -2   0     383     379
 -19  -2  -1      11     349
 -19  -2  -2       6     366
  -4 -18   0       1     362
  -5 -17   3     451     394
  -5 -17   2       4     368
  -5 -17   1      15     343
  -5 -17   0     878     307
  -5 -17   0       0     351
  -5 -17  -1     131     292
  -5 -17  -1      15     365
  -5 -17  -2       3     284
  -6 -16   4     193     385
  -6 -16   3      35     371
  -6 -16   2      12     354
  -6 -16   1       2     353
  -6 -16   0       0     334
  -6 -16  -1     885     327
  -6 -16  -1     293     380
  -6 -16  -2      12     212
  -6 -16  -2     111     289
  -6 -16  -3      48     280
  -7 -15   4      56     368
  -7 -15   3       5     371
  -7 -15   2      17     343
  -7 -15   1      10     339
  -7 -15   0       7     382
  -7 -15  -1      13     334
  -7 -15  -1      23     280
  -7 -15  -2      17     320
  -7 -15  -2      17     253
  -7 -15  -3     784     315
  -7 -15  -4     231     309
  -8 -14   5      25     361
  -8 -14   4     852     407
  -8 -14   3      26     373
  -8 -14   2     119     366
  -8 -14   1     317     398
  -8 -14   0      28     371
  -8 -14  -1     104     360
  -8 -14  -2     320     279
  -8 -14  -2       9     361
  -8 -14  -3       2     274
  -8 -14  -3      44     178
  -8 -14  -4    1180     319
  -8 -14  -5      27     286
  -9 -13   5      29     321
  -9 -13   4     813     375
  -9 -13   3      32     371
  -9 -13   2      88     370
  -9 -13   1     123     363
  -9 -13   0       6     377
  -9 -13  -1      45     384
  -9 -13  -2     533     267
  -9 -13  -2      18     358
  -9 -13  -3     106     382
  -9 -13  -3     526     276
  -9 -13  -4    1082     320
  -9 -13  -5      35     287
 -10 -12   5      97     387
 -10 -12   4     551     406
 -10 -12   3      16     364
 -10 -12   2       1     350
 -10 -12   1       4     349
 -10 -12   0      77     368
 -10 -12  -1       2     345
 -10 -12  -2      80     354
 -10 -12  -3     386     383
 -10 -12  -3     414     272
 -10 -12  -4      45     278
 -10 -12  -4      81     274
 -10 -12  -5     290     310
 -11 -11   5     184     410
 -11 -11   4       7     365
 -11 -11   3       9     339
 -11 -11   2     271     362
 -11 -11   1     268     361
 -11 -11   0      11     367
 -11 -11  -1      42     361
 -11 -11  -2     398     404
 -11 -11  -3       9     260
 -11 -11  -3     212     374
 -11 -11  -4       8     375
 -11 -11  -4       8     247
 -11 -11  -5      25     276
 -12 -10   5       6     364
 -12 -10   4     136     381
 -12 -10   3     356     383
 -12 -10   2      50     368
 -12 -10   1      84     368
 -12 -10   0     321     380
 -12 -10  -1     133     361
 -12 -10  -2       1     353
 -12 -10  -3     251     393
 -12 -10  -4      47     370
 -12 -10  -4      47     270
 -12 -10  -5       7     262
 -12 -10  -5     754     383
 -13  -9   5      30     334
 -13  -9   4    1102     426
 -13  -9   3     489     384
 -13  -9   2      18     304
 -13  -9   1       4     365
 -13  -9   0     284     407
 -13  -9  -1       4     363
 -13  -9  -2     423     370
 -13  -9  -3     413     378
 -13  -9  -4     963     426
 -13  -9  -4     824     295
 -13  -9  -5      26     372
 -13  -9  -5      28     255
 -14  -8   5     187     337
 -14  -8   4     414     405
 -14  -8   3       5     366
 -14  -8   2     200     343
 -14  -8   1     114     378
 -14  -8   0       5     350
 -14  -8  -1     438     391
 -14  -8  -2       9     342
 -14  -8  -3     820     392
 -14  -8  -4    1197     424
 -14  -8  -5     166     394
 -14  -8  -5      43     256
 -15  -7   4       3     365
 -15  -7   3     291     386
 -15  -7   2     290     370
 -15  -7   1      27     369
 -15  -7   0     328     387
 -15  -7  -1       9     356
 -15  -7  -2      15     365
 -15  -7  -3    1066     418
 -15  -7  -4       4     380
 -16  -6   4      12     393
 -16  -6   3     143     375
 -16  -6   2      12     362
 -16  -6   1       3     349
 -16  -6   0     320     376
 -16  -6  -1     298     368
 -16  -6  -2      38     394
 -16  -6  -3       5     359
 -16  -6  -4      48     374
 -17  -5   3       4     372
 -17  -5   2      85     372
 -17  -5   1     232     385
 -17  -5   0     945     423
 -17  -5  -1      15     343
 -17  -5  -2       3     360
 -17  -5  -3       9     347
 -18  -4   0      14     385
  -8 -15   1     138     382
  -8 -15   0      22     370
  -8 -15  -1     474     388
  -9 -14   2       6     375
  -9 -14   1      10     365
  -9 -14   0     455     396
  -9 -14  -1      17     389
  -9 -14  -2       7     344
 -10 -13   3       3     378
 -10 -13   2     185     390
 -10 -13   1     452     389
 -10 -13   0      36     368
 -10 -13  -1     100     409
 -10 -13  -2       8     385
 -10 -13  -3       3     383
 -11 -12   3       5     388
 -11 -12   2      29     373
 -11 -12   1     318     396
 -11 -12   0      32     356
 -11 -12  -1     107     388
 -11 -12  -2       0     374
 -11 -12  -3     179     356
 -12 -11   3     478     416
 -12 -11   2     199     378
 -12 -11   1      34     367
 -12 -11   0      32     361
 -12 -11  -1      37     387
 -12 -11  -2     739     407
 -12 -11  -3      39     365
 -13 -10   3     155     388
 -13 -10   2       8     379
 -13 -10   1       6     390
 -13 -10   0       4     371
 -13 -10  -1     381     392
 -13 -10  -2     130     386
 -13 -10  -3      71     374
 -14  -9   2     159     401
 -14  -9   1      38     376
 -14  -9   0     188     393
 -14  -9  -1      10     416
 -14  -9  -2      72     404
 -15  -8   1      17     366
 -15  -8   0       3     417
 -15  -8  -1     541     399
   0   0   0      17       0

;
_shelx_hkl_checksum              27126
_shelx_fab_file
;
    0    0    2     17.37     -0.18
    0    0    4    -19.01     -0.20
    0    0    6     -7.50     -0.20
    0    0    8      4.58     -0.03
    0    0   10      5.49      0.67
    0    0   12      0.81      0.35
    0    0   14     -1.86      0.15
    0    0   16      1.17      0.14
    0    1   16     -0.09      1.77
    0    1   15      0.60      0.23
    0    1   14      0.60      0.85
    0    1   13     -0.23      0.09
    0    1   12      1.66     -0.63
    0    1   11     -1.44      0.03
    0    1   10      0.03     -1.58
    0    1    9     -0.38     -0.28
    0    1    8      1.14     -0.06
    0    1    7      2.32     -0.76
    0    1    6      1.43      0.67
    0    1    5      3.40     -0.33
    0    1    4      1.64      0.79
    0    1    3      1.54      0.72
    0    1    2      5.56     -0.27
    0    1    1    -18.00      1.34
    0    1    0     36.10     -2.44
    0    2   16      0.01     -0.01
    0    2   15     -0.37      0.24
    0    2   14      0.37      0.06
    0    2   13     -0.36      0.12
    0    2   12     -0.49      0.45
    0    2   11      0.91      0.42
    0    2   10     -1.32      0.39
    0    2    9     -0.62      0.05
    0    2    8      0.57     -0.38
    0    2    7     -1.52      0.04
    0    2    6      1.21     -0.65
    0    2    5      3.28     -0.92
    0    2    4      3.32     -0.60
    0    2    3      7.88     -0.30
    0    2    2     -6.03      0.05
    0    2    1     -7.43      0.46
    0    2    0    -23.74      2.15
    0    3   16     -0.48     -0.09
    0    3   15     -0.86     -0.12
    0    3   14     -2.39     -0.15
    0    3   13      1.35     -0.05
    0    3   12     -0.57      0.06
    0    3   11      0.36      0.34
    0    3   10      1.56      0.46
    0    3    9     -0.51      0.08
    0    3    8      3.34      0.19
    0    3    7      0.06      0.06
    0    3    6     -2.52      0.12
    0    3    5     -2.27      0.15
    0    3    4    -16.02      0.02
    0    3    3     -1.87      0.20
    0    3    2      8.48     -0.44
    0    3    1      2.03     -0.53
    0    3    0     30.14      0.39
    0    4   16     -1.32      0.28
    0    4   15      0.25      0.26
    0    4   14     -1.10      0.18
    0    4   13     -0.81      0.63
    0    4   12      1.18     -0.80
    0    4   11     -3.03     -0.02
    0    4   10     -0.06     -0.45
    0    4    9     -0.17     -0.91
    0    4    8      1.70     -0.16
    0    4    7      0.39     -1.24
    0    4    6      1.66      0.25
    0    4    5      1.80     -0.09
    0    4    4     -2.65      0.39
    0    4    3      0.55      3.36
    0    4    2      0.89      0.15
    0    4    1     -8.84      2.11
    0    4    0     11.31     -0.83
    0    5   16      0.08     -0.12
    0    5   15     -0.30      0.25
    0    5   14      1.71     -0.34
    0    5   13     -0.56      0.24
    0    5   12     -0.48     -0.32
    0    5   11      0.39     -0.10
    0    5   10      0.29     -0.02
    0    5    9     -1.38      0.43
    0    5    8     -0.50      0.32
    0    5    7     -1.30     -0.22
    0    5    6      0.53      0.25
    0    5    5      3.02     -0.99
    0    5    4      2.86     -0.45
    0    5    3      8.32      0.29
    0    5    2      1.99     -0.30
    0    5    1      3.25      0.54
    0    5    0     -7.94      0.40
    0    6   15     -0.16     -0.20
    0    6   14     -0.80     -0.06
    0    6   13      1.02     -0.59
    0    6   12     -1.02     -0.28
    0    6   11      3.24      0.06
    0    6   10      1.42     -0.35
    0    6    9     -1.50      0.47
    0    6    8      1.86      0.24
    0    6    7      0.36      0.13
    0    6    6     -2.80      0.72
    0    6    5     -1.21      0.19
    0    6    4     -2.44     -0.38
    0    6    3     -0.46     -0.33
    0    6    2      1.49      0.01
    0    6    1      0.81     -0.56
    0    6    0     10.96     -0.37
    0    7   15     -0.17      0.10
    0    7   14     -0.23      1.45
    0    7   13      0.00      0.18
    0    7   12      0.31     -0.07
    0    7   11      1.12      0.27
    0    7   10      1.59     -1.30
    0    7    9      1.03     -0.52
    0    7    8      0.34     -0.15
    0    7    7     -1.03     -0.94
    0    7    6     -0.27     -0.03
    0    7    5     -2.31      0.11
    0    7    4     -0.36      0.45
    0    7    3      2.31      0.85
    0    7    2      4.48      0.22
    0    7    1      0.60      1.10
    0    7    0      3.94     -0.06
    0    8   15      1.45     -0.10
    0    8   14     -1.69      0.22
    0    8   13     -1.43      0.32
    0    8   12      1.47     -0.32
    0    8   11      1.16      0.25
    0    8   10     -1.05      0.52
    0    8    9     -0.21     -0.10
    0    8    8      0.86      0.72
    0    8    7     -1.02     -0.41
    0    8    6     -2.95     -0.19
    0    8    5     -0.29     -0.54
    0    8    4      1.31     -0.27
    0    8    3      0.02      0.63
    0    8    2      2.10      0.11
    0    8    1      0.89      0.47
    0    8    0     -4.06      0.21
    0    9   14     -0.29     -0.73
    0    9   13      1.91     -0.32
    0    9   12     -0.88     -0.17
    0    9   11     -0.22      0.13
    0    9   10      0.74     -0.26
    0    9    9     -0.87      1.17
    0    9    8      1.13      0.26
    0    9    7     -0.01      0.30
    0    9    6      1.01      0.07
    0    9    5      0.54      0.01
    0    9    4     -2.67     -0.29
    0    9    3      1.59     -0.36
    0    9    2     -3.12      0.27
    0    9    1     -0.48     -0.54
    0    9    0      1.17      0.49
    0   10   14     -0.12      0.81
    0   10   13     -0.86     -0.03
    0   10   12     -0.86     -0.19
    0   10   11      0.08      0.54
    0   10   10     -1.25     -2.51
    0   10    9      0.80      0.39
    0   10    8     -0.65     -0.65
    0   10    7      0.26     -0.28
    0   10    6     -0.40      0.43
    0   10    5      0.48     -0.51
    0   10    4      1.23      0.66
    0   10    3      3.78     -0.11
    0   10    2      0.61     -0.33
    0   10    1     -0.22     -0.06
    0   10    0     -0.76     -0.52
    0   11   13      0.03      0.26
    0   11   12     -1.07     -0.30
    0   11   11     -0.68     -0.33
    0   11   10     -2.12     -0.04
    0   11    9      0.47     -0.88
    0   11    8     -0.72      0.42
    0   11    7     -0.65     -0.26
    0   11    6      1.26     -0.15
    0   11    5     -0.18     -0.35
    0   11    4      1.71     -0.78
    0   11    3     -0.35      0.93
    0   11    2      3.80      0.57
    0   11    1      0.66      0.18
    0   11    0     -0.07      0.85
    0   12   13     -1.03     -0.57
    0   12   12      2.47     -0.20
    0   12   11     -1.86      0.00
    0   12   10      1.53      0.93
    0   12    9     -3.35      1.47
    0   12    8      2.01      0.01
    0   12    7      1.26      0.54
    0   12    6     -0.98     -0.05
    0   12    5      0.74      0.03
    0   12    4     -1.33     -0.74
    0   12    3     -0.36     -0.56
    0   12    2      1.41      2.16
    0   12    1      0.42      0.04
    0   12    0      2.36      0.55
    0   13   12      1.04     -0.18
    0   13   11     -0.23      0.49
    0   13   10      0.63     -0.66
    0   13    9     -2.30      3.69
    0   13    8      0.79     -0.33
    0   13    7      1.51     -0.14
    0   13    6      0.57      0.57
    0   13    5      1.06     -0.63
    0   13    4      0.15      0.71
    0   13    3      0.70     -0.92
    0   13    2      0.77      0.00
    0   13    1      0.05      0.03
    0   13    0      0.31     -0.08
    0   14   11      0.68      0.09
    0   14   10     -0.37      0.24
    0   14    9     -1.26      0.55
    0   14    8     -1.98      0.59
    0   14    7     -1.24     -0.04
    0   14    6      1.05     -0.31
    0   14    5     -0.72      0.16
    0   14    4      2.72     -0.67
    0   14    3      1.08      0.19
    0   14    2      1.04      0.10
    0   14    1      0.86      0.38
    0   14    0     -1.35      0.80
    0   15   11      0.15      0.21
    0   15   10      1.41      0.22
    0   15    9      0.18      0.08
    0   15    8     -1.58      0.35
    0   15    7     -0.37      0.04
    0   15    6     -0.84     -1.01
    0   15    5      0.31      0.08
    0   15    4      0.20     -0.62
    0   15    3     -1.89     -0.33
    0   15    2      0.61      0.56
    0   15    1     -0.21      0.62
    0   15    0      0.21      1.28
    0   16   10     -0.71     -0.36
    0   16    9      0.98      1.38
    0   16    8      0.24     -0.17
    0   16    7      0.09      0.12
    0   16    6     -1.13      0.22
    0   16    5      2.13     -0.42
    0   16    4      1.21      0.62
    0   16    3     -1.11     -0.37
    0   16    2      1.89     -0.14
    0   16    1     -0.63      0.34
    0   16    0      1.01      0.29
    0   17    9     -1.08      0.28
    0   17    8      3.16      0.68
    0   17    7      0.13      0.10
    0   17    6      0.65     -0.68
    0   17    5     -1.36     -0.41
    0   17    4      1.26     -0.35
    0   17    3      0.93      0.42
    0   17    2     -0.40      0.24
    0   17    1      0.46     -0.53
    0   17    0     -1.14      2.15
    0   18    7     -1.02     -0.17
    0   18    6      0.74     -1.13
    0   18    5     -0.31     -0.18
    0   18    4      0.46     -1.21
    0   18    3      1.01      0.00
    0   18    2     -1.60      0.73
    0   18    1     -0.31     -0.29
    0   18    0     -3.04      1.89
    0   19    5     -0.04      0.11
    0   19    4      0.65      0.52
    0   19    3      1.15     -0.26
    0   19    2      1.55     -0.30
    0   19    1      2.08     -0.27
    0   19    0     -1.83      0.24
    0   20    3      0.63      0.24
    0   20    2      0.34      0.29
    0   20    1      1.10      0.59
    0   20    0     -0.29     -0.05
   -1   20    4      1.19      0.34
   -1   20    3      1.21     -1.70
   -1   20    2      1.15     -2.12
   -1   20    1      0.72      1.64
   -1   20    0     -0.75     -0.17
   -1   19    6      1.00     -0.94
   -1   19    5      0.91      0.52
   -1   19    4      0.01      0.83
   -1   19    3     -0.10     -1.10
   -1   19    2     -0.94     -0.23
   -1   19    1      0.08      1.44
   -1   19    0     -0.19     -0.13
   -1   18    8      1.36     -1.29
   -1   18    7     -1.55     -0.44
   -1   18    6      0.62     -0.81
   -1   18    5     -0.38      0.97
   -1   18    4     -0.86     -1.27
   -1   18    3      0.08      0.40
   -1   18    2     -0.69     -0.86
   -1   18    1      0.50      0.57
   -1   18    0      1.04      1.26
   -1   17    9     -0.97     -1.01
   -1   17    8      1.39     -0.18
   -1   17    7     -0.70      1.39
   -1   17    6      1.52      1.18
   -1   17    5     -1.53     -0.38
   -1   17    4     -0.20      0.57
   -1   17    3      1.06     -1.07
   -1   17    2      1.41      0.15
   -1   17    1      2.36      0.77
   -1   17    0      2.36     -0.13
   -1   16   10     -1.10      1.19
   -1   16    9      0.08     -0.18
   -1   16    8      0.01      0.08
   -1   16    7     -0.14      0.82
   -1   16    6     -0.87     -0.57
   -1   16    5     -0.41     -2.43
   -1   16    4      0.98      0.71
   -1   16    3     -0.45     -1.86
   -1   16    2      0.65      1.94
   -1   16    1      0.56      1.14
   -1   16    0     -0.92     -0.22
   -1   15   11     -1.36     -1.12
   -1   15   10     -1.03      1.10
   -1   15    9     -1.47     -1.74
   -1   15    8      0.34      0.58
   -1   15    7     -0.18     -0.53
   -1   15    6      0.49     -1.38
   -1   15    5      0.97     -1.00
   -1   15    4     -0.14     -1.16
   -1   15    3     -0.38     -1.13
   -1   15    2     -1.53      0.58
   -1   15    1     -0.38      0.26
   -1   15    0     -0.24      0.05
   -1   14   12     -0.97     -0.61
   -1   14   11      0.18     -0.50
   -1   14   10     -0.86      1.96
   -1   14    9      1.60      0.79
   -1   14    8      1.97      1.44
   -1   14    7      0.38      1.18
   -1   14    6      0.75     -1.02
   -1   14    5     -1.72     -1.44
   -1   14    4     -1.31      0.67
   -1   14    3      1.45     -2.39
   -1   14    2      0.39      1.18
   -1   14    1      1.63      1.02
   -1   14    0      0.47     -0.39
   -1   13   12     -0.12      1.50
   -1   13   11      0.81      1.10
   -1   13   10      0.92      1.19
   -1   13    9      0.77      2.48
   -1   13    8      0.12      0.49
   -1   13    7     -1.21      0.55
   -1   13    6     -0.35     -1.71
   -1   13    5     -1.25     -2.41
   -1   13    4      0.08      3.00
   -1   13    3      1.03     -1.30
   -1   13    2      0.54      5.88
   -1   13    1      0.05      0.05
   -1   13    0     -1.26     -0.05
   -1   13   13     -0.81     -0.61
   -1   12   13      0.70      1.78
   -1   12   12      0.08      0.85
   -1   12   11      0.63     -0.27
   -1   12   10      0.05      0.01
   -1   12    9     -1.69     -1.30
   -1   12    8     -1.92      1.72
   -1   12    7     -0.71     -0.80
   -1   12    6      1.61     -0.02
   -1   12    5     -0.39      1.11
   -1   12    4      1.41      1.60
   -1   12    3     -0.19      0.56
   -1   12    2     -0.27      1.88
   -1   12    1     -1.05     -1.35
   -1   12    0     -0.94      0.05
   -1   11   14     -1.69      0.09
   -1   11   13      0.32      2.33
   -1   11   12     -0.44     -1.49
   -1   11   11     -0.05     -1.45
   -1   11   10     -1.15     -0.13
   -1   11    9      0.52     -0.15
   -1   11    8     -0.15      2.23
   -1   11    7      0.23      2.26
   -1   11    6      0.97      0.05
   -1   11    5      0.21      1.78
   -1   11    4      0.75     -2.77
   -1   11    3     -0.39     -1.16
   -1   11    2     -0.83     -2.49
   -1   11    1      0.25      0.04
   -1   11    0     -0.82     -0.42
   -1   10   14      0.69      0.68
   -1   10   13     -0.18     -0.37
   -1   10   12     -0.07     -0.76
   -1   10   11      0.76      1.37
   -1   10   10      0.74      0.78
   -1   10    9      1.15      3.86
   -1   10    8      0.82     -1.21
   -1   10    7      0.02      2.65
   -1   10    6     -0.54     -2.59
   -1   10    5     -2.62      0.77
   -1   10    4     -1.21     -2.35
   -1   10    3      0.30     -3.82
   -1   10    2      0.70      4.73
   -1   10    1     -0.56      1.31
   -1   10    0      1.21      0.21
   -1    9   14     -3.18      0.69
   -1    9   13      1.67     -0.81
   -1    9   12      0.88      0.55
   -1    9   11     -0.02      1.52
   -1    9   10     -0.20     -0.02
   -1    9    9      0.09      0.62
   -1    9    8     -0.58     -0.97
   -1    9    7     -3.37      2.84
   -1    9    6     -0.34      1.13
   -1    9    5     -0.27      0.09
   -1    9    4      0.51      0.58
   -1    9    3      0.64     -0.96
   -1    9    2      0.86      5.56
   -1    9    1     -1.93     -3.55
   -1    9    0      1.47     -0.61
   -1    9   15     -0.88     -0.43
   -1    8   15     -0.42     -0.98
   -1    8   14     -0.42      0.32
   -1    8   13     -0.45      0.89
   -1    8   12     -0.21     -1.71
   -1    8   11      0.71     -1.43
   -1    8   10     -0.27     -0.74
   -1    8    9     -0.99     -1.03
   -1    8    8     -1.45      1.78
   -1    8    7      0.66      1.53
   -1    8    6      0.44      0.82
   -1    8    5     -0.36     -0.50
   -1    8    4      2.95     -2.53
   -1    8    3      0.87      0.49
   -1    8    2      1.05     -3.47
   -1    8    1      2.05      2.62
   -1    8    0     -1.43     -0.40
   -1    7   15     -0.91     -0.38
   -1    7   14      0.53      0.47
   -1    7   13      0.62     -0.20
   -1    7   12     -0.94     -0.20
   -1    7   11      0.34      0.39
   -1    7   10     -0.36     -0.31
   -1    7    9      0.37     -0.14
   -1    7    8      0.99     -0.64
   -1    7    7      0.98      1.16
   -1    7    6     -0.44     -6.02
   -1    7    5     -0.86     -0.55
   -1    7    4     -1.99     -3.35
   -1    7    3     -2.71     -2.17
   -1    7    2      5.17     -1.80
   -1    7    1     -0.49      5.33
   -1    7    0      3.21      0.36
   -1    6   15      0.84      1.48
   -1    6   14      1.19      1.21
   -1    6   13     -0.92      0.09
   -1    6   12     -1.77      1.08
   -1    6   11      1.51     -0.88
   -1    6   10      0.38     -0.44
   -1    6    9      0.10      1.35
   -1    6    8     -2.41     -2.49
   -1    6    7     -0.30      0.15
   -1    6    6     -1.38     -2.04
   -1    6    5     -1.46      2.59
   -1    6    4      3.08     -1.34
   -1    6    3      2.87      1.37
   -1    6    2      3.35      9.84
   -1    6    1     -5.56     -2.97
   -1    6    0      1.32      0.33
   -1    5   16     -0.63     -0.24
   -1    5   15      0.15      0.79
   -1    5   14     -0.07      0.46
   -1    5   13     -0.84      0.25
   -1    5   12     -0.37     -1.70
   -1    5   11     -0.45     -2.53
   -1    5   10      0.19     -0.85
   -1    5    9     -0.11     -0.47
   -1    5    8     -0.99     -0.14
   -1    5    7     -0.87      0.88
   -1    5    6      3.36      1.78
   -1    5    5      0.11      1.56
   -1    5    4      3.73      0.04
   -1    5    3      4.93      1.61
   -1    5    2     -3.59     -1.50
   -1    5    1      2.01      0.91
   -1    5    0      0.68     -0.51
   -1    4   16     -0.88     -0.56
   -1    4   15      0.35     -0.34
   -1    4   14     -0.79     -1.58
   -1    4   13      0.23     -0.64
   -1    4   12      0.76     -2.31
   -1    4   11      0.37     -0.58
   -1    4   10     -0.41      2.91
   -1    4    9      0.21     -1.26
   -1    4    8      0.50     -0.78
   -1    4    7      0.44      1.09
   -1    4    6      0.57     -3.02
   -1    4    5     -5.68     -1.07
   -1    4    4     -2.57     -5.56
   -1    4    3      0.30     -5.22
   -1    4    2      2.15     -4.63
   -1    4    1      1.29      0.53
   -1    4    0      6.54      0.05
   -1    3   16      0.07     -0.21
   -1    3   15      0.04      0.60
   -1    3   14     -1.27     -2.26
   -1    3   13      0.35     -0.48
   -1    3   12      0.87      0.76
   -1    3   11     -0.05      1.13
   -1    3   10      0.08      1.70
   -1    3    9     -0.29     -1.96
   -1    3    8     -1.43     -0.19
   -1    3    7      1.03      0.66
   -1    3    6     -3.98     -4.20
   -1    3    5      0.08      1.97
   -1    3    4      0.37     -5.80
   -1    3    3     -1.11     -3.23
   -1    3    2     -0.48      7.26
   -1    3    1     -0.47     -9.64
   -1    3    0      2.97      0.83
   -1    2   16      0.48     -0.03
   -1    2   15      0.21     -0.09
   -1    2   14      0.51     -0.18
   -1    2   13      0.33      0.93
   -1    2   12     -0.26     -0.10
   -1    2   11      0.27     -0.61
   -1    2   10     -0.46     -0.19
   -1    2    9      0.29     -1.32
   -1    2    8      1.75     -0.14
   -1    2    7     -0.12     -0.62
   -1    2    6      0.65      0.17
   -1    2    5     -0.57      2.56
   -1    2    4      5.38     -0.07
   -1    2    3     -0.79      8.26
   -1    2    2    -11.47      0.24
   -1    2    1     -0.14    -18.19
   -1    2    0    -20.01     -0.28
   -2   21    2      0.99     -1.30
   -2   21    1     -0.47      0.51
   -2   21    0     -0.17      0.16
   -2   20    5     -0.49      0.97
   -2   20    4     -0.17      0.86
   -2   20    3      0.74     -0.65
   -2   20    2     -0.30     -0.95
   -2   20    1     -0.16     -1.40
   -2   20    0     -0.28     -0.41
   -2   19    7     -0.40     -1.37
   -2   19    6     -0.05     -0.20
   -2   19    5      0.35     -0.97
   -2   19    4     -0.85      0.86
   -2   19    3     -0.47      0.43
   -2   19    2     -0.31     -2.11
   -2   19    1      0.38     -0.69
   -2   19    0      2.30     -0.64
   -2   18    8     -0.23     -0.20
   -2   18    7     -2.12     -0.01
   -2   18    6      0.50     -0.29
   -2   18    5     -1.16      1.04
   -2   18    4      0.99     -0.27
   -2   18    3      0.86      0.51
   -2   18    2      1.85     -1.89
   -2   18    1      2.10     -0.82
   -2   18    0      1.32     -0.47
   -2   17   10     -0.59      3.33
   -2   17    9      0.93     -0.06
   -2   17    8      0.36      1.10
   -2   17    7      0.22      0.25
   -2   17    6      0.87     -0.01
   -2   17    5     -0.42      0.37
   -2   17    4      1.10     -0.45
   -2   17    3     -0.40      0.93
   -2   17    2      0.39     -1.21
   -2   17    1      0.14     -0.37
   -2   17    0     -0.06     -0.12
   -2   16   11      0.64      0.62
   -2   16   10      0.22      0.26
   -2   16    9     -0.25     -0.34
   -2   16    8      0.85     -0.67
   -2   16    7     -0.66     -2.21
   -2   16    6     -0.94      0.79
   -2   16    5      0.09     -0.49
   -2   16    4     -2.00     -0.04
   -2   16    3      0.54     -0.19
   -2   16    2     -0.80     -2.19
   -2   16    1      0.87     -0.76
   -2   16    0      0.84     -0.50
   -2   15   11      0.29      0.18
   -2   15   10     -0.57     -1.62
   -2   15    9     -1.23     -1.45
   -2   15    8     -0.15     -0.12
   -2   15    7     -0.85     -1.17
   -2   15    6     -0.42      1.89
   -2   15    5      1.02      2.52
   -2   15    4     -0.28     -0.31
   -2   15    3      3.65     -1.63
   -2   15    2     -0.83     -2.01
   -2   15    1     -0.64     -0.42
   -2   15    0     -0.95     -0.95
   -2   14   12     -1.76      0.30
   -2   14   11      0.67     -1.90
   -2   14   10     -1.67      0.45
   -2   14    9      1.13      1.18
   -2   14    8     -0.03      0.00
   -2   14    7      1.64      0.99
   -2   14    6      1.84      0.36
   -2   14    5     -0.09      0.68
   -2   14    4      0.55     -1.07
   -2   14    3     -0.51     -0.25
   -2   14    2     -0.82     -0.03
   -2   14    1     -1.83     -0.13
   -2   14    0      0.63     -0.34
   -2   13   13      0.52     -0.96
   -2   13   12     -1.54      1.04
   -2   13   11      0.84      0.00
   -2   13   10     -1.30     -0.54
   -2   13    9      0.46      0.10
   -2   13    8     -0.06     -1.91
   -2   13    7     -0.71     -1.06
   -2   13    6      1.09      1.91
   -2   13    5     -0.59     -1.05
   -2   13    4      0.79      0.67
   -2   13    3     -0.27      1.08
   -2   13    2     -1.07     -0.12
   -2   13    1     -1.56     -0.39
   -2   13    0     -0.40      0.17
   -2   12   13      1.76      0.91
   -2   12   12     -1.95     -0.94
   -2   12   11      0.69     -0.82
   -2   12   10      0.77     -2.64
   -2   12    9      0.53     -2.64
   -2   12    8      0.60      1.60
   -2   12    7     -1.15      1.25
   -2   12    6      1.97      4.49
   -2   12    5      0.57      0.39
   -2   12    4     -1.90      0.39
   -2   12    3      1.12     -0.18
   -2   12    2     -3.80     -3.06
   -2   12    1     -0.51     -0.62
   -2   12    0      1.57     -0.45
   -2   11   14      0.08     -1.19
   -2   11   13      0.02      0.80
   -2   11   12      1.39     -0.74
   -2   11   11      0.45     -1.61
   -2   11   10      0.65     -0.61
   -2   11    9      0.69      1.58
   -2   11    8      0.25      1.23
   -2   11    7     -0.70      2.71
   -2   11    6     -1.24      0.73
   -2   11    5     -1.05     -0.65
   -2   11    4     -1.10     -2.70
   -2   11    3     -0.09     -0.91
   -2   11    2     -1.33      1.07
   -2   11    1      1.96      1.60
   -2   11    0      2.14     -0.23
   -2   10   14      0.18      1.08
   -2   10   13      1.80      2.11
   -2   10   12     -0.18      0.69
   -2   10   11     -0.82      0.00
   -2   10   10     -0.41      0.06
   -2   10    9     -0.17      1.97
   -2   10    8     -1.60     -0.96
   -2   10    7     -1.81     -0.40
   -2   10    6      2.00     -0.43
   -2   10    5     -1.60      0.12
   -2   10    4      2.18      0.89
   -2   10    3     -1.17      0.72
   -2   10    2      1.51      1.22
   -2   10    1     -0.99     -0.04
   -2   10    0     -2.96      0.61
   -2    9   15     -0.19     -0.63
   -2    9   14     -1.58      2.10
   -2    9   13     -0.02      1.20
   -2    9   12     -0.87     -2.59
   -2    9   11      0.59      0.63
   -2    9   10     -0.03     -0.54
   -2    9    9     -0.65     -1.76
   -2    9    8      0.75     -0.51
   -2    9    7     -0.39     -0.20
   -2    9    6      0.69      6.15
   -2    9    5      0.26      0.66
   -2    9    4     -0.89      0.91
   -2    9    3     -0.83     -0.24
   -2    9    2     -0.58     -3.16
   -2    9    1     -2.45     -2.03
   -2    9    0      2.00     -0.52
   -2    8   15      0.48     -1.89
   -2    8   14      0.88     -0.83
   -2    8   13     -0.20     -0.38
   -2    8   12     -0.79     -0.77
   -2    8   11      0.72      0.06
   -2    8   10      0.01     -0.18
   -2    8    9     -0.89     -0.78
   -2    8    8      0.42      2.00
   -2    8    7     -0.01      1.43
   -2    8    6      1.08     -0.27
   -2    8    5      0.18     -1.43
   -2    8    4     -0.28     -3.60
   -2    8    3      1.34     -4.30
   -2    8    2      0.60     -4.07
   -2    8    1      2.63      0.48
   -2    8    0     -0.63      0.05
   -2    7   15      1.63     -0.24
   -2    7   14     -0.18      0.74
   -2    7   13     -0.95     -0.07
   -2    7   12      0.22      1.24
   -2    7   11     -1.04      0.95
   -2    7   10     -1.50      1.14
   -2    7    9     -0.77     -0.87
   -2    7    8     -1.71     -0.85
   -2    7    7      0.30     -0.09
   -2    7    6     -0.66     -0.24
   -2    7    5      0.67     -1.72
   -2    7    4      3.87     -0.16
   -2    7    3     -4.71      2.18
   -2    7    2      3.14     -2.46
   -2    7    1     -5.27     -5.32
   -2    7    0     -2.98     -0.25
   -2    6   15     -0.08      0.05
   -2    6   14      0.14      1.98
   -2    6   13     -0.06      0.25
   -2    6   12     -1.65     -0.08
   -2    6   11     -0.28     -0.99
   -2    6   10      0.51     -1.98
   -2    6    9      1.08      0.02
   -2    6    8     -0.61      1.61
   -2    6    7     -0.75      0.31
   -2    6    6     -0.55      5.90
   -2    6    5     -1.62      3.19
   -2    6    4      0.89      2.84
   -2    6    3      0.04     -0.39
   -2    6    2      2.97      0.74
   -2    6    1     -3.51     -1.10
   -2    6    0     -0.59      0.11
   -2    5   16      0.57      0.20
   -2    5   15      0.47     -2.47
   -2    5   14      0.67     -0.31
   -2    5   13     -0.32      0.15
   -2    5   12     -1.40     -1.97
   -2    5   11      1.07      0.98
   -2    5   10     -0.51     -0.41
   -2    5    9      0.70      0.03
   -2    5    8      0.61      1.61
   -2    5    7      0.10      1.56
   -2    5    6      1.37      1.89
   -2    5    5     -2.93     -3.57
   -2    5    4      1.62     -0.09
   -2    5    3      0.20     -8.47
   -2    5    2     -4.74     -3.73
   -2    5    1      4.43     -2.15
   -2    5    0    -11.05      0.23
   -2    4   16     -0.20      0.24
   -2    4   15     -0.11     -2.23
   -2    4   14     -0.17      0.06
   -2    4   13     -0.13      0.78
   -2    4   12      1.20     -0.30
   -2    4   11     -0.09      1.30
   -2    4   10     -0.38     -0.46
   -2    4    9     -0.24      0.61
   -2    4    8     -1.31     -0.10
   -2    4    7      0.08     -0.32
   -2    4    6     -1.73      0.60
   -2    4    5      0.60     -3.79
   -2    4    4      1.08      1.08
   -2    4    3      0.47     -7.83
   -2    4    2      0.70     -0.34
   -2    4    1     -0.29    -12.20
   -2    4    0    -11.24     -0.82
   -3   21    4      0.11      0.67
   -3   21    3      0.62      0.35
   -3   21    2     -0.01     -0.66
   -3   21    1      0.10     -0.50
   -3   21    0     -1.34      0.45
   -3   20    6      1.52     -0.43
   -3   20    5     -0.12     -1.42
   -3   20    4     -0.87      1.90
   -3   20    3      0.07     -1.39
   -3   20    2     -0.48     -0.48
   -3   20    1      0.22     -0.76
   -3   20    0     -1.26      0.62
   -3   19    8     -0.68     -0.79
   -3   19    7     -0.66     -1.73
   -3   19    6      0.11     -0.01
   -3   19    5     -1.33     -0.63
   -3   19    4      1.27      0.45
   -3   19    3     -1.04     -0.20
   -3   19    2      0.98      0.07
   -3   19    1     -0.47     -0.40
   -3   19    0     -0.28      0.46
   -3   18    9      0.98     -0.14
   -3   18    8     -0.16     -0.34
   -3   18    7      0.00     -0.02
   -3   18    6     -1.39      0.21
   -3   18    5      0.66      0.62
   -3   18    4      0.69     -0.59
   -3   18    3     -0.68      0.88
   -3   18    2      0.23     -0.56
   -3   18    1     -0.24      0.38
   -3   18    0      0.54      0.89
   -3   17   10      0.39      2.17
   -3   17    9      1.13      0.17
   -3   17    8      0.09     -1.09
   -3   17    7      0.00     -0.18
   -3   17    6     -0.21      0.32
   -3   17    5      0.27      0.01
   -3   17    4      0.97     -2.08
   -3   17    3      1.00     -0.85
   -3   17    2     -0.30      0.61
   -3   17    1      0.36     -0.06
   -3   17    0     -0.97      1.08
   -3   16   11      0.94      1.37
   -3   16   10     -0.56     -1.78
   -3   16    9     -1.04      0.41
   -3   16    8     -0.52     -1.21
   -3   16    7     -0.53     -0.34
   -3   16    6      0.02      2.15
   -3   16    5      2.04     -0.39
   -3   16    4      2.17     -0.99
   -3   16    3      0.21     -1.32
   -3   16    2     -1.58      2.28
   -3   16    1     -1.39     -0.88
   -3   16    0     -0.05      0.19
   -3   15   12      0.20     -1.13
   -3   15   11      0.16     -0.98
   -3   15   10      0.23     -0.05
   -3   15    9     -1.16      0.21
   -3   15    8      0.44      0.99
   -3   15    7      1.30      0.65
   -3   15    6      0.41     -0.11
   -3   15    5      1.71      0.57
   -3   15    4     -0.35     -1.06
   -3   15    3     -1.02      0.80
   -3   15    2      0.54      1.24
   -3   15    1     -1.28     -0.65
   -3   15    0      1.39      0.70
   -3   14   12      0.02      0.76
   -3   14   11     -1.38     -0.35
   -3   14   10      0.69      0.39
   -3   14    9     -0.26      0.71
   -3   14    8     -0.84     -0.64
   -3   14    7      0.10      0.17
   -3   14    6      0.30     -2.18
   -3   14    5      0.46     -0.67
   -3   14    4      1.44     -1.70
   -3   14    3      0.27      1.29
   -3   14    2      0.88     -0.65
   -3   14    1     -0.14     -1.94
   -3   14    0      1.64      0.24
   -3   13   13      0.04     -1.16
   -3   13   12     -1.88      0.61
   -3   13   11      0.34      0.24
   -3   13   10      0.11     -1.10
   -3   13    9     -0.55      0.25
   -3   13    8     -0.21     -1.11
   -3   13    7      0.25     -1.13
   -3   13    6      0.99      1.36
   -3   13    5      1.95      0.33
   -3   13    4      2.03      0.86
   -3   13    3      0.82      0.40
   -3   13    2     -1.44     -1.83
   -3   13    1      0.66     -2.40
   -3   13    0     -1.98     -0.18
   -3   12   13      0.77     -0.14
   -3   12   12     -1.32      0.33
   -3   12   11     -0.34     -0.88
   -3   12   10     -0.39     -0.16
   -3   12    9     -0.01     -1.29
   -3   12    8      1.61      0.41
   -3   12    7      0.38      1.63
   -3   12    6      0.73      2.17
   -3   12    5      3.47      0.03
   -3   12    4     -3.21      0.50
   -3   12    3     -1.19     -1.61
   -3   12    2     -0.79      0.72
   -3   12    1     -1.48     -0.50
   -3   12    0      1.82      0.45
   -3   12   14     -1.19     -0.31
   -3   11   14      0.42     -0.65
   -3   11   13     -0.05      1.54
   -3   11   12     -0.08      0.09
   -3   11   11     -0.79     -1.22
   -3   11   10     -0.89      0.61
   -3   11    9     -0.66      1.49
   -3   11    8     -0.64      0.72
   -3   11    7      0.17     -0.84
   -3   11    6     -0.03     -0.50
   -3   11    5     -0.79     -1.38
   -3   11    4     -0.80     -2.21
   -3   11    3      0.02     -0.39
   -3   11    2     -0.25      0.13
   -3   11    1     -0.22      2.56
   -3   11    0      0.04      0.57
   -3   10   14     -1.62      1.24
   -3   10   13      0.69      0.66
   -3   10   12      0.06     -0.40
   -3   10   11     -0.07      0.19
   -3   10   10      0.23     -0.92
   -3   10    9     -0.15     -0.72
   -3   10    8     -0.38     -0.78
   -3   10    7     -1.13     -1.68
   -3   10    6     -0.18      0.57
   -3   10    5     -1.02      0.06
   -3   10    4      0.78      1.15
   -3   10    3      0.74      2.14
   -3   10    2     -1.67     -4.51
   -3   10    1      1.66      0.46
   -3   10    0     -3.87     -0.12
   -3    9   15      1.04     -1.56
   -3    9   14     -0.16     -0.34
   -3    9   13      0.46     -0.29
   -3    9   12     -0.09     -0.30
   -3    9   11      2.07     -0.68
   -3    9   10      0.81      0.80
   -3    9    9     -0.46     -1.49
   -3    9    8      0.53      0.14
   -3    9    7     -0.12      0.10
   -3    9    6     -1.09      0.96
   -3    9    5      1.96      1.64
   -3    9    4     -0.98      0.54
   -3    9    3     -0.59     -2.33
   -3    9    2     -0.57      0.93
   -3    9    1     -1.72      0.34
   -3    9    0     -0.19      0.40
   -3    8   15      1.95     -0.09
   -3    8   14      0.22     -1.13
   -3    8   13      0.06      0.35
   -3    8   12      0.10      1.88
   -3    8   11     -0.96      0.60
   -3    8   10     -0.01      0.71
   -3    8    9     -2.20     -0.90
   -3    8    8      0.58      1.86
   -3    8    7     -0.92      0.93
   -3    8    6      0.74     -1.19
   -3    8    5      2.96     -3.86
   -3    8    4      0.05      3.53
   -3    8    3     -0.99     -2.85
   -3    8    2     -0.85      1.38
   -3    8    1      1.07      2.10
   -3    8    0      0.85      0.00
   -3    7   15      1.13      2.14
   -3    7   14      0.00      1.06
   -3    7   13     -1.27      1.57
   -3    7   12      0.30     -0.89
   -3    7   11     -1.45     -0.73
   -3    7   10      1.54      0.49
   -3    7    9     -0.80      0.71
   -3    7    8      2.15      0.70
   -3    7    7     -1.01     -2.71
   -3    7    6     -1.28      3.66
   -3    7    5      0.29      0.50
   -3    7    4     -2.44      3.75
   -3    7    3     -2.38      3.98
   -3    7    2      1.00     -1.82
   -3    7    1      0.00      0.76
   -3    7    0     -3.35      0.11
   -3    6   15     -0.09     -1.46
   -3    6   14     -1.13     -0.22
   -3    6   13      0.08     -0.51
   -3    6   12     -0.72     -0.55
   -3    6   11      0.08      1.40
   -3    6   10      1.66      0.21
   -3    6    9     -0.21      0.22
   -3    6    8      3.72      0.21
   -3    6    7      0.03      0.28
   -3    6    6     -3.98      0.26
   -3    6    5     -0.25      3.79
   -3    6    4     -6.70      0.03
   -3    6    3     -0.03     -5.19
   -3    6    2      6.65     -0.21
   -3    6    1      0.22      4.81
   -3    6    0     -8.16     -0.04
   -4   22    0      2.47     -0.39
   -4   21    5      0.53      0.08
   -4   21    4      0.24     -0.48
   -4   21    3      0.98     -0.61
   -4   21    2     -0.28     -0.91
   -4   21    1      1.07     -0.12
   -4   21    0      1.88      0.53
   -4   20    7     -0.86      0.56
   -4   20    6      0.83      1.49
   -4   20    5     -1.20     -0.13
   -4   20    4      0.18      0.96
   -4   20    3     -0.31     -0.08
   -4   20    2      0.40     -0.47
   -4   20    1      1.36      0.38
   -4   20    0     -0.81     -0.14
   -4   19    8      0.01     -0.18
   -4   19    7     -1.59      1.66
   -4   19    6     -0.43     -0.51
   -4   19    5     -0.12     -0.57
   -4   19    4     -0.51      0.33
   -4   19    3     -0.80     -0.23
   -4   19    2      0.21      0.78
   -4   19    1      0.39      0.76
   -4   19    0     -0.06     -0.57
   -4   18    9     -0.77     -0.77
   -4   18    8      0.86     -1.29
   -4   18    7      0.64     -0.91
   -4   18    6     -0.61     -1.31
   -4   18    5      0.89     -0.68
   -4   18    4      0.06     -2.00
   -4   18    3     -0.70      1.20
   -4   18    2     -0.54      0.90
   -4   18    1     -0.60      0.41
   -4   18    0      0.25      0.99
   -4   17   10     -1.28      0.42
   -4   17    9      1.44     -0.10
   -4   17    8      2.07     -1.45
   -4   17    7      0.24     -0.21
   -4   17    6      0.20     -0.64
   -4   17    5      0.21     -0.53
   -4   17    4     -0.53     -0.06
   -4   17    3     -0.74     -1.37
   -4   17    2     -0.41      2.24
   -4   17    1      0.88     -0.29
   -4   17    0      1.30     -0.23
   -4   16   11      1.27      0.95
   -4   16   10     -0.81      0.40
   -4   16    9      0.24      0.56
   -4   16    8      1.38      0.69
   -4   16    7     -1.24     -1.14
   -4   16    6      0.33      0.50
   -4   16    5     -0.27     -0.81
   -4   16    4      0.07      0.84
   -4   16    3      0.30     -1.07
   -4   16    2     -0.72      2.96
   -4   16    1      0.74      1.71
   -4   16    0     -1.55     -0.30
   -4   15   12     -0.30     -0.03
   -4   15   11     -0.95      0.52
   -4   15   10      0.78     -0.68
   -4   15    9     -0.95      0.12
   -4   15    8     -0.18      0.19
   -4   15    7      0.06     -0.72
   -4   15    6      0.30     -1.37
   -4   15    5      0.54     -0.89
   -4   15    4      0.31      0.04
   -4   15    3     -1.36     -0.15
   -4   15    2      0.80      2.10
   -4   15    1      0.36      0.77
   -4   15    0     -0.17      0.13
   -4   14   13     -0.30     -0.51
   -4   14   12      0.18      0.00
   -4   14   11     -1.32      1.21
   -4   14   10      1.19      0.67
   -4   14    9      0.08      0.21
   -4   14    8     -0.58     -0.84
   -4   14    7      0.14      1.04
   -4   14    6     -1.17     -1.64
   -4   14    5      0.32      0.11
   -4   14    4      0.37     -0.54
   -4   14    3      0.43     -0.60
   -4   14    2      0.46      0.78
   -4   14    1      0.14     -1.80
   -4   14    0     -0.66     -0.51
   -4   13   13      0.21      0.02
   -4   13   12     -1.56      1.35
   -4   13   11      0.45      0.24
   -4   13   10      0.82      1.02
   -4   13    9      0.62     -1.10
   -4   13    8      0.81      1.45
   -4   13    7     -0.81     -0.31
   -4   13    6      0.51     -1.28
   -4   13    5     -0.14      1.59
   -4   13    4     -0.07     -0.55
   -4   13    3      0.35      0.09
   -4   13    2     -1.02      2.98
   -4   13    1      0.44      0.23
   -4   13    0     -1.77     -0.26
   -4   12   14     -0.94      0.12
   -4   12   13      0.73     -0.56
   -4   12   12     -0.14      0.56
   -4   12   11      0.49     -0.31
   -4   12   10     -0.27      0.75
   -4   12    9     -0.90      0.26
   -4   12    8     -1.15     -0.69
   -4   12    7     -1.32     -0.17
   -4   12    6     -0.38      0.46
   -4   12    5      1.00     -1.11
   -4   12    4      1.25     -0.35
   -4   12    3     -1.34     -1.70
   -4   12    2      1.24      3.20
   -4   12    1     -1.26      0.96
   -4   12    0     -1.39      0.25
   -4   11   14     -1.55     -0.88
   -4   11   13      0.46     -0.37
   -4   11   12     -0.44      0.73
   -4   11   11      0.30     -1.23
   -4   11   10     -0.77     -0.13
   -4   11    9     -1.03      2.26
   -4   11    8     -1.41      0.52
   -4   11    7      1.10      0.57
   -4   11    6      1.18     -1.14
   -4   11    5      1.58     -0.97
   -4   11    4      1.87     -0.60
   -4   11    3     -0.05     -2.32
   -4   11    2     -0.30     -0.50
   -4   11    1     -0.43     -0.02
   -4   11    0     -2.51     -0.63
   -4   10   14     -0.32     -0.75
   -4   10   13     -0.11      0.35
   -4   10   12      0.12     -0.57
   -4   10   11      0.92     -0.14
   -4   10   10      0.12      1.08
   -4   10    9      1.44     -0.33
   -4   10    8      1.25     -0.07
   -4   10    7      2.20     -0.04
   -4   10    6     -0.99     -2.21
   -4   10    5      0.58      0.66
   -4   10    4     -2.41      0.20
   -4   10    3     -0.81      1.40
   -4   10    2      0.14      0.74
   -4   10    1      0.59     -0.53
   -4   10    0      2.20     -0.21
   -4    9   15      0.11     -1.54
   -4    9   14      0.46     -0.43
   -4    9   13      0.37      0.30
   -4    9   12     -0.51      0.84
   -4    9   11      0.73     -0.18
   -4    9   10      0.52      1.32
   -4    9    9      0.60     -0.26
   -4    9    8     -1.34      0.14
   -4    9    7     -1.22      1.90
   -4    9    6     -1.92     -2.48
   -4    9    5      0.89      3.17
   -4    9    4      1.45      1.95
   -4    9    3      1.74     -0.55
   -4    9    2      2.34      5.05
   -4    9    1      0.86      5.65
   -4    9    0     -0.93      0.44
   -4    8   15      0.04      2.66
   -4    8   14      0.11      0.39
   -4    8   13     -0.08      0.20
   -4    8   12     -0.01      0.00
   -4    8   11      0.03      1.33
   -4    8   10      1.04      0.24
   -4    8    9     -0.04     -0.33
   -4    8    8     -1.47     -0.25
   -4    8    7     -0.17      1.20
   -4    8    6      1.95     -0.15
   -4    8    5     -0.08     -2.71
   -4    8    4      2.64      0.40
   -4    8    3     -0.16      0.22
   -4    8    2     -2.50      0.11
   -4    8    1     -0.02      8.35
   -4    8    0     -3.53     -0.24
   -4   22    1     -1.76      0.19
   -5   22    3      1.78     -0.42
   -5   22    2      0.27     -1.97
   -5   22    1      0.16     -0.71
   -5   22    0      1.23     -0.17
   -5   21    5     -2.17      0.97
   -5   21    4      1.94      0.07
   -5   21    3      0.25      0.00
   -5   21    2     -0.43     -2.10
   -5   21    1      0.95     -0.94
   -5   21    0      0.26     -0.26
   -5   20    7      1.14      2.72
   -5   20    6     -1.20     -0.27
   -5   20    5     -0.96      1.14
   -5   20    4     -1.02      1.10
   -5   20    3     -0.92      0.14
   -5   20    2      0.79     -0.58
   -5   20    1      2.31     -0.85
   -5   20    0      0.44     -0.24
   -5   19    8      0.35     -0.99
   -5   19    7     -1.94      0.48
   -5   19    6     -1.09     -0.73
   -5   19    5      0.04     -1.06
   -5   19    4     -0.86     -0.52
   -5   19    3      0.21      1.26
   -5   19    2      0.37     -1.58
   -5   19    1      0.80      0.91
   -5   19    0     -0.10     -0.77
   -5   19    9      0.20     -0.43
   -5   18   10     -0.17     -0.64
   -5   18    9      0.25     -1.20
   -5   18    8     -0.26     -0.33
   -5   18    7     -1.49     -1.22
   -5   18    6      0.12      0.26
   -5   18    5     -1.20      1.23
   -5   18    4      0.46     -0.27
   -5   18    3     -0.98      0.64
   -5   18    2     -0.26     -1.18
   -5   18    1     -0.59     -0.78
   -5   18    0     -0.54     -0.45
   -5   17   11      0.19      0.76
   -5   17   10      0.22      0.94
   -5   17    9      0.12      1.03
   -5   17    8      0.28      0.66
   -5   17    7      0.70      0.67
   -5   17    6     -0.56      0.90
   -5   17    5     -0.42      0.68
   -5   17    4     -0.94      0.61
   -5   17    3     -1.37     -1.17
   -5   17    2     -0.58     -0.36
   -5   17    1      0.36     -0.17
   -5   17    0     -0.28     -0.16
   -5   16   11      1.85      0.43
   -5   16   10     -0.81      0.04
   -5   16    9     -1.01      0.68
   -5   16    8      0.79      0.69
   -5   16    7      0.16     -1.24
   -5   16    6     -0.45     -0.27
   -5   16    5      0.46     -0.05
   -5   16    4     -1.39     -0.30
   -5   16    3      0.22      1.29
   -5   16    2     -0.06      0.72
   -5   16    1      0.36      2.36
   -5   16    0     -1.45     -0.32
   -5   15   12      0.50      0.08
   -5   15   11     -0.09      1.37
   -5   15   10     -0.40     -1.25
   -5   15    9     -0.73     -1.18
   -5   15    8     -0.72     -0.32
   -5   15    7     -0.43     -0.18
   -5   15    6     -0.88      0.68
   -5   15    5      0.42      0.33
   -5   15    4     -0.15      0.77
   -5   15    3     -0.15      0.96
   -5   15    2     -0.67     -1.68
   -5   15    1     -1.29      0.61
   -5   15    0      1.72     -0.11
   -5   14   13      0.71      0.20
   -5   14   12      0.12     -0.66
   -5   14   11     -1.23      0.17
   -5   14   10      0.69      0.36
   -5   14    9     -0.26     -0.04
   -5   14    8      0.18      1.10
   -5   14    7     -0.63      0.21
   -5   14    6     -0.18      0.89
   -5   14    5     -1.62     -0.30
   -5   14    4     -0.80     -1.10
   -5   14    3     -0.03     -0.09
   -5   14    2     -0.86     -0.03
   -5   14    1      0.17      2.06
   -5   14    0      1.97     -0.04
   -5   13   13      1.35     -0.03
   -5   13   12     -1.13      0.02
   -5   13   11      0.17     -0.67
   -5   13   10      0.66     -1.26
   -5   13    9     -0.98     -1.25
   -5   13    8     -0.51     -0.32
   -5   13    7     -0.95     -0.33
   -5   13    6     -0.02     -0.49
   -5   13    5     -0.62     -0.07
   -5   13    4      1.53     -0.86
   -5   13    3      0.05      0.80
   -5   13    2      0.17      2.67
   -5   13    1      0.55      1.66
   -5   13    0     -0.23      0.25
   -5   12   14     -0.73      0.46
   -5   12   13      0.09     -0.03
   -5   12   12     -0.36     -1.12
   -5   12   11      1.37     -1.52
   -5   12   10     -0.79     -0.57
   -5   12    9     -0.20      0.82
   -5   12    8     -1.81     -0.90
   -5   12    7      0.34     -0.33
   -5   12    6     -0.80      3.01
   -5   12    5      2.39      0.03
   -5   12    4      0.13     -0.77
   -5   12    3     -0.30     -0.22
   -5   12    2      0.64     -1.70
   -5   12    1      1.03     -0.58
   -5   12    0      0.57      0.01
   -5   11   14      0.21      0.34
   -5   11   13     -0.40      0.01
   -5   11   12     -0.89     -0.07
   -5   11   11      0.59      1.29
   -5   11   10     -0.64     -0.38
   -5   11    9      0.74      1.94
   -5   11    8      1.85      0.54
   -5   11    7      0.74      0.15
   -5   11    6      1.56      0.23
   -5   11    5      0.74     -4.58
   -5   11    4     -2.28      0.71
   -5   11    3      2.07     -2.35
   -5   11    2      1.19     -0.63
   -5   11    1      1.71      2.63
   -5   11    0      1.86     -0.07
   -5   10   14      0.88     -0.04
   -5   10   13      0.16      1.52
   -5   10   12     -0.57      0.06
   -5   10   11     -0.20      0.95
   -5   10   10     -0.24     -0.11
   -5   10    9     -0.25      0.65
   -5   10    8      0.25      0.13
   -5   10    7     -0.06     -0.25
   -5   10    6      0.91      0.22
   -5   10    5      0.32      0.20
   -5   10    4      1.09      0.01
   -5   10    3      0.28      1.87
   -5   10    2      1.16      0.31
   -5   10    1     -0.53      0.23
   -5   10    0     -0.13      0.21
   -6   22    4      1.77      0.56
   -6   22    3     -0.49      0.26
   -6   22    2     -0.65     -1.70
   -6   22    1      0.10      0.01
   -6   22    0     -0.91      0.28
   -6   21    6     -0.77     -0.13
   -6   21    5     -0.16      1.31
   -6   21    4      0.32      1.40
   -6   21    3     -0.34     -0.21
   -6   21    2      0.18     -0.09
   -6   21    1      0.10      0.26
   -6   21    0     -1.55      0.38
   -6   20    8     -1.10     -1.86
   -6   20    7      1.80      1.55
   -6   20    6      0.98     -0.27
   -6   20    5      2.51     -0.70
   -6   20    4     -0.16      0.97
   -6   20    3      0.44     -0.29
   -6   20    2     -0.50      0.24
   -6   20    1      0.39      0.01
   -6   20    0     -1.22     -0.05
   -6   19    9     -0.41     -1.48
   -6   19    8     -0.55     -0.48
   -6   19    7     -0.41     -0.85
   -6   19    6      2.08      1.68
   -6   19    5      0.05     -0.52
   -6   19    4      0.28     -0.34
   -6   19    3     -1.35     -0.15
   -6   19    2     -1.47     -1.97
   -6   19    1     -1.04      0.93
   -6   19    0     -0.28      0.07
   -6   18   10      0.38      0.50
   -6   18    9     -1.16      0.59
   -6   18    8      1.07      0.19
   -6   18    7      0.74      0.23
   -6   18    6     -0.53      1.28
   -6   18    5     -1.25      0.81
   -6   18    4     -0.52      0.38
   -6   18    3     -0.79     -0.87
   -6   18    2      0.20      0.37
   -6   18    1     -0.12     -0.01
   -6   18    0      1.05      0.64
   -6   17   11      0.22     -0.55
   -6   17   10     -0.65      2.00
   -6   17    9      0.03      0.70
   -6   17    8      0.02     -0.05
   -6   17    7      0.34      0.69
   -6   17    6     -0.61     -0.05
   -6   17    5      0.85     -0.79
   -6   17    4      2.07     -0.56
   -6   17    3      1.50      1.50
   -6   17    2      0.00      1.57
   -6   17    1      1.04     -1.46
   -6   17    0     -1.04      0.50
   -6   16   11      1.83      0.15
   -6   16   10     -0.62     -0.76
   -6   16    9      0.03     -1.21
   -6   16    8     -1.40      0.65
   -6   16    7      0.44      0.83
   -6   16    6      0.20     -0.30
   -6   16    5      2.61     -0.44
   -6   16    4      2.88      1.16
   -6   16    3     -1.57      0.73
   -6   16    2     -0.79     -0.91
   -6   16    1     -0.24     -0.12
   -6   16    0     -0.75      0.20
   -6   15   12      0.80     -0.10
   -6   15   11      0.33      0.10
   -6   15   10      0.38      0.38
   -6   15    9     -0.75      0.24
   -6   15    8     -0.47      0.92
   -6   15    7     -0.04      0.31
   -6   15    6     -0.77     -0.13
   -6   15    5      0.27     -0.98
   -6   15    4     -1.19      0.78
   -6   15    3     -0.88     -0.84
   -6   15    2      0.91     -0.97
   -6   15    1     -0.19      0.34
   -6   15    0      1.68      0.56
   -6   14   13     -0.56      0.14
   -6   14   12      0.30     -0.90
   -6   14   11     -0.76      0.21
   -6   14   10     -0.30     -0.38
   -6   14    9     -0.86      0.99
   -6   14    8      0.05     -0.02
   -6   14    7     -0.61     -0.72
   -6   14    6      0.50     -0.88
   -6   14    5     -0.16     -1.44
   -6   14    4     -0.07     -1.28
   -6   14    3      0.84      0.23
   -6   14    2      1.50      0.61
   -6   14    1     -0.97      0.93
   -6   14    0      0.41      0.05
   -6   13   13      0.01      0.00
   -6   13   12      0.26     -1.02
   -6   13   11     -0.34     -0.23
   -6   13   10     -0.62     -2.11
   -6   13    9     -0.12     -1.46
   -6   13    8     -3.90     -1.87
   -6   13    7      0.38      0.60
   -6   13    6     -0.80      1.17
   -6   13    5      0.49      0.35
   -6   13    4      0.50      0.44
   -6   13    3      1.42      0.90
   -6   13    2      0.05     -1.36
   -6   13    1      0.01     -0.91
   -6   13    0      0.22      0.30
   -6   12   14     -1.50     -0.03
   -6   12   13     -0.08     -0.65
   -6   12   12     -0.56      0.03
   -6   12   11      0.05     -2.03
   -6   12   10     -1.11      0.46
   -6   12    9      0.26      0.32
   -6   12    8     -1.88      0.38
   -6   12    7     -0.12      0.54
   -6   12    6     -1.55     -0.12
   -6   12    5      0.19      1.06
   -6   12    4     -1.48     -0.24
   -6   12    3     -0.04     -1.03
   -6   12    2     -1.58      0.11
   -6   12    1      0.18      1.09
   -6   12    0      1.63      0.17
   -7   22    4      0.39     -0.02
   -7   22    3     -0.97     -0.12
   -7   22    2      0.50      0.69
   -7   22    1     -1.44      1.48
   -7   22    0     -0.68     -0.31
   -7   21    6      1.36     -1.84
   -7   21    5      2.04     -0.54
   -7   21    4     -0.86      0.46
   -7   21    3      0.30      1.12
   -7   21    2     -0.13      1.39
   -7   21    1     -0.99      0.70
   -7   21    0      0.36      0.22
   -7   20    8     -1.50     -1.05
   -7   20    7      0.35     -1.59
   -7   20    6      2.57      0.24
   -7   20    5      0.93     -0.70
   -7   20    4      0.06     -0.46
   -7   20    3     -0.74     -0.55
   -7   20    2     -0.23     -0.59
   -7   20    1      1.36      0.82
   -7   20    0      0.69     -0.43
   -7   19    9     -0.87      0.69
   -7   19    8      0.95     -1.31
   -7   19    7     -0.28     -0.69
   -7   19    6      0.82      0.01
   -7   19    5      0.02      0.13
   -7   19    4     -0.12     -0.30
   -7   19    3     -0.15     -0.58
   -7   19    2      0.56      0.73
   -7   19    1     -0.46      1.29
   -7   19    0     -0.55     -0.15
   -7   18   10     -0.83      0.28
   -7   18    9     -1.18      0.88
   -7   18    8      0.11     -0.41
   -7   18    7      0.85     -1.61
   -7   18    6      0.56     -1.33
   -7   18    5      1.31      0.05
   -7   18    4      1.47      0.55
   -7   18    3      0.82      1.95
   -7   18    2      0.20      1.16
   -7   18    1     -0.61     -1.50
   -7   18    0      0.58      0.42
   -7   17   11     -0.18      0.93
   -7   17   10     -1.10     -0.60
   -7   17    9     -0.46     -0.09
   -7   17    8     -0.84      0.04
   -7   17    7      0.23     -1.92
   -7   17    6      1.21      0.18
   -7   17    5      1.90     -0.12
   -7   17    4      2.40     -0.29
   -7   17    3     -0.96     -1.11
   -7   17    2     -0.24      0.21
   -7   17    1      0.70     -0.56
   -7   17    0      0.59     -0.34
   -7   16   12      0.18      1.22
   -7   16   11      1.18      1.81
   -7   16   10     -0.52     -1.08
   -7   16    9      0.14     -0.28
   -7   16    8     -0.64     -0.99
   -7   16    7     -0.01     -0.41
   -7   16    6     -0.19      0.90
   -7   16    5      0.23     -0.03
   -7   16    4      1.09      0.07
   -7   16    3     -0.20     -1.92
   -7   16    2      0.57      1.82
   -7   16    1      0.24      0.12
   -7   16    0     -1.28      0.00
   -7   15   12      1.76      0.17
   -7   15   11     -0.54      0.12
   -7   15   10      0.51     -0.05
   -7   15    9      0.54      1.35
   -7   15    8      0.28     -0.64
   -7   15    7     -0.21     -0.05
   -7   15    6     -0.26     -0.17
   -7   15    5     -0.12     -1.43
   -7   15    4     -1.04     -0.57
   -7   15    3      0.92      0.75
   -7   15    2      0.03      1.41
   -7   15    1     -0.87     -1.27
   -7   15    0      0.42     -0.23
   -7   14   13      0.73     -0.66
   -7   14   12      0.31      0.22
   -7   14   11      0.08      0.45
   -7   14   10      0.53      0.07
   -7   14    9     -0.02      0.81
   -7   14    8     -1.58     -0.23
   -7   14    7      0.08      1.60
   -7   14    6      0.45      0.19
   -7   14    5      0.03     -1.54
   -7   14    4      1.77     -0.09
   -7   14    3     -0.03     -0.11
   -7   14    2      0.16     -0.23
   -7   14    1     -0.02     -1.08
   -7   14    0     -0.88     -0.06
   -8   23    1      0.51     -0.49
   -8   23    0      1.45     -0.35
   -8   22    5     -1.23     -0.55
   -8   22    4     -0.88     -0.01
   -8   22    3      1.44      0.62
   -8   22    2      1.46     -0.35
   -8   22    1      0.11      0.44
   -8   22    0      0.12      0.11
   -8   21    7      1.26     -0.48
   -8   21    6      0.77      0.62
   -8   21    5     -1.39      0.16
   -8   21    4      0.09     -1.57
   -8   21    3      0.43     -0.63
   -8   21    2      2.19     -1.18
   -8   21    1     -0.42      0.39
   -8   21    0      0.06      0.00
   -8   20    8      0.59     -0.39
   -8   20    7      0.00      0.52
   -8   20    6     -0.58      0.37
   -8   20    5     -1.34      0.29
   -8   20    4      0.38     -2.57
   -8   20    3      0.09     -1.81
   -8   20    2      0.14     -0.13
   -8   20    1     -0.25      1.21
   -8   20    0      1.93     -0.15
   -8   19    9     -0.54      3.02
   -8   19    8      0.09     -0.14
   -8   19    7     -0.12      0.78
   -8   19    6     -0.91     -0.13
   -8   19    5     -0.09      0.12
   -8   19    4      0.33     -0.44
   -8   19    3      0.08      1.34
   -8   19    2     -0.46      0.62
   -8   19    1      0.89     -0.02
   -8   19    0      0.30      0.14
   -8   18   10      0.35     -1.68
   -8   18    9     -2.09     -0.18
   -8   18    8     -0.58      0.69
   -8   18    7     -0.22     -1.61
   -8   18    6      0.49     -0.05
   -8   18    5      0.29      0.09
   -8   18    4      0.61     -1.05
   -8   18    3     -1.28      1.60
   -8   18    2      0.24     -0.28
   -8   18    1      0.81     -0.73
   -8   18    0     -0.21     -0.31
   -8   17   11     -0.94      1.98
   -8   17   10     -0.18     -1.88
   -8   17    9     -0.46      0.05
   -8   17    8     -0.18     -0.13
   -8   17    7     -0.07     -0.31
   -8   17    6     -0.84      1.40
   -8   17    5      0.16     -0.18
   -8   17    4      0.91     -1.51
   -8   17    3     -1.12     -0.65
   -8   17    2      0.31     -0.55
   -8   17    1     -1.06      1.45
   -8   17    0     -0.11     -0.27
   -8   16   12     -1.03      0.11
   -8   16   11      0.11      1.60
   -8   16   10      0.66     -0.12
   -8   16    9      0.00      1.29
   -8   16    8     -0.32     -0.22
   -8   16    7     -0.08     -0.07
   -8   16    6     -0.95     -0.29
   -8   16    5      0.04     -0.89
   -8   16    4     -0.53     -0.29
   -8   16    3      0.03      0.42
   -8   16    2     -0.64      0.29
   -8   16    1      0.09      0.69
   -8   16    0      1.37      0.57
   -9   23    2      0.45      0.18
   -9   23    1     -0.18      0.16
   -9   23    0     -0.08      0.00
   -9   22    5     -1.79     -0.43
   -9   22    4      0.08     -0.93
   -9   22    3      0.93     -0.08
   -9   22    2      0.79     -0.95
   -9   22    1     -0.20     -0.50
   -9   22    0     -0.91      0.00
   -9   21    7      0.98      0.42
   -9   21    6     -0.52      0.49
   -9   21    5     -0.10     -1.27
   -9   21    4      0.86     -0.97
   -9   21    3     -0.03     -0.79
   -9   21    2      1.43     -0.18
   -9   21    1     -0.44      0.59
   -9   21    0     -1.27      0.57
   -9   20    8     -0.03      1.16
   -9   20    7      0.78      0.44
   -9   20    6     -0.31     -0.33
   -9   20    5      0.56     -0.44
   -9   20    4      0.20      1.36
   -9   20    3      0.30     -0.89
   -9   20    2     -0.56      0.02
   -9   20    1     -0.62     -0.59
   -9   20    0     -0.76      0.36
   -9   19    9     -0.27     -0.69
   -9   19    8     -0.31      0.35
   -9   19    7      0.31     -0.46
   -9   19    6      0.43      1.40
   -9   19    5     -0.61      0.81
   -9   19    4     -0.77      0.32
   -9   19    3     -1.12      0.19
   -9   19    2      0.10     -0.94
   -9   19    1      0.94     -1.84
   -9   19    0      0.09     -0.07
   -9   18   10      2.13     -0.51
   -9   18    9      0.04     -1.78
   -9   18    8      0.36      0.23
   -9   18    7      0.17      1.25
   -9   18    6     -1.02      0.22
   -9   18    5     -0.10     -1.29
   -9   18    4     -0.88     -0.05
   -9   18    3     -0.03     -0.30
   -9   18    2      0.60      0.02
   -9   18    1      0.04      1.27
   -9   18    0      1.04      0.27
  -10   23    3     -0.02      0.33
  -10   23    2     -0.18     -0.75
  -10   23    1     -0.57     -0.09
  -10   23    0     -1.89     -0.31
  -10   22    5      0.94     -0.23
  -10   22    4     -0.59      1.10
  -10   22    3      0.70      0.84
  -10   22    2      0.83      0.81
  -10   22    1     -1.65     -0.25
  -10   22    0     -0.99     -0.40
  -10   21    7     -0.83     -2.95
  -10   21    6      1.51     -1.18
  -10   21    5      1.65      0.12
  -10   21    4      0.30      1.94
  -10   21    3      0.06     -0.03
  -10   21    2     -0.27      0.22
  -10   21    1     -0.65     -0.46
  -10   21    0     -0.48     -0.18
  -10   20    8     -2.83     -0.30
  -10   20    7      0.36     -2.52
  -10   20    6      1.42     -0.03
  -10   20    5     -0.20      0.15
  -10   20    4     -0.59      0.23
  -10   20    3     -0.28     -1.49
  -10   20    2      0.75     -0.43
  -10   20    1      0.41     -2.04
  -10   20    0     -1.66     -0.48
   -6   16   12     -0.01      2.30
  -11   23    3      0.91      0.43
  -11   23    2     -0.46     -0.57
  -11   23    1     -1.02     -0.74
  -11   23    0      1.63     -0.10
  -11   22    5     -0.23      2.18
  -11   22    4     -1.99      0.14
  -11   22    3      0.02      0.27
  -11   22    2      0.03      0.29
  -11   22    1     -0.05      0.12
  -11   22    0      2.01      0.09
    0   14   12      1.88     -0.16
   -1   21    0      0.59     -0.09
    0   21    0     -2.92      0.74
   -3   22    0     -0.73      0.17
   -2   22    0     -0.21      0.18
   -1   22    0      0.13     -0.15
    0   22    0      0.01     -0.10
   -7   23    0     -0.19     -0.18
   -6   23    0      0.30      0.33
   -5   23    0      2.53      0.02
   -4   23    0     -1.05     -0.33
   -3   23    0     -1.11      0.19
   -2   23    0      1.26     -0.61
   -1   21    1      1.05      0.93
    0   21    1      1.38     -0.13
   -3   22    1     -0.22      0.88
   -2   22    1     -0.38      0.25
   -1   22    1     -0.77      0.64
    0   22    1      0.54     -0.42
   -7   23    1     -0.03      0.32
   -6   23    1      0.10      0.46
   -5   23    1      0.48     -1.13
   -4   23    1     -0.47      0.10
   -3   23    1     -0.29      0.08
   -2   23    1     -0.37     -0.63
   -1   21    2     -0.25     -1.41
    0   21    2     -1.45     -0.16
   -4   22    2     -0.02      0.18
   -3   22    2     -0.11      0.62
   -2   22    2      0.80     -0.19
   -1   22    2      0.28      0.47
    0   22    2     -0.26     -0.25
   -8   23    2      1.45      0.73
   -7   23    2     -0.66     -0.50
   -6   23    2     -1.28     -0.37
   -5   23    2     -0.31      0.52
   -4   23    2     -0.49      0.59
   -3   23    2      0.06      0.29
   -2   23    2      1.25      0.76
   -2   21    3      0.58     -0.05
   -1   21    3      1.00     -0.18
    0   21    3      1.59     -0.60
   -4   22    3      0.54     -1.28
   -3   22    3      0.70      0.46
   -2   22    3     -0.29      0.26
   -1   22    3     -0.68     -0.59
   -9   23    3      0.97     -0.27
   -8   23    3      0.73     -0.09
   -7   23    3     -0.67      0.32
   -6   23    3      0.40      0.35
   -5   23    3      0.46     -0.38
   -4   23    3      0.09     -0.51
   -3   23    3      0.37     -0.30
    0   20    4     -0.07     -0.20
   -2   21    4     -0.19     -0.32
   -1   21    4     -1.30      0.18
    0   21    4      0.25     -0.53
   -5   22    4      0.57     -0.40
   -4   22    4     -0.32      0.72
   -3   22    4      1.01      0.35
   -2   22    4      0.46      0.74
   -1   22    4      0.05      0.36
  -11   23    4     -1.85      0.83
  -10   23    4      0.86      0.07
   -9   23    4     -0.77      0.08
   -8   23    4     -1.24      0.02
   -7   23    4      1.37      0.53
   -6   23    4      0.08      0.58
   -5   23    4     -0.81      1.10
   -4   23    4      0.69      1.37
   -3   23    4      0.05      0.41
   -1   20    5     -0.69      0.90
    0   20    5      0.69      0.03
   -3   21    5      1.04     -0.18
   -2   21    5     -1.04      0.36
   -1   21    5      0.16     -0.62
    0   21    5      0.93      0.39
   -7   22    5      0.37     -0.93
   -6   22    5     -0.80      0.03
   -5   22    5      0.25      0.79
   -4   22    5      0.72     -0.03
   -3   22    5     -1.26     -0.59
   -2   22    5      0.49     -0.20
  -11   23    5     -0.53      0.42
  -10   23    5     -0.28      0.14
   -9   23    5     -0.54     -0.54
   -8   23    5     -0.99     -0.34
   -7   23    5     -0.20      0.55
   -6   23    5      0.13     -0.50
   -5   23    5     -0.05     -0.02
   -4   23    5      0.20     -0.11
    0   19    6      1.06      0.22
   -2   20    6      0.97     -0.81
   -1   20    6      1.27     -0.02
    0   20    6     -0.35      0.35
   -5   21    6     -0.12      1.20
   -4   21    6     -0.75     -0.18
   -3   21    6     -0.98      0.02
   -2   21    6      0.74     -0.14
   -1   21    6      0.06     -0.77
    0   21    6     -0.10     -0.27
  -11   22    6      0.82     -0.14
  -10   22    6     -0.01      0.02
   -9   22    6      0.32      1.24
   -8   22    6      0.90      0.38
   -7   22    6     -0.25      0.11
   -6   22    6     -0.35     -1.04
   -5   22    6      0.77     -0.49
   -4   22    6     -0.76      0.53
   -3   22    6     -1.69      0.85
  -11   23    6     -0.31     -0.12
  -10   23    6      0.13      0.21
   -9   23    6      1.31      0.66
   -8   23    6      0.52      0.17
   -7   23    6      0.08      0.66
   -6   23    6      0.82      0.47
   -5   23    6     -0.04     -0.16
   -1   19    7      0.14      0.71
    0   19    7     -0.52      0.57
   -3   20    7      0.72     -0.69
   -2   20    7      0.94      0.56
   -1   20    7      0.38     -0.04
    0   20    7      1.21      0.14
   -7   21    7      0.53      0.34
   -6   21    7      1.73      0.16
   -5   21    7      1.45      0.67
   -4   21    7     -0.25     -0.11
   -3   21    7     -0.76     -0.09
   -2   21    7     -0.37     -0.04
   -1   21    7      0.05     -0.91
  -11   22    7     -0.06     -2.18
  -10   22    7     -1.03      0.21
   -9   22    7      0.79      0.78
   -8   22    7     -1.29     -0.40
   -7   22    7     -1.05      1.60
   -6   22    7      0.11      0.04
   -5   22    7     -0.54     -0.68
   -4   22    7     -0.12      0.02
  -11   23    7     -1.03      0.07
  -10   23    7     -0.26      0.95
   -9   23    7     -0.26     -0.09
   -8   23    7     -1.04      0.40
   -7   23    7      0.13     -0.22
    0   18    8      0.02      0.29
   -2   19    8     -0.92     -0.74
   -1   19    8     -0.52     -0.28
    0   19    8     -0.53     -0.19
   -5   20    8      1.12     -0.03
   -4   20    8      0.68     -0.48
   -3   20    8      0.56     -0.68
   -2   20    8      0.28      1.37
   -1   20    8      0.29      1.01
    0   20    8      1.05     -0.02
  -10   21    8     -0.23      0.64
   -9   21    8     -0.62     -0.02
   -8   21    8     -1.08     -0.79
   -7   21    8      0.58      0.51
   -6   21    8     -0.23     -0.42
   -5   21    8     -0.24      0.21
   -4   21    8      1.02     -0.51
   -3   21    8     -0.47      0.46
  -11   22    8     -0.01      0.07
  -10   22    8      0.96      0.32
   -9   22    8     -0.12     -1.17
   -8   22    8      0.54      0.13
   -7   22    8      1.44     -0.01
   -6   22    8     -0.46      0.57
   -5   22    8     -0.41      0.58
  -11   23    8     -0.51      0.72
  -10   23    8      0.38      0.13
   -2   18    9     -0.58      0.00
   -1   18    9     -0.96      0.09
    0   18    9      0.40     -0.32
   -4   19    9     -1.09      0.25
   -3   19    9      1.77     -0.16
   -2   19    9      0.33      0.46
   -1   19    9     -0.29      1.65
    0   19    9      0.75     -0.05
  -10   20    9      0.05     -1.48
   -9   20    9     -0.54      1.21
   -8   20    9      1.54      1.16
   -7   20    9      0.72     -0.62
   -6   20    9      0.52     -0.24
   -5   20    9      0.51      0.74
   -4   20    9      0.36     -0.24
   -3   20    9      0.48     -0.16
   -2   20    9      0.33     -0.02
  -10   21    9      0.26     -0.29
   -9   21    9      0.29     -0.32
   -8   21    9      0.04     -1.19
   -7   21    9     -0.17     -0.28
   -6   21    9      0.38      0.41
   -5   21    9     -0.04      0.28
   -4   21    9     -0.18      0.32
  -11   22    9      0.08      1.24
  -10   22    9      0.10      1.02
   -9   22    9     -0.07     -0.12
   -8   22    9     -0.02      0.16
   -1   17   10     -0.83     -0.44
    0   17   10     -0.82      0.01
   -4   18   10     -1.53      0.81
   -3   18   10      0.83      1.54
   -2   18   10     -0.71     -0.90
   -1   18   10     -0.50     -0.33
    0   18   10      1.01      0.35
   -9   19   10     -0.30     -0.41
   -8   19   10      0.25      0.17
   -7   19   10     -0.65      0.43
   -6   19   10     -0.59     -0.94
   -5   19   10     -0.45     -0.43
   -4   19   10      0.33      0.27
   -3   19   10     -0.05     -0.85
   -2   19   10     -0.05     -1.27
   -1   19   10      0.58      0.52
  -10   20   10     -2.06     -0.14
   -9   20   10     -1.03      1.26
   -8   20   10      0.52     -0.28
   -7   20   10     -0.18     -0.31
   -6   20   10     -0.17      0.08
   -5   20   10      0.45      1.07
   -4   20   10      1.15      0.30
  -10   21   10      0.05      1.18
   -9   21   10      0.93      0.13
   -8   21   10      0.47     -1.24
   -7   21   10     -0.12      0.13
   -1   16   11      1.56     -1.66
    0   16   11     -0.66      0.00
   -4   17   11     -0.40      0.92
   -3   17   11     -0.24      0.05
   -2   17   11      0.62     -0.17
   -1   17   11      0.38      0.20
    0   17   11     -0.94     -0.39
   -9   18   11      0.14     -0.93
   -8   18   11     -1.66      1.46
   -7   18   11     -0.61      0.75
   -6   18   11     -0.42     -0.97
   -5   18   11     -0.76      0.50
   -4   18   11     -1.32      0.45
   -3   18   11     -0.95     -0.56
   -2   18   11     -0.19     -0.39
   -1   18   11     -0.61      0.59
   -9   19   11     -0.88     -1.12
   -8   19   11      0.75      1.63
   -7   19   11      0.90      0.44
   -6   19   11     -0.08     -0.77
   -5   19   11      0.17      0.69
   -4   19   11      0.69     -0.19
   -3   19   11      0.05     -0.93
  -10   20   11     -0.11     -1.34
   -9   20   11     -0.50     -0.05
   -8   20   11      0.94      0.42
   -7   20   11      0.81     -0.16
   -2   15   12      0.44     -1.52
   -1   15   12      0.93      0.26
    0   15   12      0.29      0.03
   -5   16   12     -0.84      1.53
   -4   16   12     -0.34      0.52
   -3   16   12      0.34     -0.29
   -2   16   12     -0.27      1.00
   -1   16   12      0.02      0.76
    0   16   12      0.37     -0.22
   -8   17   12     -0.34     -0.25
   -7   17   12     -0.06      0.50
   -6   17   12     -0.23      0.69
   -5   17   12     -0.41      0.03
   -4   17   12      0.14      1.09
   -3   17   12      0.10      0.68
   -2   17   12     -0.89      0.25
   -1   17   12     -0.28     -0.41
   -9   18   12      0.92     -0.16
   -8   18   12      0.78     -1.10
   -7   18   12     -0.80      0.17
   -6   18   12     -0.16     -0.87
   -5   18   12      0.26     -0.80
   -4   18   12      0.11     -0.37
   -3   18   12      0.48     -0.14
   -9   19   12     -1.06     -0.12
   -8   19   12     -0.14      0.29
   -7   19   12     -0.02      0.67
    0   13   13     -1.81     -0.10
   -3   14   13     -0.40     -1.67
   -2   14   13     -0.73     -0.41
   -1   14   13     -1.45      0.44
    0   14   13     -0.10     -0.04
   -7   15   13      0.38     -0.91
   -6   15   13      0.83     -0.09
   -5   15   13      0.70      0.98
   -4   15   13      0.75      0.40
   -3   15   13      0.41      0.32
   -2   15   13      0.21      1.38
   -1   15   13      0.71     -0.17
    0   15   13      0.60     -0.39
   -8   16   13      0.01     -1.11
   -7   16   13     -0.11      0.07
   -6   16   13      0.29      0.84
   -5   16   13      0.13      0.51
   -4   16   13      0.93      0.73
   -3   16   13      0.85      0.45
   -2   16   13      0.38      0.22
   -1   16   13      0.05     -0.62
   -8   17   13     -0.09      0.22
   -7   17   13     -0.29      1.26
   -6   17   13     -0.01     -0.15
   -5   17   13     -0.58     -0.44
   -4   17   13     -0.91      0.02
    0   11   14     -0.66     -0.01
   -2   12   14     -2.29      0.73
   -1   12   14     -0.73      0.54
    0   12   14      0.00     -0.58
   -6   13   14     -1.50      1.06
   -5   13   14      0.12     -0.09
   -4   13   14      0.27      0.62
   -3   13   14      0.10      1.06
   -2   13   14     -0.08      0.92
   -1   13   14      0.03      0.44
    0   13   14      0.15      0.28
   -7   14   14      0.74      0.15
   -6   14   14      1.11      0.01
   -5   14   14     -0.09     -1.10
   -4   14   14      1.14     -0.71
   -3   14   14      1.90     -0.93
   -2   14   14      0.67     -1.06
   -1   14   14     -0.50      0.17
    0   14   14      0.68      0.31
   -7   15   14      0.47      0.75
   -6   15   14      0.32     -0.55
   -5   15   14     -0.12     -0.73
   -4   15   14      0.45     -0.45
   -3   15   14      0.40     -1.04
   -2   15   14     -0.27     -0.27
   -8   16   14     -0.20     -0.14
   -7   16   14     -0.30      0.45
   -6   16   14     -0.05      0.70
    0    9   15     -0.75     -0.68
   -5   10   15     -0.04     -0.36
   -4   10   15     -0.91     -0.43
   -3   10   15      0.41      1.12
   -2   10   15     -1.05      0.82
   -1   10   15     -1.21     -0.37
    0   10   15     -0.37     -0.11
   -5   11   15      0.09      0.29
   -4   11   15      0.31      1.42
   -3   11   15      0.68      1.32
   -2   11   15      0.20      0.45
   -1   11   15      0.01      0.45
    0   11   15     -0.69      0.17
   -6   12   15     -0.27      0.73
   -5   12   15     -0.69     -0.39
   -4   12   15      0.27     -0.58
   -3   12   15      0.29     -1.35
   -2   12   15      0.13      0.15
   -1   12   15      0.17      1.13
    0   12   15     -0.74     -0.09
   -6   13   15     -0.21      0.40
   -5   13   15     -1.24     -0.67
   -4   13   15     -0.97     -0.55
   -3   13   15     -0.52     -0.50
   -2   13   15      0.03     -0.52
   -1   13   15     -0.63     -0.15
   -7   14   15     -0.05      0.56
   -6   14   15      0.59     -0.49
   -5   14   15     -0.15      0.59
   -4   14   15     -0.33      0.45
   -3    6   16      0.85     -0.05
   -2    6   16      0.08      0.64
   -1    6   16      0.13     -0.89
    0    6   16      1.05     -0.11
   -3    7   16     -0.68      1.50
   -2    7   16     -0.42      0.36
   -1    7   16     -0.31     -1.48
    0    7   16     -0.93      0.51
   -4    8   16     -0.86      0.11
   -3    8   16     -0.62      0.09
   -2    8   16     -0.58     -0.09
   -1    8   16     -0.50      0.41
    0    8   16     -0.55      0.19
   -4    9   16      0.43     -1.12
   -3    9   16     -0.22     -0.66
   -2    9   16      0.63      1.37
   -1    9   16     -0.01      0.33
    0    9   16     -0.97      0.01
   -5   10   16      1.87     -0.19
   -4   10   16      0.35     -0.51
   -3   10   16     -0.78      0.41
   -2   10   16      0.59      0.72
   -1   10   16      0.00     -0.55
    0   10   16     -0.25      0.47
   -5   11   16      0.00     -0.03
   -4   11   16     -0.41     -0.50
   -3   11   16     -0.26      0.18
   -2   11   16     -0.17      0.64
   -6   12   16      0.12      0.13
   -5   12   16     -0.20      0.53
    0    0    0      0.00      0.00
# SQUEEZE RESULTS (Version =  71116)
# Note: Data are Listed for all Voids in the P1 Unit Cell
# i.e. Centre of Gravity, Solvent Accessible Volume,
# Recovered number of Electrons in the Void and
# Details about the Squeezed Material
loop_
  _platon_squeeze_void_nr
  _platon_squeeze_void_average_x
  _platon_squeeze_void_average_y
  _platon_squeeze_void_average_z
  _platon_squeeze_void_volume
  _platon_squeeze_void_count_electrons
  _platon_squeeze_void_content
   1 -0.002 -0.001 -0.017      2471       124 ' '
_platon_squeeze_void_probe_radius                  1.20
_platon_squeeze_details
 Some residual electron densities, which should be considered 
 as peaks from heavily disordered solvent molecules and 
 counterions, did not give a chemical meaningful result after 
 a careful refinement. Therefore, the contributions of the 
 disordered solvent molecules and counterions were removed 
 from the diffraction data using the SQUEEZE routine of PLATON 
 software and then final refinements were carried out. The 
 final platon.sqf file was attached to the CIF file and the 
 electron numbers in the void obtained from the platon.sqf 
 file has been used to calculate the guest solvent molecules 
 crystallizing in the pore.These molecules are further 
 estimated by TGA analysis combining with element analysis, 
 which showed that there are 4 NO3- anions and 12 free water 
 molecules in the unit cell. Since these anions and solvent 
 moleculars are absent from the model, the calculated 
 molecular formula would be incorrect.Finally,the results 
 were introduced to the formula unit directly which 
 consequently generates significant A-level and B-level 
 errors (e.g. density, chemical formula, density) in the 
 final CIF output.
)
TITL OO in P6(3)22
CELL   19.6977   19.6977   13.8757     90.00     90.00    120.00
SPGR P6322
# Solvent Accessible Volume =      2467
# Electrons Found in S.A.V. =       122
# Note: Atoms in Void as Cxxx and Qxxx all others
Q101 0.673 0.019 0.371 !       1.18 eA-3
Q102 0.668 0.682 0.888 !       1.11 eA-3
Q103 0.680 0.955 0.411 !       0.88 eA-3
Q104 0.674 0.014 0.893 !       0.80 eA-3
Q105 0.076 0.749 0.400 !       0.68 eA-3
Q106 0.082 0.347 0.065 !       0.68 eA-3
Q107 0.045 0.300 0.120 !       0.64 eA-3
Q108 0.598 0.246 0.122 !       0.59 eA-3
Q109 0.696 0.721 0.845 !       0.55 eA-3
Q110 0.669 0.264 0.407 !       0.55 eA-3
Q111 0.658 0.581 0.185 !       0.55 eA-3
Q112 0.548 0.858 0.683 !       0.54 eA-3
Q113 0.958 0.721 0.648 !       0.52 eA-3
C114 0.278 0.281-0.003 !       0.51 eA-3
Q115 0.060 0.314 0.861 !       0.50 eA-3
)
;
_shelx_fab_checksum              82795
loop_
_space_group_symop_operation_xyz
'x, y, z'
'-x, -y, z+1/2'
'-y, x-y, z'
'-x+y, -x, z'
'x-y, x, z+1/2'
'y, -x+y, z+1/2'
'x-y, -y, -z'
'-x, -x+y, -z'
'y, x, -z'
'-y, -x, -z+1/2'
'x, x-y, -z+1/2'
'-x+y, y, -z+1/2'
loop_
_atom_site_label
_atom_site_type_symbol
_atom_site_fract_x
_atom_site_fract_y
_atom_site_fract_z
_atom_site_U_iso_or_equiv
_atom_site_adp_type
_atom_site_occupancy
_atom_site_site_symmetry_order
_atom_site_calc_flag
_atom_site_refinement_flags_posn
_atom_site_refinement_flags_adp
_atom_site_refinement_flags_occupancy
_atom_site_disorder_assembly
_atom_site_disorder_group
C1 C 0.8391(5) 0.4312(7) 0.5381(6) 0.089(3) Uani 1 1 d . U . . .
C2 C 0.8768(6) 0.5214(6) 0.6359(6) 0.082(3) Uani 1 1 d . . . . .
C4 C 0.8305(8) 0.3738(8) 0.4595(9) 0.196(6) Uani 1 1 d D U . . .
H4 H 0.775776 0.331790 0.454263 0.236 Uiso 1 1 calc R U . A 2
O1 O 0.8804(9) 0.3416(8) 0.4715(9) 0.267(6) Uani 1 1 d D U . . .
H1 H 0.912508 0.356598 0.427580 0.400 Uiso 1 1 calc R U . . .
N1 N 0.8054(3) 0.4748(4) 0.6564(4) 0.0613(17) Uani 1 1 d . . . . .
N2 N 0.7782(4) 0.4133(4) 0.5935(5) 0.0671(18) Uani 1 1 d . . . . .
N3 N 0.9026(4) 0.4977(5) 0.5619(5) 0.082(2) Uani 1 1 d . U . . .
Cu1 Cu 0.73939(4) 0.47879(7) 0.750000 0.0722(5) Uani 1 2 d S T P . .
Cu2 Cu 0.666667 0.333333 0.59178(11) 0.0664(5) Uani 1 3 d S T P . .
Cu3 Cu 1.000000 0.54366(10) 0.500000 0.1012(6) Uani 1 2 d S T P . .
C6 C 0.8555(11) 0.4233(9) 0.3685(9) 0.260(9) Uani 1 1 d D U . B 2
H6A H 0.822419 0.445684 0.358964 0.390 Uiso 1 1 calc R U . B 2
H6B H 0.908943 0.464539 0.374738 0.390 Uiso 1 1 calc R U . B 2
H6C H 0.850738 0.391016 0.314176 0.390 Uiso 1 1 calc R U . B 2
C3 C 0.9321(7) 0.6001(8) 0.6860(8) 0.155(5) Uani 1 1 d D U . . .
H3 H 0.965345 0.639341 0.638164 0.186 Uiso 1 1 calc R U . . .
O2 O 0.9792(8) 0.5936(8) 0.7588(11) 0.278(7) Uani 1 1 d D U . . .
H2 H 0.965575 0.601139 0.811739 0.416 Uiso 1 1 calc R U . . .
C5 C 0.8780(8) 0.6244(10) 0.7338(15) 0.244(8) Uani 1 1 d D U . . .
H5A H 0.845617 0.629154 0.685734 0.366 Uiso 1 1 calc R U . . .
H5B H 0.845535 0.585398 0.780145 0.366 Uiso 1 1 calc R U . . .
H5C H 0.908834 0.673829 0.765610 0.366 Uiso 1 1 calc R U . . .
loop_
_atom_site_aniso_label
_atom_site_aniso_U_11
_atom_site_aniso_U_22
_atom_site_aniso_U_33
_atom_site_aniso_U_23
_atom_site_aniso_U_13
_atom_site_aniso_U_12
C1 0.076(5) 0.120(8) 0.080(5) 0.003(5) 0.018(4) 0.056(5)
C2 0.083(6) 0.077(6) 0.067(5) -0.002(5) 0.014(5) 0.026(5)
C4 0.194(13) 0.219(14) 0.172(11) -0.054(9) 0.086(10) 0.100(10)
O1 0.328(16) 0.283(14) 0.248(11) -0.062(11) 0.057(12) 0.197(12)
N1 0.048(4) 0.055(4) 0.061(4) 0.000(3) 0.020(3) 0.011(3)
N2 0.061(4) 0.071(4) 0.067(4) -0.006(3) 0.017(3) 0.031(3)
N3 0.072(5) 0.086(5) 0.074(4) -0.008(4) 0.018(4) 0.030(4)
Cu1 0.0728(6) 0.0696(8) 0.0733(9) 0.000 0.0206(8) 0.0348(4)
Cu2 0.0689(6) 0.0689(6) 0.0615(9) 0.000 0.000 0.0344(3)
Cu3 0.0696(10) 0.1294(12) 0.0848(10) 0.0171(5) 0.0341(9) 0.0348(5)
C6 0.38(2) 0.248(18) 0.130(10) -0.071(10) 0.027(14) 0.139(16)
C3 0.129(11) 0.162(11) 0.129(9) -0.070(9) -0.040(8) 0.040(8)
O2 0.252(13) 0.241(12) 0.240(13) 0.027(13) -0.079(12) 0.048(11)
C5 0.223(16) 0.222(15) 0.240(18) -0.083(15) 0.021(14) 0.076(12)
loop_
_atom_type_symbol
_atom_type_description
_atom_type_scat_dispersion_real
_atom_type_scat_dispersion_imag
_atom_type_scat_source
C C 0.0033 0.0016 'International Tables Vol C Tables 4.2.6.8 and 6.1.1.4'
N N 0.0061 0.0033 'International Tables Vol C Tables 4.2.6.8 and 6.1.1.4'
Cu Cu 0.3201 1.2651 'International Tables Vol C Tables 4.2.6.8 and 6.1.1.4'
O O 0.0106 0.0060 'International Tables Vol C Tables 4.2.6.8 and 6.1.1.4'
H H 0.0000 0.0000 'International Tables Vol C Tables 4.2.6.8 and 6.1.1.4'
loop_
_geom_angle_atom_site_label_1
_geom_angle_atom_site_label_2
_geom_angle_atom_site_label_3
_geom_angle
_geom_angle_site_symmetry_1
_geom_angle_site_symmetry_3
N2 C1 N3 113.7(9) . .
N2 C1 C4 118.3(10) . .
N3 C1 C4 127.9(9) . .
N1 C2 N3 113.5(8) . .
N1 C2 C3 126.6(9) . .
N3 C2 C3 119.9(9) . .
O1 C4 C6 108.12(14) . .
O1 C4 C1 113.9(12) . .
C6 C4 C1 103.8(11) . .
O1 C4 H4 110.3 . .
C6 C4 H4 110.3 . .
C1 C4 H4 110.3 . .
C4 O1 H1 109.5 . .
C2 N1 N2 107.5(6) . .
C2 N1 Cu1 131.9(6) . .
N2 N1 Cu1 120.6(4) . .
C1 N2 N1 103.6(7) . .
C1 N2 Cu2 135.4(6) . .
N1 N2 Cu2 120.3(4) . .
C1 N3 C2 101.7(7) . .
C1 N3 Cu3 126.6(6) . .
C2 N3 Cu3 131.6(7) . .
N1 Cu1 N1 175.8(4) . 12_656
N2 Cu2 N2 119.985(10) 3_655 .
N2 Cu2 N2 119.986(10) 3_655 4_665
N2 Cu2 N2 119.984(9) . 4_665
N3 Cu3 N3 176.7(5) . 8_766
C4 C6 H6A 109.5 . .
C4 C6 H6B 109.5 . .
H6A C6 H6B 109.5 . .
C4 C6 H6C 109.5 . .
H6A C6 H6C 109.5 . .
H6B C6 H6C 109.5 . .
O2 C3 C5 108.05(14) . .
O2 C3 C2 113.2(12) . .
C5 C3 C2 105.0(11) . .
O2 C3 H3 110.2 . .
C5 C3 H3 110.2 . .
C2 C3 H3 110.2 . .
C3 O2 H2 109.5 . .
C3 C5 H5A 109.5 . .
C3 C5 H5B 109.5 . .
H5A C5 H5B 109.5 . .
C3 C5 H5C 109.5 . .
H5A C5 H5C 109.5 . .
H5B C5 H5C 109.5 . .
loop_
_geom_bond_atom_site_label_1
_geom_bond_atom_site_label_2
_geom_bond_distance
C1 N2 1.315(10)
C1 N3 1.324(12)
C1 C4 1.519(16)
C2 N1 1.269(10)
C2 N3 1.329(10)
C2 C3 1.545(14)
C4 O1 1.4197(14)
C4 C6 1.5194(14)
C4 H4 0.9800
O1 H1 0.8200
N1 N2 1.365(8)
N1 Cu1 1.868(6)
N2 Cu2 1.962(6)
N3 Cu3 1.872(7)
C6 H6A 0.9600
C6 H6B 0.9600
C6 H6C 0.9600
C3 O2 1.4202(13)
C3 C5 1.5197(13)
C3 H3 0.9800
O2 H2 0.8200
C5 H5A 0.9600
C5 H5B 0.9600
C5 H5C 0.9600
loop_
_geom_torsion_atom_site_label_1
_geom_torsion_atom_site_label_2
_geom_torsion_atom_site_label_3
_geom_torsion_atom_site_label_4
_geom_torsion
N2 C1 C4 O1 -116.6(11)
N3 C1 C4 O1 60.2(16)
N2 C1 C4 C6 126.1(11)
N3 C1 C4 C6 -57.1(15)
N3 C2 N1 N2 0.5(10)
C3 C2 N1 N2 178.8(9)
N3 C2 N1 Cu1 -179.0(6)
C3 C2 N1 Cu1 -0.7(15)
N3 C1 N2 N1 1.4(11)
C4 C1 N2 N1 178.6(9)
N3 C1 N2 Cu2 171.9(6)
C4 C1 N2 Cu2 -10.8(15)
C2 N1 N2 C1 -1.1(9)
Cu1 N1 N2 C1 178.5(6)
C2 N1 N2 Cu2 -173.4(6)
Cu1 N1 N2 Cu2 6.1(8)
N2 C1 N3 C2 -1.1(11)
C4 C1 N3 C2 -178.1(11)
N2 C1 N3 Cu3 -179.1(6)
C4 C1 N3 Cu3 3.9(16)
N1 C2 N3 C1 0.3(11)
C3 C2 N3 C1 -178.1(9)
N1 C2 N3 Cu3 178.2(6)
C3 C2 N3 Cu3 -0.2(14)
N1 C2 C3 O2 96.0(13)
N3 C2 C3 O2 -85.7(12)
N1 C2 C3 C5 -21.6(15)
N3 C2 C3 C5 156.7(10)
