#------------------------------------------------------------------------------
#$Date: 2017-02-04 15:25:57 +0200 (Sat, 04 Feb 2017) $
#$Revision: 191488 $
#$URL: file:///home/coder/svn-repositories/cod/cif/7/11/94/7119435.cif $
#------------------------------------------------------------------------------
#
# This file is available in the Crystallography Open Database (COD),
# http://www.crystallography.net/
#
# All data on this site have been placed in the public domain by the
# contributors.
#
data_7119435
loop_
_publ_author_name
'Lv, Xiu-Xiu'
'Shi, Lu-Lu'
'Li, Ke'
'Li, Bao-Long'
'Li, Hai-Yan'
_publ_section_title
;
 An unusual porous cationic metal-organic framework based on a
 tetranuclear hydroxyl-copper(ii) cluster for fast and highly efficient
 dichromate trapping through a single-crystal to single-crystal process.
;
_journal_issue                   11
_journal_name_full
'Chemical communications (Cambridge, England)'
_journal_page_first              1860
_journal_page_last               1863
_journal_paper_doi               10.1039/c6cc09676j
_journal_volume                  53
_journal_year                    2017
_chemical_formula_moiety         'C22 H21 Cu2 N6 O5, Br'
_chemical_formula_sum            'C22 H21 Br Cu2 N6 O5'
_chemical_formula_weight         656.44
_space_group_crystal_system      monoclinic
_space_group_IT_number           14
_space_group_name_Hall           '-P 2ybc'
_space_group_name_H-M_alt        'P 1 21/c 1'
_symmetry_space_group_name_Hall  '-P 2ybc'
_symmetry_space_group_name_H-M   'P 1 21/c 1'
_atom_sites_solution_hydrogens   mixed
_atom_sites_solution_primary     direct
_audit_creation_date             2016-06-11
_audit_creation_method
;
Olex2 1.2-alpha
(compiled 2016.02.24 svn.r3266 for OlexSys, GUI svn.r5155)
;
_audit_update_record
;
2016-11-29 deposited with the CCDC.
2017-01-11 downloaded from the CCDC.
;
_cell_angle_alpha                90
_cell_angle_beta                 94.231(2)
_cell_angle_gamma                90
_cell_formula_units_Z            4
_cell_length_a                   9.6552(2)
_cell_length_b                   17.1958(5)
_cell_length_c                   20.8804(6)
_cell_measurement_reflns_used    5533
_cell_measurement_temperature    223.01(10)
_cell_measurement_theta_max      30.1330
_cell_measurement_theta_min      3.1740
_cell_volume                     3457.30(16)
_computing_cell_refinement
;
CrysAlisPro, Agilent Technologies,
Version 1.171.36.32 (release 02-08-2013 CrysAlis171 .NET)
(compiled Aug  2 2013,16:46:58)
;
_computing_data_collection
;
CrysAlisPro, Agilent Technologies,
Version 1.171.36.32 (release 02-08-2013 CrysAlis171 .NET)
(compiled Aug  2 2013,16:46:58)
;
_computing_data_reduction
;
CrysAlisPro, Agilent Technologies,
Version 1.171.36.32 (release 02-08-2013 CrysAlis171 .NET)
(compiled Aug  2 2013,16:46:58)
;
_computing_molecular_graphics    'Olex2 (Dolomanov et al., 2009)'
_computing_publication_material  'Olex2 (Dolomanov et al., 2009)'
_computing_structure_refinement  'ShelXL (Sheldrick, 2015)'
_computing_structure_solution    'ShelXT (Sheldrick, 2015)'
_diffrn_ambient_temperature      223.01(10)
_diffrn_detector_area_resol_mean 10.4471
_diffrn_measured_fraction_theta_full 0.998
_diffrn_measured_fraction_theta_max 0.998
_diffrn_measurement_details
;
#__ type_ start__ end____ width___ exp.time_
  1 omega  -16.00   63.00   1.0000   22.1100
omega____ theta____ kappa____ phi______ frames
    -       13.6514   57.0000  -60.0000 79

#__ type_ start__ end____ width___ exp.time_
  2 omega   22.00   86.00   1.0000   22.1100
omega____ theta____ kappa____ phi______ frames
    -       13.6514   37.0000  150.0000 64

#__ type_ start__ end____ width___ exp.time_
  3 omega   35.00   76.00   1.0000   22.1100
omega____ theta____ kappa____ phi______ frames
    -       13.6514 -178.0000  -90.0000 41

#__ type_ start__ end____ width___ exp.time_
  4 omega  -49.00  -23.00   1.0000   22.1100
omega____ theta____ kappa____ phi______ frames
    -      -14.4327  -37.0000    0.0000 26

#__ type_ start__ end____ width___ exp.time_
  5 omega -104.00  -79.00   1.0000   22.1100
omega____ theta____ kappa____ phi______ frames
    -      -14.4327 -178.0000  -60.0000 25

#__ type_ start__ end____ width___ exp.time_
  6 omega  -80.00  -31.00   1.0000   22.1100
omega____ theta____ kappa____ phi______ frames
    -      -14.4327  -37.0000  -60.0000 49
;
_diffrn_measurement_device_type  'Xcalibur, Atlas, Gemini'
_diffrn_measurement_method       '\w scans'
_diffrn_orient_matrix_UB_11      -0.0093148000
_diffrn_orient_matrix_UB_12      -0.0284736000
_diffrn_orient_matrix_UB_13      0.0238762000
_diffrn_orient_matrix_UB_21      -0.0726799000
_diffrn_orient_matrix_UB_22      0.0066680000
_diffrn_orient_matrix_UB_23      -0.0031255000
_diffrn_orient_matrix_UB_31      -0.0075031000
_diffrn_orient_matrix_UB_32      -0.0290719000
_diffrn_orient_matrix_UB_33      -0.0241112000
_diffrn_radiation_monochromator  graphite
_diffrn_radiation_type           MoK\a
_diffrn_radiation_wavelength     0.71073
_diffrn_reflns_av_R_equivalents  0.0430
_diffrn_reflns_av_unetI/netI     0.0449
_diffrn_reflns_Laue_measured_fraction_full 0.998
_diffrn_reflns_Laue_measured_fraction_max 0.998
_diffrn_reflns_limit_h_max       11
_diffrn_reflns_limit_h_min       -11
_diffrn_reflns_limit_k_max       20
_diffrn_reflns_limit_k_min       -20
_diffrn_reflns_limit_l_max       24
_diffrn_reflns_limit_l_min       -24
_diffrn_reflns_number            20439
_diffrn_reflns_point_group_measured_fraction_full 0.998
_diffrn_reflns_point_group_measured_fraction_max 0.998
_diffrn_reflns_theta_full        24.999
_diffrn_reflns_theta_max         24.999
_diffrn_reflns_theta_min         2.986
_diffrn_source                   'Enhance (Mo) X-ray Source'
_exptl_absorpt_coefficient_mu    2.419
_exptl_absorpt_correction_T_max  1.00000
_exptl_absorpt_correction_T_min  0.45824
_exptl_absorpt_correction_type   multi-scan
_exptl_absorpt_process_details
;
CrysAlisPro, Agilent Technologies,
Version 1.171.36.32 (release 02-08-2013 CrysAlis171 .NET)
(compiled Aug  2 2013,16:46:58)
Empirical absorption correction using spherical harmonics,
 implemented in SCALE3 ABSPACK scaling algorithm.
;
_exptl_crystal_colour            'clear dark blue'
_exptl_crystal_colour_lustre     clear
_exptl_crystal_colour_modifier   dark
_exptl_crystal_colour_primary    blue
_exptl_crystal_density_diffrn    1.261
_exptl_crystal_description       block
_exptl_crystal_F_000             1312
_exptl_crystal_size_max          0.5
_exptl_crystal_size_mid          0.1
_exptl_crystal_size_min          0.07
_refine_diff_density_max         1.295
_refine_diff_density_min         -2.933
_refine_diff_density_rms         0.148
_refine_ls_extinction_method     none
_refine_ls_goodness_of_fit_ref   1.061
_refine_ls_hydrogen_treatment    mixed
_refine_ls_matrix_type           full
_refine_ls_number_parameters     329
_refine_ls_number_reflns         6095
_refine_ls_number_restraints     1
_refine_ls_restrained_S_all      1.061
_refine_ls_R_factor_all          0.0815
_refine_ls_R_factor_gt           0.0660
_refine_ls_shift/su_max          0.001
_refine_ls_shift/su_mean         0.000
_refine_ls_structure_factor_coef Fsqd
_refine_ls_weighting_details
'w=1/[\s^2^(Fo^2^)+(0.1150P)^2^+19.3958P] where P=(Fo^2^+2Fc^2^)/3'
_refine_ls_weighting_scheme      calc
_refine_ls_wR_factor_gt          0.2029
_refine_ls_wR_factor_ref         0.2118
_reflns_Friedel_coverage         0.000
_reflns_number_gt                4864
_reflns_number_total             6095
_reflns_threshold_expression     'I > 2\s(I)'
_iucr_refine_instructions_details
;

    g160611d_sq.res created by SHELXL-2014/7

TITL g160611d_a.res in P2(1)/c
REM Old TITL g160611d in P21/c #14
REM SHELXT solution in P2(1)/c
REM R1 0.164, Rweak 0.007, Alpha 0.037, Orientation as input
REM Formula found by SHELXT: C22 Br2 N9 O7
CELL 0.71073 9.655194 17.195847 20.880427 90 94.2313 90
ZERR 4 0.000246 0.000505 0.000564 0 0.0022 0
LATT 1
SYMM -X,0.5+Y,0.5-Z
SFAC C H Br Cu N O
UNIT 88 84 4 8 24 20
EQIV $1 +X,1.5-Y,0.5+Z
EQIV $2 1-X,1-Y,1-Z
DFIX 0.85 H5 O5
 
L.S. 25
PLAN  50
HTAB C1 N4_$1
HTAB C1 Br1_$2
HTAB C3 Br1_$2
HTAB C11 O3_$2
BOND $H
BOND
htab
MORE -1
CONF
ABIN
fmap 2 53
acta
OMIT 0 50
REM <olex2.extras>
REM <HklSrc "%.\\g160611d.hkl">
REM </olex2.extras>
 
WGHT    0.115000   19.395798
FVAR       0.38207
CU1   4    0.299183    0.493412    0.523931    11.00000    0.00951    0.01953 =
         0.01593    0.00229   -0.00023   -0.00177
CU2   4    0.001037    0.521577    0.428247    11.00000    0.01042    0.02180 =
         0.01565    0.00175    0.00105    0.00045
O1    6    0.312733    0.404299    0.581583    11.00000    0.01385    0.02862 =
         0.02941    0.01085    0.00169   -0.00075
O2    6    0.107176    0.402748    0.625526    11.00000    0.01457    0.03464 =
         0.02495    0.01099    0.00200    0.00323
O3    6    0.049760    0.062621    0.833432    11.00000    0.02345    0.04551 =
         0.03576    0.01394    0.00242    0.00782
O4    6   -0.118965    0.067590    0.898607    11.00000    0.01978    0.03692 =
         0.02785    0.00722    0.00324   -0.00373
O5    6    0.123001    0.459835    0.485123    11.00000    0.01136    0.01698 =
         0.01930   -0.00175    0.00099   -0.00141
H5    2    0.131686    0.411135    0.484106    11.00000    0.02779
N1    5    0.277814    0.590204    0.468098    11.00000    0.01212    0.02530 =
         0.02139    0.00486   -0.00241   -0.00400
N2    5    0.149939    0.603079    0.436494    11.00000    0.01342    0.03035 =
         0.02008    0.00643    0.00020    0.00156
N3    5    0.284539    0.701474    0.418824    11.00000    0.02066    0.02516 =
         0.02680    0.00846    0.00475   -0.00192
N4    5    0.579908    0.932734    0.056598    11.00000    0.01089    0.03311 =
         0.02329    0.00540    0.00724    0.00133
N5    5    0.455746    0.960085    0.077769    11.00000    0.01077    0.02496 =
         0.02067    0.00136    0.00287    0.00071
N6    5    0.577587    0.912502    0.159215    11.00000    0.01626    0.03883 =
         0.02121    0.01392   -0.00010   -0.00135
C1    1    0.355901    0.650491    0.456925    11.00000    0.02014    0.02663 =
         0.02373    0.00551    0.00324   -0.00348
AFIX  43
H1    2    0.447525    0.656889    0.473119    11.00000   -1.20000
AFIX   0
C2    1    0.156641    0.670819    0.408058    11.00000    0.01994    0.02603 =
         0.03107    0.01103   -0.00086   -0.00230
AFIX  43
H2    2    0.083457    0.694340    0.383892    11.00000   -1.20000
AFIX   0
C3    1    0.332123    0.775050    0.392513    11.00000    0.02921    0.02602 =
         0.03350    0.00736    0.00760   -0.00647
AFIX  23
H3A   2    0.405951    0.796101    0.421459    11.00000   -1.20000
H3B   2    0.255944    0.811957    0.390329    11.00000   -1.20000
AFIX   0
C4    1    0.384708    0.766496    0.326285    11.00000    0.01943    0.03094 =
         0.02581    0.01265    0.00048    0.00059
C5    1    0.351813    0.704434    0.285686    11.00000    0.03267    0.03000 =
         0.03926    0.00557    0.00588   -0.00598
AFIX  43
H5A   2    0.294717    0.664922    0.298959    11.00000   -1.20000
AFIX   0
C6    1    0.402910    0.700608    0.225695    11.00000    0.04473    0.04312 =
         0.03597   -0.00268   -0.00087   -0.00558
AFIX  43
H6    2    0.379977    0.658781    0.198733    11.00000   -1.20000
AFIX   0
C7    1    0.488500    0.759261    0.205724    11.00000    0.02842    0.05048 =
         0.03244    0.01214    0.00297    0.00198
AFIX  43
H7    2    0.523537    0.756438    0.165479    11.00000   -1.20000
AFIX   0
C8    1    0.521905    0.821892    0.245423    11.00000    0.02311    0.04065 =
         0.02424    0.01599    0.00097    0.00418
C9    1    0.468613    0.826270    0.305437    11.00000    0.02208    0.02994 =
         0.02568    0.01420   -0.00375    0.00092
AFIX  43
H9    2    0.488851    0.869045    0.331735    11.00000   -1.20000
AFIX   0
C10   1    0.618720    0.885723    0.226378    11.00000    0.02384    0.05942 =
         0.02179    0.02195   -0.00245   -0.00668
AFIX  23
H10A  2    0.614664    0.929121    0.255858    11.00000   -1.20000
H10B  2    0.713385    0.866460    0.228789    11.00000   -1.20000
AFIX   0
C11   1    0.649213    0.905254    0.106952    11.00000    0.01383    0.04019 =
         0.02720    0.01110    0.00477    0.00436
AFIX  43
H11   2    0.737255    0.883328    0.106899    11.00000   -1.20000
AFIX   0
C12   1    0.457700    0.946936    0.139276    11.00000    0.01770    0.04537 =
         0.02090    0.00689    0.00394    0.00190
AFIX  43
H12   2    0.386832    0.959513    0.165292    11.00000   -1.20000
AFIX   0
C13   1    0.226234    0.376705    0.617840    11.00000    0.01808    0.02822 =
         0.02915    0.00706    0.00007   -0.00140
C14   1    0.276673    0.306798    0.656558    11.00000    0.02796    0.05575 =
         0.06978    0.04615    0.01597    0.00963
AFIX  23
H14A  2    0.356517    0.322266    0.684583    11.00000   -1.20000
H14B  2    0.307866    0.267831    0.627269    11.00000   -1.20000
AFIX   0
C15   1    0.171287    0.269774    0.697114    11.00000    0.02005    0.05188 =
         0.06071    0.03958    0.00919    0.01037
C16   1    0.154923    0.297635    0.758801    11.00000    0.04006    0.05096 =
         0.07345    0.02982    0.00793    0.00036
AFIX  43
H16   2    0.207516    0.339557    0.774863    11.00000   -1.20000
AFIX   0
C17   1    0.059817    0.262452    0.795988    11.00000    0.04911    0.05470 =
         0.05860    0.02473    0.01915    0.01438
AFIX  43
H17   2    0.051709    0.280777    0.837449    11.00000   -1.20000
AFIX   0
C18   1   -0.020832    0.203267    0.774819    11.00000    0.02340    0.05606 =
         0.04933    0.03521    0.00572    0.01224
C19   1   -0.004818    0.175495    0.714313    11.00000    0.02818    0.06005 =
         0.08104    0.04156   -0.01482   -0.00551
AFIX  43
H19   2   -0.058979    0.133849    0.698914    11.00000   -1.20000
AFIX   0
C20   1    0.091256    0.208377    0.675101    11.00000    0.03886    0.06504 =
         0.04558    0.03289   -0.00029    0.00902
AFIX  43
H20   2    0.100587    0.188514    0.634217    11.00000   -1.20000
AFIX   0
C21   1   -0.120454    0.164263    0.817105    11.00000    0.03324    0.06482 =
         0.07993    0.04694    0.02009    0.01765
AFIX  23
H21A  2   -0.203344    0.148967    0.791076    11.00000   -1.20000
H21B  2   -0.147793    0.201174    0.848961    11.00000   -1.20000
AFIX   0
C22   1   -0.057396    0.092882    0.851093    11.00000    0.02189    0.03425 =
         0.03669    0.01525   -0.00216   -0.00539
 
BR1   3    0.404262    0.197100    0.466689    11.00000    0.21441    0.12048 =
         0.13973   -0.02381   -0.05159    0.02980
HKLF 4
 
REM  g160611d_a.res in P2(1)/c
REM R1 =  0.0660 for    4864 Fo > 4sig(Fo)  and  0.0815 for all    6095 data
REM    329 parameters refined using      1 restraints
 
END  
     
WGHT      0.1149     19.4075 

REM Instructions for potential hydrogen bonds
HTAB C1 N4_$1
HTAB C1 Br1_$2
HTAB C3 Br1_$2
HTAB C11 O3_$2

REM Highest difference peak  1.295,  deepest hole -2.933,  1-sigma level  0.148
Q1    1   0.5417  0.1671  0.4418  11.00000  0.05    1.30
Q2    1   0.3164  0.1725  0.5238  11.00000  0.05    1.24
Q3    1   0.3035  0.7030  0.4611  11.00000  0.05    0.46
Q4    1   0.3391  0.2662  0.4699  11.00000  0.05    0.46
Q5    1  -0.1432  0.1275  0.7803  11.00000  0.05    0.46
Q6    1   0.1310  0.2787  0.7300  11.00000  0.05    0.43
Q7    1   0.2159  0.5992  0.4612  11.00000  0.05    0.43
Q8    1   0.3803  0.7624  0.3610  11.00000  0.05    0.43
Q9    1   0.5184  0.6974  0.1563  11.00000  0.05    0.42
Q10   1   0.2747  0.2021  0.4351  11.00000  0.05    0.41
Q11   1   0.4140  0.7970  0.3168  11.00000  0.05    0.40
Q12   1  -0.0045  0.1613  0.7025  11.00000  0.05    0.39
Q13   1   0.0460  0.2803  0.8135  11.00000  0.05    0.38
Q14   1  -0.0267  0.1761  0.7527  11.00000  0.05    0.38
Q15   1  -0.0617  0.2186  0.7790  11.00000  0.05    0.37
Q16   1   0.6062  1.0380  0.1132  11.00000  0.05    0.37
Q17   1   0.6097  0.8962  0.1920  11.00000  0.05    0.37
Q18   1   0.4517  0.1196  0.4597  11.00000  0.05    0.37
Q19   1   0.4152  0.6962  0.4643  11.00000  0.05    0.36
Q20   1   0.5520  0.9452  0.0586  11.00000  0.05    0.36
Q21   1   0.6790  0.9356  0.2555  11.00000  0.05    0.36
Q22   1  -0.1592  0.1115  0.9017  11.00000  0.05    0.35
Q23   1   0.5173  0.7343  0.4543  11.00000  0.05    0.34
Q24   1  -0.0743  0.1195  0.8404  11.00000  0.05    0.34
Q25   1  -0.0275  0.2377  0.7736  11.00000  0.05    0.34
Q26   1   0.0234 -0.0608  0.7588  11.00000  0.05    0.34
Q27   1   0.2867  0.2440  0.4789  11.00000  0.05    0.34
Q28   1   0.1174  0.1969  0.6589  11.00000  0.05    0.34
Q29   1   0.3412  0.6144  0.4583  11.00000  0.05    0.33
Q30   1   0.1124  0.3371  0.7830  11.00000  0.05    0.33
Q31   1   0.4802  0.2099  0.5281  11.00000  0.05    0.33
Q32   1   0.6781  0.8956  0.1044  11.00000  0.05    0.32
Q33   1   0.4954  0.8206  0.2825  11.00000  0.05    0.32
Q34   1   0.4224  0.7784  0.4605  11.00000  0.05    0.32
Q35   1   0.1447  0.2766  0.7778  11.00000  0.05    0.31
Q36   1   0.4804  0.6971  0.3480  11.00000  0.05    0.31
Q37   1   0.5156  0.8826  0.3611  11.00000  0.05    0.31
Q38   1   0.1402  0.6367  0.4180  11.00000  0.05    0.31
Q39   1   0.4042  0.9409  0.0609  11.00000  0.05    0.30
Q40   1   0.6248  0.9158  0.1411  11.00000  0.05    0.30
Q41   1   0.1607  0.4030  0.6251  11.00000  0.05    0.30
Q42   1   0.1172  0.8231  0.5168  11.00000  0.05    0.30
Q43   1   0.4007  0.6181  0.2624  11.00000  0.05    0.30
Q44   1   0.7195  0.8218  0.2021  11.00000  0.05    0.30
Q45   1   0.5349  0.7149  0.1078  11.00000  0.05    0.29
Q46   1   0.3398  0.7601  0.3219  11.00000  0.05    0.29
Q47   1   0.4102  0.7211  0.3166  11.00000  0.05    0.29
Q48   1   0.4410  0.9205  0.1021  11.00000  0.05    0.29
Q49   1   0.3274  0.3162  0.4817  11.00000  0.05    0.29
Q50   1   0.2132  0.2803  0.6788  11.00000  0.05    0.29

  REM The information below was added by Olex2.
  REM
  REM R1 = 0.0660 for 4864 Fo > 4sig(Fo) and 0.0815 for all 26545 data
  REM n/a parameters refined using n/a restraints
  REM Highest difference peak 1.30, deepest hole -2.93
  REM Mean Shift 0, Max Shift 0.001.
  
  REM +++ Tabular Listing of Refinement Information +++
  REM R1_all = 0.0815
  REM R1_gt = 0.0660
  REM wR_ref = 0.2118
  REM GOOF = 1.061
  REM Shift_max = 0.001
  REM Shift_mean = 0
  REM Reflections_all = 26545
  REM Reflections_gt = 4864
  REM Parameters = n/a
  REM Hole = -2.93
  REM Peak = 1.30
  REM Flack = n/a
  
  
;
_cod_data_source_file            c6cc09676j2.cif
_cod_data_source_block           1
_cod_depositor_comments
'Adding full bibliography for 7119434--7119435.cif.'
_cod_original_cell_volume        3457.31(16)
_cod_database_code               7119435
_chemical_oxdiff_formula         'C H O N'
_shelx_space_group_comment
;
The symmetry employed for this shelxl refinement is uniquely defined
by the following loop, which should always be used as a source of
symmetry information in preference to the above space-group names.
They are only intended as comments.
;
_reflns_odcompleteness_completeness 99.81
_reflns_odcompleteness_iscentric 1
_reflns_odcompleteness_theta     27.42
_olex2_refinement_description
;
1. Fixed Uiso
 At 1.2 times of:
  All C(H) groups, All C(H,H) groups
2. Restrained distances
 H5-O5
 0.85 with sigma of 0.02
3.a Secondary CH2 refined with riding coordinates:
 C3(H3A,H3B), C10(H10A,H10B), C14(H14A,H14B), C21(H21A,H21B)
3.b Aromatic/amide H refined with riding coordinates:
 C1(H1), C2(H2), C5(H5A), C6(H6), C7(H7), C9(H9), C11(H11), C12(H12), C16(H16),
  C17(H17), C19(H19), C20(H20)
;
_shelx_fab_checksum              45924
_shelx_fab_file
;
    0    0    4     44.27      0.00
    0    0    6    -61.50      0.00
    0    0    8     29.76      0.00
    0    0   10    -43.87      0.00
    0    0   12    -14.20      0.00
    0    0   14    -14.53      0.00
    0    0   16      7.16      0.00
    0    0   18     -6.70      0.00
    0    0   20     -1.66      0.00
    0    0   22     -1.61      0.00
    0    0   24      3.00      0.00
    0    0   26     -5.27      0.00
    0    1    3     16.44      0.00
    0    1    4     38.59      0.00
    0    1    5     44.63      0.00
    0    1    6     26.82      0.00
    0    1    7      7.18      0.00
    0    1    8     30.51      0.00
    0    1    9     -3.64      0.00
    0    1   10     19.75      0.00
    0    1   11     19.30      0.00
    0    1   12      7.57      0.00
    0    1   13      8.53      0.00
    0    1   14     -0.22      0.00
    0    1   15     -5.32      0.00
    0    1   16      2.04      0.00
    0    1   17     -3.93      0.00
    0    1   18     -0.93      0.00
    0    1   19      3.29      0.00
    0    1   20     -1.72      0.00
    0    1   21      0.34      0.00
    0    1   22      0.24      0.00
    0    1   23     -0.43      0.00
    0    1   24      1.19      0.00
    0    1   25      1.85      0.00
    0    1   26      0.64      0.00
    0    1   27      3.09      0.00
    0    2    2    -69.67      0.00
    0    2    3     12.16      0.00
    0    2    4    -39.09      0.00
    0    2    5     13.09      0.00
    0    2    6    -63.23      0.00
    0    2    7     21.39      0.00
    0    2    8     42.55      0.00
    0    2    9    -15.87      0.00
    0    2   10    -13.79      0.00
    0    2   11      0.03      0.00
    0    2   12      5.28      0.00
    0    2   13      3.09      0.00
    0    2   14     -4.31      0.00
    0    2   15      2.55      0.00
    0    2   16     12.91      0.00
    0    2   17     -2.74      0.00
    0    2   18     -0.41      0.00
    0    2   19      1.29      0.00
    0    2   20      1.50      0.00
    0    2   21     -1.14      0.00
    0    2   22     -0.54      0.00
    0    2   23     -0.58      0.00
    0    2   24      2.05      0.00
    0    2   25     -3.11      0.00
    0    2   26     -4.93      0.00
    0    3    1    -50.97      0.00
    0    3    2      3.20      0.00
    0    3    3     48.96      0.00
    0    3    4    -52.66      0.00
    0    3    5     31.71      0.00
    0    3    6    -56.62      0.00
    0    3    7     -3.27      0.00
    0    3    8     -7.73      0.00
    0    3    9    -19.34      0.00
    0    3   10      5.81      0.00
    0    3   11      7.26      0.00
    0    3   12      0.17      0.00
    0    3   13      4.02      0.00
    0    3   14     -5.56      0.00
    0    3   15      0.43      0.00
    0    3   16      2.85      0.00
    0    3   17     -3.44      0.00
    0    3   18      1.28      0.00
    0    3   19      1.62      0.00
    0    3   20      0.32      0.00
    0    3   21     -0.07      0.00
    0    3   22      2.15      0.00
    0    3   23     -1.56      0.00
    0    3   24      3.44      0.00
    0    3   25      0.78      0.00
    0    3   26      1.89      0.00
    0    4    0     76.51      0.00
    0    4    1    -42.49      0.00
    0    4    2    -28.94      0.00
    0    4    3     31.42      0.00
    0    4    4    -13.27      0.00
    0    4    5     28.04      0.00
    0    4    6    -29.62      0.00
    0    4    7     29.42      0.00
    0    4    8     29.29      0.00
    0    4    9    -27.95      0.00
    0    4   10     -4.12      0.00
    0    4   11    -10.28      0.00
    0    4   12      3.85      0.00
    0    4   13     -6.53      0.00
    0    4   14     -6.23      0.00
    0    4   15      0.81      0.00
    0    4   16      5.93      0.00
    0    4   17     -5.45      0.00
    0    4   18     -2.14      0.00
    0    4   19      0.61      0.00
    0    4   20     -1.07      0.00
    0    4   21     -2.37      0.00
    0    4   22     -2.22      0.00
    0    4   23     -1.23      0.00
    0    4   24     -0.15      0.00
    0    4   25     -4.53      0.00
    0    4   26     -2.49      0.00
    0    5    1     -3.56      0.00
    0    5    2     17.25      0.00
    0    5    3     34.54      0.00
    0    5    4    -27.59      0.00
    0    5    5     18.69      0.00
    0    5    6    -41.46      0.00
    0    5    7      5.67      0.00
    0    5    8     -3.25      0.00
    0    5    9    -14.56      0.00
    0    5   10     12.93      0.00
    0    5   11      3.88      0.00
    0    5   12      2.02      0.00
    0    5   13     -1.77      0.00
    0    5   14     -3.85      0.00
    0    5   15      0.94      0.00
    0    5   16      0.99      0.00
    0    5   17     -3.76      0.00
    0    5   18      2.51      0.00
    0    5   19      1.18      0.00
    0    5   20      1.10      0.00
    0    5   21      1.41      0.00
    0    5   22      0.41      0.00
    0    5   23      0.51      0.00
    0    5   24      1.41      0.00
    0    5   25      1.30      0.00
    0    5   26     -1.29      0.00
    0    6    0     34.05      0.00
    0    6    1    -32.03      0.00
    0    6    2      5.05      0.00
    0    6    3      5.68      0.00
    0    6    4      8.19      0.00
    0    6    5     23.05      0.00
    0    6    6     -2.80      0.00
    0    6    7     31.65      0.00
    0    6    8     10.36      0.00
    0    6    9    -11.03      0.00
    0    6   10     -3.56      0.00
    0    6   11      3.92      0.00
    0    6   12     -4.87      0.00
    0    6   13      5.99      0.00
    0    6   14     -9.18      0.00
    0    6   15      9.81      0.00
    0    6   16     -2.94      0.00
    0    6   17     -2.22      0.00
    0    6   18     -1.95      0.00
    0    6   19      1.38      0.00
    0    6   20      0.54      0.00
    0    6   21     -0.83      0.00
    0    6   22      0.11      0.00
    0    6   23      1.87      0.00
    0    6   24      1.39      0.00
    0    6   25     -0.36      0.00
    0    6   26     -0.87      0.00
    0    6   27      2.27      0.00
    0    7    1    -14.98      0.00
    0    7    2     33.87      0.00
    0    7    3     -7.41      0.00
    0    7    4      9.52      0.00
    0    7    5    -15.59      0.00
    0    7    6     -2.73      0.00
    0    7    7     -1.56      0.00
    0    7    8     12.87      0.00
    0    7    9    -10.10      0.00
    0    7   10     21.01      0.00
    0    7   11      4.12      0.00
    0    7   12      1.80      0.00
    0    7   13      2.60      0.00
    0    7   14     -2.17      0.00
    0    7   15      8.19      0.00
    0    7   16     -2.41      0.00
    0    7   17      0.55      0.00
    0    7   18      0.75      0.00
    0    7   19     -0.02      0.00
    0    7   20     -0.77      0.00
    0    7   21     -0.20      0.00
    0    7   22     -2.02      0.00
    0    7   23      1.07      0.00
    0    7   24      0.55      0.00
    0    7   25     -0.70      0.00
    0    7   26     -0.08      0.00
    0    7   27      1.94      0.00
    0    8    0    -30.29      0.00
    0    8    1    -19.81      0.00
    0    8    2    -26.81      0.00
    0    8    3    -14.89      0.00
    0    8    4    -10.49      0.00
    0    8    5      0.36      0.00
    0    8    6     -4.61      0.00
    0    8    7     -0.26      0.00
    0    8    8      0.87      0.00
    0    8    9    -19.09      0.00
    0    8   10      7.48      0.00
    0    8   11    -10.01      0.00
    0    8   12      4.20      0.00
    0    8   13     -4.67      0.00
    0    8   14      2.57      0.00
    0    8   15      0.53      0.00
    0    8   16      2.16      0.00
    0    8   17     -3.83      0.00
    0    8   18      4.62      0.00
    0    8   19     -0.89      0.00
    0    8   20      1.94      0.00
    0    8   21     -2.09      0.00
    0    8   22     -2.10      0.00
    0    8   23      1.41      0.00
    0    8   24     -1.63      0.00
    0    8   25     -0.96      0.00
    0    8   26     -0.02      0.00
    0    8   27      0.53      0.00
    0    9    1     23.31      0.00
    0    9    2      7.35      0.00
    0    9    3     15.29      0.00
    0    9    4    -16.25      0.00
    0    9    5      2.72      0.00
    0    9    6    -17.78      0.00
    0    9    7      8.03      0.00
    0    9    8    -11.62      0.00
    0    9    9     -3.89      0.00
    0    9   10      2.59      0.00
    0    9   11     -1.39      0.00
    0    9   12     -4.43      0.00
    0    9   13     -3.52      0.00
    0    9   14      0.40      0.00
    0    9   15     -0.20      0.00
    0    9   16     -0.77      0.00
    0    9   17     -3.76      0.00
    0    9   18      4.02      0.00
    0    9   19     -2.25      0.00
    0    9   20      3.52      0.00
    0    9   21     -0.87      0.00
    0    9   22      0.81      0.00
    0    9   23      2.62      0.00
    0    9   24     -0.49      0.00
    0    9   25     -1.14      0.00
    0    9   26     -0.53      0.00
    0    9   27      0.01      0.00
    0   10    0      3.81      0.00
    0   10    1     -4.07      0.00
    0   10    2      5.73      0.00
    0   10    3      0.69      0.00
    0   10    4     10.45      0.00
    0   10    5     14.10      0.00
    0   10    6      4.45      0.00
    0   10    7      8.64      0.00
    0   10    8     -0.36      0.00
    0   10    9      3.91      0.00
    0   10   10      2.03      0.00
    0   10   11      0.21      0.00
    0   10   12     -1.90      0.00
    0   10   13      2.19      0.00
    0   10   14     -2.08      0.00
    0   10   15      1.52      0.00
    0   10   16     -2.45      0.00
    0   10   17     -0.71      0.00
    0   10   18      0.54      0.00
    0   10   19     -1.44      0.00
    0   10   20      0.43      0.00
    0   10   21     -1.76      0.00
    0   10   22     -0.53      0.00
    0   10   23      0.94      0.00
    0   10   24     -0.39      0.00
    0   10   25      0.14      0.00
    0   10   26      0.79      0.00
    0   11    1      0.35      0.00
    0   11    2      7.30      0.00
    0   11    3     -5.87      0.00
    0   11    4     -1.91      0.00
    0   11    5     -6.59      0.00
    0   11    6      2.55      0.00
    0   11    7     -1.38      0.00
    0   11    8     -1.21      0.00
    0   11    9     -2.64      0.00
    0   11   10      5.66      0.00
    0   11   11     -1.76      0.00
    0   11   12     -0.41      0.00
    0   11   13      0.08      0.00
    0   11   14      0.99      0.00
    0   11   15      1.53      0.00
    0   11   16     -2.71      0.00
    0   11   17     -0.05      0.00
    0   11   18      0.03      0.00
    0   11   19     -1.05      0.00
    0   11   20     -0.22      0.00
    0   11   21     -1.14      0.00
    0   11   22      0.24      0.00
    0   11   23      0.82      0.00
    0   11   24     -0.28      0.00
    0   11   25     -1.00      0.00
    0   12    0     -5.10      0.00
    0   12    1     -1.22      0.00
    0   12    2     -3.80      0.00
    0   12    3     -2.03      0.00
    0   12    4      3.91      0.00
    0   12    5      3.13      0.00
    0   12    6      0.32      0.00
    0   12    7     -1.08      0.00
    0   12    8      1.69      0.00
    0   12    9      4.30      0.00
    0   12   10      2.27      0.00
    0   12   11     -1.14      0.00
    0   12   12      1.69      0.00
    0   12   13      2.04      0.00
    0   12   14     -0.70      0.00
    0   12   15      1.52      0.00
    0   12   16     -1.34      0.00
    0   12   17      2.31      0.00
    0   12   18     -0.14      0.00
    0   12   19     -0.25      0.00
    0   12   20      0.69      0.00
    0   12   21     -0.85      0.00
    0   12   22     -1.39      0.00
    0   12   23     -0.33      0.00
    0   12   24      0.76      0.00
    0   13    1     -1.71      0.00
    0   13    2      3.02      0.00
    0   13    3     -6.27      0.00
    0   13    4      1.03      0.00
    0   13    5     -3.87      0.00
    0   13    6      2.78      0.00
    0   13    7     -3.48      0.00
    0   13    8     -1.55      0.00
    0   13    9     -0.45      0.00
    0   13   10      0.64      0.00
    0   13   11     -1.96      0.00
    0   13   12      0.75      0.00
    0   13   13      1.26      0.00
    0   13   14      1.47      0.00
    0   13   15      1.71      0.00
    0   13   16     -1.07      0.00
    0   13   17      3.30      0.00
    0   13   18      0.61      0.00
    0   13   19      1.05      0.00
    0   13   20      2.05      0.00
    0   13   21      2.81      0.00
    0   13   22      1.11      0.00
    0   13   23      1.50      0.00
    0   14    0     -3.98      0.00
    0   14    1     -2.52      0.00
    0   14    2     -3.83      0.00
    0   14    3     -4.84      0.00
    0   14    4      2.51      0.00
    0   14    5     -3.49      0.00
    0   14    6     -1.03      0.00
    0   14    7     -5.91      0.00
    0   14    8      2.54      0.00
    0   14    9     -1.03      0.00
    0   14   10      0.38      0.00
    0   14   11     -6.09      0.00
    0   14   12      3.34      0.00
    0   14   13     -2.89      0.00
    0   14   14      1.44      0.00
    0   14   15     -3.51      0.00
    0   14   16      0.54      0.00
    0   14   17      0.18      0.00
    0   14   18     -0.87      0.00
    0   14   19     -1.83      0.00
    0   14   20      1.39      0.00
    0   14   21     -2.43      0.00
    0   14   22     -1.59      0.00
    0   14   23      2.52      0.00
    0   15    1     10.71      0.00
    0   15    2     -0.38      0.00
    0   15    3      5.25      0.00
    0   15    4     -1.70      0.00
    0   15    5      4.10      0.00
    0   15    6     -3.42      0.00
    0   15    7      1.48      0.00
    0   15    8     -1.90      0.00
    0   15    9      1.38      0.00
    0   15   10     -1.47      0.00
    0   15   11     -2.82      0.00
    0   15   12      1.03      0.00
    0   15   13     -2.02      0.00
    0   15   14      1.76      0.00
    0   15   15     -3.15      0.00
    0   15   16      0.53      0.00
    0   15   17     -0.33      0.00
    0   15   18     -1.78      0.00
    0   15   19     -3.47      0.00
    0   15   20      1.54      0.00
    0   15   21     -2.43      0.00
    0   15   22     -0.40      0.00
    0   15   23     -2.76      0.00
    0   16    0      0.35      0.00
    0   16    1      0.52      0.00
    0   16    2      2.06      0.00
    0   16    3      3.29      0.00
    0   16    4      2.87      0.00
    0   16    5      5.43      0.00
    0   16    6     -2.36      0.00
    0   16    7      4.46      0.00
    0   16    8     -0.77      0.00
    0   16    9      5.46      0.00
    0   16   10     -3.75      0.00
    0   16   11      1.80      0.00
    0   16   12     -0.61      0.00
    0   16   13      2.95      0.00
    0   16   14     -2.90      0.00
    0   16   15     -0.62      0.00
    0   16   16     -0.37      0.00
    0   16   17      2.86      0.00
    0   16   18     -1.47      0.00
    0   16   19      1.94      0.00
    0   16   20      1.65      0.00
    0   16   21     -2.57      0.00
    0   16   22      1.79      0.00
    0   17    1     -5.71      0.00
    0   17    2      0.83      0.00
    0   17    3     -5.52      0.00
    0   17    4      2.02      0.00
    0   17    5     -2.64      0.00
    0   17    6      1.00      0.00
    0   17    7      0.36      0.00
    0   17    8      1.71      0.00
    0   17    9      1.44      0.00
    0   17   10      0.13      0.00
    0   17   11      1.09      0.00
    0   17   12     -0.63      0.00
    0   17   13      3.29      0.00
    0   17   14     -1.53      0.00
    0   17   15      1.84      0.00
    0   17   16     -1.11      0.00
    0   17   17      2.28      0.00
    0   17   18     -2.41      0.00
    0   17   19      1.74      0.00
    0   18    0     -2.56      0.00
    0   18    1      0.54      0.00
    0   18    2      0.36      0.00
    0   18    3     -1.38      0.00
    0   18    4     -0.36      0.00
    0   18    5     -1.51      0.00
    0   18    6     -0.30      0.00
    0   18    7     -1.69      0.00
    0   18    8      1.10      0.00
    0   18    9     -1.66      0.00
    0   18   10     -0.22      0.00
    0   18   11     -1.95      0.00
    0   18   12      2.45      0.00
    0   18   13      0.56      0.00
    0   18   14     -1.10      0.00
    0   18   15      0.06      0.00
    0   18   16      1.15      0.00
    0   18   17      0.80      0.00
    0   19    1     -0.52      0.00
    0   19    2     -1.49      0.00
    0   19    3     -0.77      0.00
    0   19    4     -1.70      0.00
    0   19    5     -0.96      0.00
    0   19    6     -0.71      0.00
    0   19    7     -0.12      0.00
    0   19    8     -0.85      0.00
    0   19    9      1.16      0.00
    0   19   10      0.48      0.00
    0   19   11     -0.01      0.00
    0   19   12      0.60      0.00
    0   19   13     -0.38      0.00
    0   19   14      0.75      0.00
    0   19   15     -0.63      0.00
    0   20    0      1.74      0.00
    0   20    1      1.77      0.00
    0   20    2      3.15      0.00
    0   20    3     -0.64      0.00
    0   20    4      1.06      0.00
    0   20    5     -0.81      0.00
    0   20    6      1.81      0.00
    0   20    7     -1.83      0.00
    0   20    8     -0.70      0.00
    0   20    9     -1.24      0.00
    0   20   10     -1.91      0.00
    0   20   11     -0.48      0.00
    0   20   12      0.20      0.00
    0   21    1      1.20      0.00
    0   21    2     -0.64      0.00
    0   21    3      0.99      0.00
    0   21    4     -0.19      0.00
    0   21    5      1.10      0.00
    0   21    6      1.36      0.00
    0   21    7     -0.42      0.00
    0   21    8      0.81      0.00
    0   21    9      0.34      0.00
    0   21   10      0.71      0.00
    0   22    0      0.49      0.00
    0   22    1      1.59      0.00
    0   22    2      0.85      0.00
    0   22    3      0.78      0.00
    0   22    4     -0.79      0.00
    0   22    5      2.23      0.00
    0   22    6      0.23      0.00
    0   22    7      1.13      0.00
    0   22    8     -1.15      0.00
    0   22    9      1.82      0.00
    0   23    1     -2.77      0.00
    0   23    2     -1.04      0.00
    0   23    3     -2.65      0.00
    0   23    4     -0.44      0.00
    0   23    5     -1.45      0.00
    0   23    6     -0.86      0.00
    0   23    7     -0.55      0.00
    0   23    8     -0.75      0.00
    0   24    3      1.91      0.00
   -1    0   26     -2.30      0.00
   -1    0   24      4.71      0.00
   -1    0   22     -2.19      0.00
   -1    0   20     -3.57      0.00
   -1    0   18     -6.86      0.00
   -1    0   16      0.14      0.00
   -1    0   14    -15.09      0.00
   -1    0   12    -11.72      0.00
   -1    0   10    -26.90      0.00
   -1    0    8      6.62      0.00
   -1    0    6     23.72      0.00
   -1    0    4     74.96      0.00
    1    0    2     36.21      0.00
    1    0    4     32.40      0.00
    1    0    6      9.10      0.00
    1    0    8     -4.07      0.00
    1    0   10     -0.02      0.00
    1    0   12      3.05      0.00
    1    0   14      0.86      0.00
    1    0   16     -3.82      0.00
    1    0   18     -3.86      0.00
    1    0   20     -0.14      0.00
    1    0   22     -0.12      0.00
    1    0   24     -1.22      0.00
    1    0   26     -2.34      0.00
   -1    1   27      1.23      0.00
   -1    1   26      4.58      0.00
   -1    1   25     -0.70      0.00
   -1    1   24      0.00      0.00
   -1    1   23     -3.04      0.00
   -1    1   22     -1.26      0.00
   -1    1   21      4.57      0.00
   -1    1   20     -1.25      0.00
   -1    1   19      1.53      0.00
   -1    1   18     -1.94      0.00
   -1    1   17      2.91      0.00
   -1    1   16     -0.86      0.00
   -1    1   15     -6.42      0.00
   -1    1   14     -0.81      0.00
   -1    1   13      7.66      0.00
   -1    1   12      9.40      0.00
   -1    1   11     -8.60      0.00
   -1    1   10     19.31      0.00
   -1    1    9      9.80      0.00
   -1    1    8     27.96      0.00
   -1    1    7    -34.92      0.00
   -1    1    6     33.72      0.00
   -1    1    5    -14.36      0.00
   -1    1    4     20.80      0.00
   -1    1    3    -33.38      0.00
   -1    1    2      9.65      0.00
    1    1    2     17.96      0.00
    1    1    3      9.10      0.00
    1    1    4     21.96      0.00
    1    1    5     -9.08      0.00
    1    1    6      6.81      0.00
    1    1    7     17.35      0.00
    1    1    8     12.43      0.00
    1    1    9      8.14      0.00
    1    1   10      4.13      0.00
    1    1   11      2.14      0.00
    1    1   12      9.36      0.00
    1    1   13     -3.28      0.00
    1    1   14      4.74      0.00
    1    1   15      0.23      0.00
    1    1   16      3.84      0.00
    1    1   17      0.90      0.00
    1    1   18     -0.31      0.00
    1    1   19      1.30      0.00
    1    1   20     -0.74      0.00
    1    1   21     -3.13      0.00
    1    1   22     -0.45      0.00
    1    1   23      1.83      0.00
    1    1   24     -0.82      0.00
    1    1   25      1.58      0.00
    1    1   26     -1.02      0.00
   -1    2   27     -3.62      0.00
   -1    2   26     -1.98      0.00
   -1    2   25     -3.08      0.00
   -1    2   24      2.84      0.00
   -1    2   23      3.62      0.00
   -1    2   22      0.26      0.00
   -1    2   21      0.04      0.00
   -1    2   20      0.07      0.00
   -1    2   19      0.62      0.00
   -1    2   18     -0.11      0.00
   -1    2   17     -4.33      0.00
   -1    2   16      9.79      0.00
   -1    2   15      0.39      0.00
   -1    2   14      4.96      0.00
   -1    2   13     -8.44      0.00
   -1    2   12     14.14      0.00
   -1    2   11     -5.15      0.00
   -1    2   10      1.76      0.00
   -1    2    9    -11.81      0.00
   -1    2    8     11.90      0.00
   -1    2    7     11.77      0.00
   -1    2    6     -9.89      0.00
   -1    2    5     10.18      0.00
   -1    2    4    -17.45      0.00
   -1    2    3     42.81      0.00
   -1    2    2    -67.80      0.00
   -1    2    1     22.16      0.00
    1    2    0    -41.96      0.00
    1    2    1    -46.21      0.00
    1    2    2    -17.73      0.00
    1    2    3     -9.28      0.00
    1    2    4      2.91      0.00
    1    2    5    -12.60      0.00
    1    2    6     -0.89      0.00
    1    2    7      9.23      0.00
    1    2    8    -13.27      0.00
    1    2    9      5.87      0.00
    1    2   10     -5.41      0.00
    1    2   11      9.07      0.00
    1    2   12      1.29      0.00
    1    2   13      0.10      0.00
    1    2   14      2.18      0.00
    1    2   15      0.16      0.00
    1    2   16      0.76      0.00
    1    2   17      0.16      0.00
    1    2   18      0.74      0.00
    1    2   19      2.53      0.00
    1    2   20      2.10      0.00
    1    2   21      0.39      0.00
    1    2   22      1.50      0.00
    1    2   23      1.63      0.00
    1    2   24     -2.05      0.00
    1    2   25     -0.89      0.00
    1    2   26     -0.99      0.00
   -1    3   26      5.19      0.00
   -1    3   25      3.11      0.00
   -1    3   24     -1.15      0.00
   -1    3   23     -3.72      0.00
   -1    3   22     -0.69      0.00
   -1    3   21      0.68      0.00
   -1    3   20      1.79      0.00
   -1    3   19     -2.92      0.00
   -1    3   18      1.73      0.00
   -1    3   17     -1.28      0.00
   -1    3   16      2.79      0.00
   -1    3   15     -5.86      0.00
   -1    3   14     -1.23      0.00
   -1    3   13      7.04      0.00
   -1    3   12     -0.92      0.00
   -1    3   11      2.40      0.00
   -1    3   10     -3.12      0.00
   -1    3    9     29.30      0.00
   -1    3    8    -16.61      0.00
   -1    3    7     12.30      0.00
   -1    3    6    -21.85      0.00
   -1    3    5     47.62      0.00
   -1    3    4    -33.79      0.00
   -1    3    3     20.96      0.00
   -1    3    2     -0.75      0.00
   -1    3    1     58.05      0.00
    1    3    0      4.02      0.00
    1    3    1    -23.42      0.00
    1    3    2    -21.66      0.00
    1    3    3    -18.68      0.00
    1    3    4      4.01      0.00
    1    3    5    -51.45      0.00
    1    3    6    -14.90      0.00
    1    3    7     -9.44      0.00
    1    3    8      0.79      0.00
    1    3    9    -10.38      0.00
    1    3   10    -15.81      0.00
    1    3   11     -1.16      0.00
    1    3   12      1.34      0.00
    1    3   13     -6.74      0.00
    1    3   14     -1.89      0.00
    1    3   15      1.56      0.00
    1    3   16      3.16      0.00
    1    3   17     -0.74      0.00
    1    3   18     -1.71      0.00
    1    3   19      1.95      0.00
    1    3   20     -2.59      0.00
    1    3   21     -2.33      0.00
    1    3   22     -0.30      0.00
    1    3   23      2.69      0.00
    1    3   24     -0.11      0.00
    1    3   25      0.95      0.00
    1    3   26      0.25      0.00
   -1    4   26     -2.97      0.00
   -1    4   25     -2.37      0.00
   -1    4   24     -2.11      0.00
   -1    4   23      1.24      0.00
   -1    4   22     -0.08      0.00
   -1    4   21     -2.53      0.00
   -1    4   20     -1.22      0.00
   -1    4   19      1.48      0.00
   -1    4   18      0.15      0.00
   -1    4   17     -2.04      0.00
   -1    4   16      2.81      0.00
   -1    4   15      8.97      0.00
   -1    4   14     -2.44      0.00
   -1    4   13      1.63      0.00
   -1    4   12     -2.83      0.00
   -1    4   11      9.99      0.00
   -1    4   10    -10.10      0.00
   -1    4    9     -8.22      0.00
   -1    4    8    -12.20      0.00
   -1    4    7      6.87      0.00
   -1    4    6    -16.39      0.00
   -1    4    5    -24.95      0.00
   -1    4    4    -10.45      0.00
   -1    4    3    -17.57      0.00
   -1    4    2    -11.77      0.00
   -1    4    1    -67.05      0.00
    1    4    0    -14.87      0.00
    1    4    1     38.80      0.00
    1    4    2     17.25      0.00
    1    4    3     43.54      0.00
    1    4    4     14.46      0.00
    1    4    5     -0.72      0.00
    1    4    6     21.38      0.00
    1    4    7      3.96      0.00
    1    4    8     -1.63      0.00
    1    4    9     -9.02      0.00
    1    4   10      3.90      0.00
    1    4   11     -1.64      0.00
    1    4   12      5.19      0.00
    1    4   13    -11.71      0.00
    1    4   14      4.42      0.00
    1    4   15     -6.03      0.00
    1    4   16      0.43      0.00
    1    4   17     -4.65      0.00
    1    4   18     -0.04      0.00
    1    4   19      2.03      0.00
    1    4   20     -0.46      0.00
    1    4   21      0.46      0.00
    1    4   22      0.44      0.00
    1    4   23      0.07      0.00
    1    4   24     -4.30      0.00
    1    4   25     -1.12      0.00
    1    4   26      1.05      0.00
   -1    5   27     -0.23      0.00
   -1    5   26     -0.67      0.00
   -1    5   25      4.64      0.00
   -1    5   24     -0.39      0.00
   -1    5   23     -0.87      0.00
   -1    5   22      0.02      0.00
   -1    5   21      4.14      0.00
   -1    5   20      1.78      0.00
   -1    5   19      0.49      0.00
   -1    5   18     -0.27      0.00
   -1    5   17      0.29      0.00
   -1    5   16     -3.34      0.00
   -1    5   15     -4.35      0.00
   -1    5   14     -6.37      0.00
   -1    5   13     -0.48      0.00
   -1    5   12     -7.33      0.00
   -1    5   11    -15.09      0.00
   -1    5   10      0.37      0.00
   -1    5    9     -2.66      0.00
   -1    5    8     -5.93      0.00
   -1    5    7    -17.25      0.00
   -1    5    6      4.36      0.00
   -1    5    5      8.54      0.00
   -1    5    4      1.56      0.00
   -1    5    3    -25.06      0.00
   -1    5    2     23.99      0.00
   -1    5    1     30.96      0.00
    1    5    0    -15.74      0.00
    1    5    1     -4.83      0.00
    1    5    2    -30.71      0.00
    1    5    3     30.51      0.00
    1    5    4     -0.66      0.00
    1    5    5     -5.91      0.00
    1    5    6    -11.30      0.00
    1    5    7     26.81      0.00
    1    5    8      4.68      0.00
    1    5    9      6.82      0.00
    1    5   10    -10.26      0.00
    1    5   11     10.15      0.00
    1    5   12      3.37      0.00
    1    5   13     -6.88      0.00
    1    5   14      0.57      0.00
    1    5   15      2.58      0.00
    1    5   16      3.56      0.00
    1    5   17     -2.77      0.00
    1    5   18     -1.01      0.00
    1    5   19      1.32      0.00
    1    5   20     -2.94      0.00
    1    5   21     -2.57      0.00
    1    5   22      1.61      0.00
    1    5   23      0.58      0.00
    1    5   24      0.97      0.00
    1    5   25      0.63      0.00
    1    5   26     -0.22      0.00
   -1    6   27      1.13      0.00
   -1    6   26     -0.57      0.00
   -1    6   25     -0.77      0.00
   -1    6   24     -0.57      0.00
   -1    6   23     -0.28      0.00
   -1    6   22      0.36      0.00
   -1    6   21     -2.33      0.00
   -1    6   20     -2.61      0.00
   -1    6   19     -0.17      0.00
   -1    6   18     -0.74      0.00
   -1    6   17     -2.46      0.00
   -1    6   16     -2.63      0.00
   -1    6   15      7.78      0.00
   -1    6   14     -1.63      0.00
   -1    6   13      0.25      0.00
   -1    6   12     -0.99      0.00
   -1    6   11      7.84      0.00
   -1    6   10      6.49      0.00
   -1    6    9     -2.26      0.00
   -1    6    8     -0.66      0.00
   -1    6    7     18.88      0.00
   -1    6    6      7.29      0.00
   -1    6    5      3.95      0.00
   -1    6    4      7.73      0.00
   -1    6    3     23.21      0.00
   -1    6    2     24.32      0.00
   -1    6    1      8.43      0.00
    1    6    0     -0.97      0.00
    1    6    1    -19.32      0.00
    1    6    2     24.40      0.00
    1    6    3     -4.53      0.00
    1    6    4      3.77      0.00
    1    6    5    -15.83      0.00
    1    6    6     14.37      0.00
    1    6    7      2.69      0.00
    1    6    8    -12.92      0.00
    1    6    9      3.66      0.00
    1    6   10     -1.39      0.00
    1    6   11     14.24      0.00
    1    6   12     -4.75      0.00
    1    6   13      3.56      0.00
    1    6   14     -0.86      0.00
    1    6   15      5.07      0.00
    1    6   16     -5.21      0.00
    1    6   17      2.08      0.00
    1    6   18     -1.79      0.00
    1    6   19      6.21      0.00
    1    6   20     -1.76      0.00
    1    6   21      2.33      0.00
    1    6   22      3.09      0.00
    1    6   23     -1.45      0.00
    1    6   24      0.59      0.00
    1    6   25     -0.58      0.00
   -1    7   27     -0.64      0.00
   -1    7   26      2.26      0.00
   -1    7   25      0.70      0.00
   -1    7   24      2.94      0.00
   -1    7   23     -2.19      0.00
   -1    7   22      0.26      0.00
   -1    7   21      1.42      0.00
   -1    7   20      1.63      0.00
   -1    7   19     -0.76      0.00
   -1    7   18      1.20      0.00
   -1    7   17      2.72      0.00
   -1    7   16     -1.56      0.00
   -1    7   15      0.14      0.00
   -1    7   14      0.21      0.00
   -1    7   13      6.75      0.00
   -1    7   12      1.86      0.00
   -1    7   11     -4.41      0.00
   -1    7   10     11.17      0.00
   -1    7    9      9.80      0.00
   -1    7    8      7.07      0.00
   -1    7    7     -4.57      0.00
   -1    7    6     13.48      0.00
   -1    7    5     10.73      0.00
   -1    7    4      4.99      0.00
   -1    7    3    -24.73      0.00
   -1    7    2      2.93      0.00
   -1    7    1      9.67      0.00
    1    7    0      8.22      0.00
    1    7    1    -28.75      0.00
    1    7    2      3.90      0.00
    1    7    3     -3.80      0.00
    1    7    4     21.12      0.00
    1    7    5    -33.76      0.00
    1    7    6     15.21      0.00
    1    7    7     -0.07      0.00
    1    7    8     12.58      0.00
    1    7    9    -12.54      0.00
    1    7   10      0.64      0.00
    1    7   11      2.62      0.00
    1    7   12      3.05      0.00
    1    7   13     -5.73      0.00
    1    7   14      1.32      0.00
    1    7   15      6.05      0.00
    1    7   16     -1.02      0.00
    1    7   17      0.27      0.00
    1    7   18     -3.40      0.00
    1    7   19      4.56      0.00
    1    7   20     -5.56      0.00
    1    7   21      0.73      0.00
    1    7   22     -0.88      0.00
    1    7   23     -1.47      0.00
    1    7   24      1.51      0.00
    1    7   25     -2.09      0.00
    1    7   26     -1.01      0.00
    1    7   27     -1.94      0.00
   -1    8   27     -2.13      0.00
   -1    8   26      0.32      0.00
   -1    8   25     -2.36      0.00
   -1    8   24      0.30      0.00
   -1    8   23     -1.14      0.00
   -1    8   22      1.44      0.00
   -1    8   21     -0.86      0.00
   -1    8   20      0.65      0.00
   -1    8   19     -0.81      0.00
   -1    8   18      3.19      0.00
   -1    8   17     -3.27      0.00
   -1    8   16      2.19      0.00
   -1    8   15     -0.89      0.00
   -1    8   14      6.33      0.00
   -1    8   13     -7.40      0.00
   -1    8   12      3.17      0.00
   -1    8   11     -6.12      0.00
   -1    8   10      8.93      0.00
   -1    8    9    -13.98      0.00
   -1    8    8     -6.01      0.00
   -1    8    7     -9.83      0.00
   -1    8    6     -2.52      0.00
   -1    8    5    -12.00      0.00
   -1    8    4    -16.85      0.00
   -1    8    3      1.54      0.00
   -1    8    2     -7.48      0.00
   -1    8    1      2.12      0.00
    1    8    0    -30.04      0.00
    1    8    1      1.12      0.00
    1    8    2     -2.87      0.00
    1    8    3     -1.15      0.00
    1    8    4    -15.15      0.00
    1    8    5    -10.91      0.00
    1    8    6      7.58      0.00
    1    8    7     -6.29      0.00
    1    8    8     -9.76      0.00
    1    8    9     -4.50      0.00
    1    8   10      6.92      0.00
    1    8   11     -3.70      0.00
    1    8   12      0.04      0.00
    1    8   13     -6.04      0.00
    1    8   14      7.12      0.00
    1    8   15     -1.63      0.00
    1    8   16     -0.03      0.00
    1    8   17     -0.93      0.00
    1    8   18      2.15      0.00
    1    8   19      2.19      0.00
    1    8   20     -2.78      0.00
    1    8   21      0.92      0.00
    1    8   22      0.87      0.00
    1    8   23     -0.78      0.00
    1    8   24      1.71      0.00
    1    8   25     -0.22      0.00
    1    8   26      2.91      0.00
    1    8   27      1.59      0.00
   -1    9   26      2.09      0.00
   -1    9   25      0.73      0.00
   -1    9   24      2.25      0.00
   -1    9   23     -1.87      0.00
   -1    9   22      1.10      0.00
   -1    9   21      0.09      0.00
   -1    9   20      1.18      0.00
   -1    9   19     -2.79      0.00
   -1    9   18      2.07      0.00
   -1    9   17     -0.17      0.00
   -1    9   16      1.82      0.00
   -1    9   15     -6.32      0.00
   -1    9   14      3.55      0.00
   -1    9   13      1.68      0.00
   -1    9   12      1.24      0.00
   -1    9   11     -6.31      0.00
   -1    9   10     -1.48      0.00
   -1    9    9      7.89      0.00
   -1    9    8     -5.40      0.00
   -1    9    7      1.63      0.00
   -1    9    6     -5.36      0.00
   -1    9    5     23.80      0.00
   -1    9    4    -14.17      0.00
   -1    9    3      1.87      0.00
   -1    9    2    -18.24      0.00
   -1    9    1     25.91      0.00
    1    9    0      7.43      0.00
    1    9    1     -1.92      0.00
    1    9    2     -1.56      0.00
    1    9    3     15.87      0.00
    1    9    4     -2.34      0.00
    1    9    5     -7.40      0.00
    1    9    6     -0.83      0.00
    1    9    7     10.77      0.00
    1    9    8     -8.89      0.00
    1    9    9     -0.98      0.00
    1    9   10     -5.57      0.00
    1    9   11      4.26      0.00
    1    9   12     -3.36      0.00
    1    9   13     -7.13      0.00
    1    9   14      1.31      0.00
    1    9   15     -0.70      0.00
    1    9   16     -1.20      0.00
    1    9   17     -3.12      0.00
    1    9   18      1.37      0.00
    1    9   19      1.18      0.00
    1    9   20     -0.28      0.00
    1    9   21     -1.53      0.00
    1    9   22      0.20      0.00
    1    9   23     -1.52      0.00
    1    9   24      0.76      0.00
    1    9   25     -4.17      0.00
    1    9   26     -1.77      0.00
   -1   10   26     -0.39      0.00
   -1   10   25     -1.40      0.00
   -1   10   24      1.73      0.00
   -1   10   23     -2.08      0.00
   -1   10   22      1.12      0.00
   -1   10   21      0.27      0.00
   -1   10   20     -1.08      0.00
   -1   10   19      0.67      0.00
   -1   10   18     -0.62      0.00
   -1   10   17      1.13      0.00
   -1   10   16     -1.37      0.00
   -1   10   15      1.13      0.00
   -1   10   14     -1.08      0.00
   -1   10   13      1.00      0.00
   -1   10   12     -7.37      0.00
   -1   10   11      1.51      0.00
   -1   10   10     -3.26      0.00
   -1   10    9      6.20      0.00
   -1   10    8     -6.85      0.00
   -1   10    7     -0.14      0.00
   -1   10    6     -1.28      0.00
   -1   10    5      1.53      0.00
   -1   10    4     -4.73      0.00
   -1   10    3      1.32      0.00
   -1   10    2     11.25      0.00
   -1   10    1      5.02      0.00
    1   10    0      1.80      0.00
    1   10    1      9.26      0.00
    1   10    2     17.15      0.00
    1   10    3      3.56      0.00
    1   10    4      1.42      0.00
    1   10    5      4.17      0.00
    1   10    6     12.91      0.00
    1   10    7      0.48      0.00
    1   10    8     -6.53      0.00
    1   10    9      7.24      0.00
    1   10   10      2.51      0.00
    1   10   11      1.68      0.00
    1   10   12     -3.13      0.00
    1   10   13     -0.47      0.00
    1   10   14      5.00      0.00
    1   10   15     -2.09      0.00
    1   10   16     -2.23      0.00
    1   10   17     -0.66      0.00
    1   10   18      1.17      0.00
    1   10   19      0.21      0.00
    1   10   20     -0.72      0.00
    1   10   21     -0.41      0.00
    1   10   22      1.76      0.00
    1   10   23      0.01      0.00
    1   10   24      0.90      0.00
    1   10   25      0.15      0.00
   -1   11   26      1.31      0.00
   -1   11   25     -2.23      0.00
   -1   11   24     -0.46      0.00
   -1   11   23     -3.97      0.00
   -1   11   22     -1.42      0.00
   -1   11   21      0.85      0.00
   -1   11   20     -2.63      0.00
   -1   11   19     -1.27      0.00
   -1   11   18     -2.10      0.00
   -1   11   17      3.13      0.00
   -1   11   16     -2.56      0.00
   -1   11   15     -3.39      0.00
   -1   11   14     -2.14      0.00
   -1   11   13      3.60      0.00
   -1   11   12      0.85      0.00
   -1   11   11     -3.12      0.00
   -1   11   10      1.57      0.00
   -1   11    9      1.50      0.00
   -1   11    8      5.44      0.00
   -1   11    7    -12.67      0.00
   -1   11    6      9.55      0.00
   -1   11    5      0.55      0.00
   -1   11    4     11.36      0.00
   -1   11    3    -16.03      0.00
   -1   11    2      0.71      0.00
   -1   11    1      0.51      0.00
    1   11    0     -7.78      0.00
    1   11    1    -10.41      0.00
    1   11    2     -3.30      0.00
    1   11    3      5.28      0.00
    1   11    4     -5.91      0.00
    1   11    5     -2.27      0.00
    1   11    6      4.41      0.00
    1   11    7      7.06      0.00
    1   11    8     -3.06      0.00
    1   11    9      3.45      0.00
    1   11   10      0.20      0.00
    1   11   11      5.49      0.00
    1   11   12     -1.11      0.00
    1   11   13     -1.57      0.00
    1   11   14      4.55      0.00
    1   11   15     -0.03      0.00
    1   11   16     -0.31      0.00
    1   11   17     -0.75      0.00
    1   11   18      0.92      0.00
    1   11   19      1.34      0.00
    1   11   20     -1.92      0.00
    1   11   21     -1.53      0.00
    1   11   22      2.04      0.00
    1   11   23      2.39      0.00
   -1   12   25      1.45      0.00
   -1   12   24      3.18      0.00
   -1   12   23      1.50      0.00
   -1   12   22      0.83      0.00
   -1   12   21      3.25      0.00
   -1   12   20      1.19      0.00
   -1   12   19      0.34      0.00
   -1   12   18      0.43      0.00
   -1   12   17      1.24      0.00
   -1   12   16      0.19      0.00
   -1   12   15     -0.77      0.00
   -1   12   14      1.98      0.00
   -1   12   13      1.28      0.00
   -1   12   12      2.91      0.00
   -1   12   11     -4.43      0.00
   -1   12   10      3.09      0.00
   -1   12    9      1.13      0.00
   -1   12    8      6.23      0.00
   -1   12    7     -6.24      0.00
   -1   12    6      5.34      0.00
   -1   12    5      1.12      0.00
   -1   12    4      2.34      0.00
   -1   12    3      1.34      0.00
   -1   12    2      5.80      0.00
   -1   12    1     13.53      0.00
    1   12    0     -1.30      0.00
    1   12    1     -1.80      0.00
    1   12    2      2.49      0.00
    1   12    3     -7.35      0.00
    1   12    4     -7.45      0.00
    1   12    5      1.30      0.00
    1   12    6     -0.60      0.00
    1   12    7     -3.17      0.00
    1   12    8     -8.10      0.00
    1   12    9      7.62      0.00
    1   12   10     -2.16      0.00
    1   12   11      3.82      0.00
    1   12   12     -6.03      0.00
    1   12   13      3.38      0.00
    1   12   14      1.14      0.00
    1   12   15     -0.02      0.00
    1   12   16     -2.82      0.00
    1   12   17      1.29      0.00
    1   12   18     -1.05      0.00
    1   12   19      2.52      0.00
    1   12   20     -1.35      0.00
    1   12   21      1.69      0.00
    1   12   22     -0.59      0.00
    1   12   23     -0.68      0.00
   -1   13   24     -2.34      0.00
   -1   13   23     -0.61      0.00
   -1   13   22     -0.19      0.00
   -1   13   21      1.40      0.00
   -1   13   20      0.64      0.00
   -1   13   19     -3.09      0.00
   -1   13   18      0.17      0.00
   -1   13   17      1.95      0.00
   -1   13   16      1.07      0.00
   -1   13   15     -1.58      0.00
   -1   13   14      0.47      0.00
   -1   13   13      2.78      0.00
   -1   13   12      2.54      0.00
   -1   13   11     -2.47      0.00
   -1   13   10      0.65      0.00
   -1   13    9      4.56      0.00
   -1   13    8      2.23      0.00
   -1   13    7     -3.01      0.00
   -1   13    6     -1.03      0.00
   -1   13    5      5.92      0.00
   -1   13    4      1.72      0.00
   -1   13    3     -5.43      0.00
   -1   13    2     -9.65      0.00
   -1   13    1     -2.04      0.00
    1   13    0      3.50      0.00
    1   13    1     -8.81      0.00
    1   13    2      7.61      0.00
    1   13    3     -4.25      0.00
    1   13    4      2.17      0.00
    1   13    5     -5.99      0.00
    1   13    6      5.75      0.00
    1   13    7     -4.60      0.00
    1   13    8     -0.30      0.00
    1   13    9     -2.29      0.00
    1   13   10      0.06      0.00
    1   13   11      1.31      0.00
    1   13   12     -1.69      0.00
    1   13   13      1.80      0.00
    1   13   14      2.13      0.00
    1   13   15      2.27      0.00
    1   13   16     -0.67      0.00
    1   13   17      3.38      0.00
    1   13   18      0.69      0.00
    1   13   19      2.41      0.00
    1   13   20     -7.67      0.00
    1   13   21      1.15      0.00
    1   13   22     -0.57      0.00
    1   13   23      2.24      0.00
   -1   14   23     -0.44      0.00
   -1   14   22     -0.57      0.00
   -1   14   21     -1.70      0.00
   -1   14   20      2.45      0.00
   -1   14   19     -2.22      0.00
   -1   14   18      0.89      0.00
   -1   14   17      1.26      0.00
   -1   14   16      1.51      0.00
   -1   14   15     -1.13      0.00
   -1   14   14     -1.27      0.00
   -1   14   13      0.42      0.00
   -1   14   12      1.97      0.00
   -1   14   11     -4.45      0.00
   -1   14   10     -1.75      0.00
   -1   14    9     -0.48      0.00
   -1   14    8      0.73      0.00
   -1   14    7     -5.64      0.00
   -1   14    6     -3.82      0.00
   -1   14    5     -2.37      0.00
   -1   14    4     -2.42      0.00
   -1   14    3     -6.74      0.00
   -1   14    2     -0.25      0.00
   -1   14    1     -0.39      0.00
    1   14    0     -0.06      0.00
    1   14    1      6.39      0.00
    1   14    2      0.71      0.00
    1   14    3     -1.43      0.00
    1   14    4     -0.90      0.00
    1   14    5      1.60      0.00
    1   14    6      3.65      0.00
    1   14    7     -7.25      0.00
    1   14    8      2.13      0.00
    1   14    9     -3.96      0.00
    1   14   10      3.96      0.00
    1   14   11     -7.66      0.00
    1   14   12      0.72      0.00
    1   14   13     -3.94      0.00
    1   14   14      2.68      0.00
    1   14   15     -4.28      0.00
    1   14   16     -0.87      0.00
    1   14   17     -1.75      0.00
    1   14   18     -0.69      0.00
    1   14   19      3.45      0.00
    1   14   20      0.01      0.00
    1   14   21      6.45      0.00
    1   14   22     -2.47      0.00
    1   14   23      1.10      0.00
   -1   15   23     -3.31      0.00
   -1   15   22      1.66      0.00
   -1   15   21     -1.15      0.00
   -1   15   20      1.65      0.00
   -1   15   19     -2.47      0.00
   -1   15   18      0.07      0.00
   -1   15   17     -0.22      0.00
   -1   15   16     -0.20      0.00
   -1   15   15     -1.22      0.00
   -1   15   14     -1.68      0.00
   -1   15   13      1.67      0.00
   -1   15   12      1.84      0.00
   -1   15   11     -3.65      0.00
   -1   15   10     -1.11      0.00
   -1   15    9      0.67      0.00
   -1   15    8      0.74      0.00
   -1   15    7     -1.12      0.00
   -1   15    6     -4.88      0.00
   -1   15    5      4.44      0.00
   -1   15    4     -0.63      0.00
   -1   15    3      2.79      0.00
   -1   15    2     -3.50      0.00
   -1   15    1      4.99      0.00
    1   15    0     -3.09      0.00
    1   15    1      5.21      0.00
    1   15    2     -2.27      0.00
    1   15    3      7.34      0.00
    1   15    4     -4.49      0.00
    1   15    5      4.97      0.00
    1   15    6     -3.04      0.00
    1   15    7      1.71      0.00
    1   15    8      0.04      0.00
    1   15    9      0.38      0.00
    1   15   10      1.33      0.00
    1   15   11     -3.36      0.00
    1   15   12      1.38      0.00
    1   15   13     -2.90      0.00
    1   15   14      1.95      0.00
    1   15   15     -2.96      0.00
    1   15   16     -0.02      0.00
    1   15   17      0.88      0.00
    1   15   18      1.14      0.00
    1   15   19     -2.89      0.00
    1   15   20     -7.75      0.00
    1   15   21      0.99      0.00
    1   15   22     -2.56      0.00
    1   15   23      0.53      0.00
   -1   16   22     -0.11      0.00
   -1   16   21     -1.03      0.00
   -1   16   20      1.27      0.00
   -1   16   19     -0.35      0.00
   -1   16   18     -1.29      0.00
   -1   16   17      0.75      0.00
   -1   16   16      0.13      0.00
   -1   16   15      2.95      0.00
   -1   16   14     -5.20      0.00
   -1   16   13      2.53      0.00
   -1   16   12     -0.68      0.00
   -1   16   11      0.88      0.00
   -1   16   10     -2.89      0.00
   -1   16    9      3.01      0.00
   -1   16    8     -0.82      0.00
   -1   16    7      3.25      0.00
   -1   16    6     -3.07      0.00
   -1   16    5      8.23      0.00
   -1   16    4     -0.63      0.00
   -1   16    3      4.58      0.00
   -1   16    2      1.44      0.00
   -1   16    1      3.61      0.00
    1   16    0      2.12      0.00
    1   16    1      2.62      0.00
    1   16    2      1.29      0.00
    1   16    3      1.13      0.00
    1   16    4      0.69      0.00
    1   16    5      6.95      0.00
    1   16    6      1.73      0.00
    1   16    7      2.90      0.00
    1   16    8      0.46      0.00
    1   16    9      5.12      0.00
    1   16   10      1.03      0.00
    1   16   11      1.31      0.00
    1   16   12      0.52      0.00
    1   16   13      3.15      0.00
    1   16   14     -0.93      0.00
    1   16   15      0.60      0.00
    1   16   16     -2.50      0.00
    1   16   17      0.47      0.00
    1   16   18     -1.97      0.00
    1   16   19      2.12      0.00
    1   16   20      1.95      0.00
    1   16   21      4.47      0.00
   -1   17   20      0.56      0.00
   -1   17   19      0.46      0.00
   -1   17   18      0.24      0.00
   -1   17   17      1.21      0.00
   -1   17   16     -3.39      0.00
   -1   17   15      2.58      0.00
   -1   17   14     -5.18      0.00
   -1   17   13      3.47      0.00
   -1   17   12     -0.41      0.00
   -1   17   11      0.22      0.00
   -1   17   10     -2.14      0.00
   -1   17    9      0.22      0.00
   -1   17    8      2.42      0.00
   -1   17    7      0.33      0.00
   -1   17    6     -0.98      0.00
   -1   17    5     -1.11      0.00
   -1   17    4      1.00      0.00
   -1   17    3     -2.73      0.00
   -1   17    2      2.34      0.00
   -1   17    1     -4.79      0.00
    1   17    0     -5.91      0.00
    1   17    1     -4.38      0.00
    1   17    2     -2.76      0.00
    1   17    3     -2.11      0.00
    1   17    4     -2.57      0.00
    1   17    5     -3.03      0.00
    1   17    6     -2.03      0.00
    1   17    7     -2.02      0.00
    1   17    8      1.27      0.00
    1   17    9      0.32      0.00
    1   17   10     -0.53      0.00
    1   17   11     -0.35      0.00
    1   17   12      0.50      0.00
    1   17   13      3.78      0.00
    1   17   14     -1.53      0.00
    1   17   15      2.61      0.00
    1   17   16     -1.02      0.00
    1   17   17      5.76      0.00
    1   17   18      0.51      0.00
    1   17   19     -0.58      0.00
   -1   18   17     -0.56      0.00
   -1   18   16      0.05      0.00
   -1   18   15      3.52      0.00
   -1   18   14     -1.72      0.00
   -1   18   13     -1.73      0.00
   -1   18   12      1.61      0.00
   -1   18   11     -0.89      0.00
   -1   18   10      1.91      0.00
   -1   18    9     -1.71      0.00
   -1   18    8      3.79      0.00
   -1   18    7     -1.55      0.00
   -1   18    6      1.87      0.00
   -1   18    5      2.37      0.00
   -1   18    4      1.50      0.00
   -1   18    3     -1.86      0.00
   -1   18    2      0.25      0.00
   -1   18    1     -2.07      0.00
    1   18    0     -0.57      0.00
    1   18    1      3.16      0.00
    1   18    2     -2.85      0.00
    1   18    3     -1.24      0.00
    1   18    4     -3.04      0.00
    1   18    5      1.49      0.00
    1   18    6     -2.25      0.00
    1   18    7     -1.80      0.00
    1   18    8     -1.60      0.00
    1   18    9      0.32      0.00
    1   18   10     -1.40      0.00
    1   18   11     -1.61      0.00
    1   18   12     -0.78      0.00
    1   18   13      2.02      0.00
    1   18   14     -2.50      0.00
    1   18   15      1.61      0.00
    1   18   16     -1.23      0.00
    1   18   17      1.28      0.00
   -1   19   15     -0.42      0.00
   -1   19   14      1.24      0.00
   -1   19   13      0.01      0.00
   -1   19   12      3.98      0.00
   -1   19   11      1.01      0.00
   -1   19   10      1.12      0.00
   -1   19    9     -0.62      0.00
   -1   19    8      0.92      0.00
   -1   19    7      0.38      0.00
   -1   19    6     -4.70      0.00
   -1   19    5     -0.77      0.00
   -1   19    4     -5.68      0.00
   -1   19    3      0.79      0.00
   -1   19    2     -2.48      0.00
   -1   19    1     -0.07      0.00
    1   19    0      0.82      0.00
    1   19    1      0.56      0.00
    1   19    2      3.61      0.00
    1   19    3      0.29      0.00
    1   19    4      1.24      0.00
    1   19    5      0.71      0.00
    1   19    6     -0.62      0.00
    1   19    7      0.38      0.00
    1   19    8     -0.27      0.00
    1   19    9      1.67      0.00
    1   19   10     -2.58      0.00
    1   19   11      0.56      0.00
    1   19   12      0.27      0.00
    1   19   13      2.24      0.00
    1   19   14     -3.65      0.00
   -1   20   12     -0.76      0.00
   -1   20   11     -0.26      0.00
   -1   20   10     -1.31      0.00
   -1   20    9     -2.04      0.00
   -1   20    8     -1.20      0.00
   -1   20    7      0.77      0.00
   -1   20    6     -1.80      0.00
   -1   20    5      4.45      0.00
   -1   20    4      1.26      0.00
   -1   20    3      0.21      0.00
   -1   20    2     -0.83      0.00
   -1   20    1     -1.06      0.00
    1   20    0      1.84      0.00
    1   20    1      1.32      0.00
    1   20    2      1.16      0.00
    1   20    3     -1.18      0.00
    1   20    4      1.89      0.00
    1   20    5     -0.10      0.00
    1   20    6      1.13      0.00
    1   20    7     -1.42      0.00
    1   20    8      0.09      0.00
    1   20    9      0.19      0.00
    1   20   10     -1.30      0.00
    1   20   11     -2.34      0.00
   -1   21    9     -0.51      0.00
   -1   21    8      0.94      0.00
   -1   21    7      0.82      0.00
   -1   21    6     -2.38      0.00
   -1   21    5     -0.70      0.00
   -1   21    4     -1.54      0.00
   -1   21    3     -0.14      0.00
   -1   21    2      1.50      0.00
   -1   21    1      0.82      0.00
    1   21    0     -2.44      0.00
    1   21    1      2.26      0.00
    1   21    2     -2.11      0.00
    1   21    3      1.29      0.00
    1   21    4     -1.41      0.00
    1   21    5      3.28      0.00
    1   21    6     -0.46      0.00
    1   21    7      1.36      0.00
    1   21    8      1.53      0.00
    1   21    9      2.11      0.00
    1   21   10      0.67      0.00
   -1   22    9     -0.61      0.00
   -1   22    8     -0.78      0.00
   -1   22    7      1.41      0.00
   -1   22    6     -0.76      0.00
   -1   22    5      2.03      0.00
   -1   22    4      2.24      0.00
   -1   22    3      1.99      0.00
   -1   22    2     -1.78      0.00
   -1   22    1      1.05      0.00
    1   22    0      0.73      0.00
    1   22    1     -0.89      0.00
    1   22    2     -0.87      0.00
    1   22    3      1.67      0.00
    1   22    4     -2.05      0.00
    1   22    5      1.87      0.00
    1   22    6     -1.94      0.00
    1   22    7      0.73      0.00
    1   22    8     -2.33      0.00
    1   22    9      1.83      0.00
   -1   23    8      1.23      0.00
   -1   23    7     -0.69      0.00
   -1   23    6     -0.64      0.00
   -1   23    5     -1.15      0.00
   -1   23    4      0.27      0.00
   -1   23    3      0.56      0.00
   -1   23    2     -0.68      0.00
   -1   23    1      0.53      0.00
    1   23    0      0.99      0.00
    1   23    1     -1.91      0.00
    1   23    2     -0.97      0.00
    1   23    3     -2.22      0.00
    1   23    4     -0.89      0.00
    1   23    5      0.52      0.00
    1   23    6     -1.01      0.00
    1   23    7     -0.11      0.00
    1   23    8     -0.13      0.00
   -1   24    2     -3.38      0.00
   -1   24    1     -2.31      0.00
    1   24    0      0.15      0.00
    1   24    1      0.91      0.00
    1   24    2      1.42      0.00
    1   24    3      2.13      0.00
   -2    0   26     -0.46      0.00
   -2    0   24     -1.72      0.00
   -2    0   22      0.94      0.00
   -2    0   20     -2.34      0.00
   -2    0   18     -2.63      0.00
   -2    0   16     -3.09      0.00
   -2    0   14     -2.58      0.00
   -2    0   12      0.39      0.00
   -2    0   10     25.47      0.00
   -2    0    8     -4.99      0.00
   -2    0    6    -13.92      0.00
   -2    0    4    -38.15      0.00
   -2    0    2      5.57      0.00
    2    0    0    -27.06      0.00
    2    0    2     -1.17      0.00
    2    0    4      8.06      0.00
    2    0    6     37.72      0.00
    2    0    8      7.29      0.00
    2    0   10      3.35      0.00
    2    0   12     -4.88      0.00
    2    0   14      7.70      0.00
    2    0   16      0.04      0.00
    2    0   18      2.91      0.00
    2    0   20      0.54      0.00
    2    0   22     -0.99      0.00
    2    0   24     -2.25      0.00
    2    0   26     -0.31      0.00
   -2    1   27      0.71      0.00
   -2    1   26      2.30      0.00
   -2    1   25     -1.42      0.00
   -2    1   24      0.45      0.00
   -2    1   23      0.95      0.00
   -2    1   22     -0.05      0.00
   -2    1   21     -1.21      0.00
   -2    1   20     -0.79      0.00
   -2    1   19      4.41      0.00
   -2    1   18      0.34      0.00
   -2    1   17      0.26      0.00
   -2    1   16     -1.88      0.00
   -2    1   15      2.97      0.00
   -2    1   14      0.16      0.00
   -2    1   13     -7.63      0.00
   -2    1   12      1.50      0.00
   -2    1   11    -14.86      0.00
   -2    1   10      3.78      0.00
   -2    1    9    -38.41      0.00
   -2    1    8     -4.36      0.00
   -2    1    7     14.09      0.00
   -2    1    6      7.34      0.00
   -2    1    5     -9.60      0.00
   -2    1    4      3.36      0.00
   -2    1    3     32.71      0.00
   -2    1    2     11.29      0.00
   -2    1    1    -34.26      0.00
    2    1    0     12.79      0.00
    2    1    1     53.11      0.00
    2    1    2    -18.86      0.00
    2    1    3    -23.17      0.00
    2    1    4    -13.07      0.00
    2    1    5     17.82      0.00
    2    1    6    -15.63      0.00
    2    1    7    -27.89      0.00
    2    1    8      4.36      0.00
    2    1    9     21.80      0.00
    2    1   10     -0.39      0.00
    2    1   11      1.29      0.00
    2    1   12      1.21      0.00
    2    1   13      8.07      0.00
    2    1   14      0.39      0.00
    2    1   15     -5.61      0.00
    2    1   16      1.10      0.00
    2    1   17      0.93      0.00
    2    1   18      0.42      0.00
    2    1   19     -3.04      0.00
    2    1   20      1.03      0.00
    2    1   21     -0.44      0.00
    2    1   22      0.65      0.00
    2    1   23      0.12      0.00
    2    1   24     -0.58      0.00
    2    1   25      1.12      0.00
    2    1   26     -3.16      0.00
   -2    2   27     -2.33      0.00
   -2    2   26      1.56      0.00
   -2    2   25     -0.99      0.00
   -2    2   24      0.72      0.00
   -2    2   23      0.28      0.00
   -2    2   22      2.37      0.00
   -2    2   21      1.56      0.00
   -2    2   20     -0.90      0.00
   -2    2   19     -2.69      0.00
   -2    2   18     -1.27      0.00
   -2    2   17     -3.66      0.00
   -2    2   16     -1.84      0.00
   -2    2   15     -0.87      0.00
   -2    2   14      2.75      0.00
   -2    2   13     -8.84      0.00
   -2    2   12      3.68      0.00
   -2    2   11     -3.98      0.00
   -2    2   10     27.84      0.00
   -2    2    9     -2.99      0.00
   -2    2    8     -1.16      0.00
   -2    2    7     16.21      0.00
   -2    2    6      1.73      0.00
   -2    2    5     -0.81      0.00
   -2    2    4    -24.44      0.00
   -2    2    3     20.92      0.00
   -2    2    2     20.69      0.00
   -2    2    1     35.88      0.00
    2    2    0    -13.59      0.00
    2    2    1    -52.49      0.00
    2    2    2      2.51      0.00
    2    2    3     -5.89      0.00
    2    2    4    -11.28      0.00
    2    2    5      0.96      0.00
    2    2    6     13.27      0.00
    2    2    7      0.37      0.00
    2    2    8     -7.97      0.00
    2    2    9     -3.43      0.00
    2    2   10     -6.40      0.00
    2    2   11      3.91      0.00
    2    2   12    -10.48      0.00
    2    2   13      5.42      0.00
    2    2   14      2.92      0.00
    2    2   15      2.19      0.00
    2    2   16     -0.34      0.00
    2    2   17      3.63      0.00
    2    2   18      1.17      0.00
    2    2   19      2.27      0.00
    2    2   20     -0.06      0.00
    2    2   21      0.92      0.00
    2    2   22      0.68      0.00
    2    2   23     -0.25      0.00
    2    2   24      0.40      0.00
    2    2   25      1.98      0.00
    2    2   26      1.48      0.00
   -2    3   26      2.96      0.00
   -2    3   25     -1.23      0.00
   -2    3   24     -0.34      0.00
   -2    3   23     -1.06      0.00
   -2    3   22      0.17      0.00
   -2    3   21     -3.55      0.00
   -2    3   20      0.28      0.00
   -2    3   19      0.75      0.00
   -2    3   18      4.05      0.00
   -2    3   17      1.07      0.00
   -2    3   16     -3.53      0.00
   -2    3   15      8.90      0.00
   -2    3   14     -0.74      0.00
   -2    3   13      7.95      0.00
   -2    3   12     -2.23      0.00
   -2    3   11     13.78      0.00
   -2    3   10      4.64      0.00
   -2    3    9      7.26      0.00
   -2    3    8    -14.50      0.00
   -2    3    7     40.95      0.00
   -2    3    6     12.44      0.00
   -2    3    5     17.78      0.00
   -2    3    4      4.58      0.00
   -2    3    3     33.44      0.00
   -2    3    2     16.75      0.00
   -2    3    1    -20.46      0.00
    2    3    0     54.14      0.00
    2    3    1     16.54      0.00
    2    3    2      5.92      0.00
    2    3    3    -29.58      0.00
    2    3    4      9.09      0.00
    2    3    5     -7.57      0.00
    2    3    6    -16.74      0.00
    2    3    7    -36.23      0.00
    2    3    8     12.74      0.00
    2    3    9     -3.90      0.00
    2    3   10     -2.46      0.00
    2    3   11    -11.30      0.00
    2    3   12      1.14      0.00
    2    3   13     -0.95      0.00
    2    3   14     -1.01      0.00
    2    3   15     -8.16      0.00
    2    3   16      1.62      0.00
    2    3   17      0.77      0.00
    2    3   18     -2.43      0.00
    2    3   19      1.61      0.00
    2    3   20     -3.67      0.00
    2    3   21      2.49      0.00
    2    3   22     -2.30      0.00
    2    3   23      0.53      0.00
    2    3   24     -0.76      0.00
    2    3   25     -1.49      0.00
    2    3   26     -2.76      0.00
   -2    4   27     -1.44      0.00
   -2    4   26      1.08      0.00
   -2    4   25     -1.49      0.00
   -2    4   24     -0.56      0.00
   -2    4   23     -0.14      0.00
   -2    4   22      1.79      0.00
   -2    4   21      1.45      0.00
   -2    4   20     -0.03      0.00
   -2    4   19      0.07      0.00
   -2    4   18     -1.09      0.00
   -2    4   17      5.90      0.00
   -2    4   16     -8.48      0.00
   -2    4   15     15.10      0.00
   -2    4   14     -4.63      0.00
   -2    4   13      7.31      0.00
   -2    4   12    -12.87      0.00
   -2    4   11      7.09      0.00
   -2    4   10      4.84      0.00
   -2    4    9     -5.20      0.00
   -2    4    8    -22.23      0.00
   -2    4    7     -3.85      0.00
   -2    4    6      6.98      0.00
   -2    4    5    -52.47      0.00
   -2    4    4    -18.23      0.00
   -2    4    3    -50.95      0.00
   -2    4    2     19.71      0.00
   -2    4    1    -39.11      0.00
    2    4    0    -20.06      0.00
    2    4    1      1.48      0.00
    2    4    2      6.71      0.00
    2    4    3     36.99      0.00
    2    4    4     -8.19      0.00
    2    4    5     28.04      0.00
    2    4    6     17.02      0.00
    2    4    7     13.13      0.00
    2    4    8      5.45      0.00
    2    4    9     -7.56      0.00
    2    4   10      7.96      0.00
    2    4   11     -4.32      0.00
    2    4   12      0.72      0.00
    2    4   13     -7.31      0.00
    2    4   14      6.11      0.00
    2    4   15     -8.11      0.00
    2    4   16      3.71      0.00
    2    4   17     -4.55      0.00
    2    4   18      0.57      0.00
    2    4   19      0.98      0.00
    2    4   20     -2.65      0.00
    2    4   21      3.84      0.00
    2    4   22     -1.10      0.00
    2    4   23      2.53      0.00
    2    4   24      0.02      0.00
    2    4   25      2.44      0.00
    2    4   26      1.15      0.00
   -2    5   27     -0.62      0.00
   -2    5   26      2.20      0.00
   -2    5   25      1.50      0.00
   -2    5   24     -1.43      0.00
   -2    5   23      2.03      0.00
   -2    5   22     -1.08      0.00
   -2    5   21      1.09      0.00
   -2    5   20     -1.90      0.00
   -2    5   19      2.50      0.00
   -2    5   18     -0.83      0.00
   -2    5   17      3.47      0.00
   -2    5   16    -11.30      0.00
   -2    5   15      1.36      0.00
   -2    5   14     -4.14      0.00
   -2    5   13     -6.75      0.00
   -2    5   12     -3.04      0.00
   -2    5   11    -14.06      0.00
   -2    5   10      9.89      0.00
   -2    5    9    -17.27      0.00
   -2    5    8     -5.39      0.00
   -2    5    7    -15.69      0.00
   -2    5    6     27.55      0.00
   -2    5    5    -30.37      0.00
   -2    5    4     23.11      0.00
   -2    5    3    -17.41      0.00
   -2    5    2     32.65      0.00
   -2    5    1     -9.95      0.00
    2    5    0     28.36      0.00
    2    5    1     16.40      0.00
    2    5    2    -13.11      0.00
    2    5    3     12.81      0.00
    2    5    4    -14.61      0.00
    2    5    5     20.13      0.00
    2    5    6    -29.40      0.00
    2    5    7     10.26      0.00
    2    5    8      3.81      0.00
    2    5    9     12.31      0.00
    2    5   10     -3.70      0.00
    2    5   11      7.00      0.00
    2    5   12      3.20      0.00
    2    5   13      6.76      0.00
    2    5   14      0.01      0.00
    2    5   15     -2.33      0.00
    2    5   16      3.30      0.00
    2    5   17     -1.04      0.00
    2    5   18      0.01      0.00
    2    5   19      0.24      0.00
    2    5   20     -2.64      0.00
    2    5   21      0.66      0.00
    2    5   22     -2.79      0.00
    2    5   23      0.30      0.00
    2    5   24     -1.16      0.00
    2    5   25     -0.39      0.00
    2    5   26     -0.42      0.00
   -2    6   27     -2.43      0.00
   -2    6   26     -0.44      0.00
   -2    6   25     -0.38      0.00
   -2    6   24     -5.51      0.00
   -2    6   23      0.50      0.00
   -2    6   22     -0.79      0.00
   -2    6   21     -0.12      0.00
   -2    6   20     -2.65      0.00
   -2    6   19     -2.43      0.00
   -2    6   18     -0.32      0.00
   -2    6   17      1.33      0.00
   -2    6   16     -4.84      0.00
   -2    6   15      2.57      0.00
   -2    6   14      8.35      0.00
   -2    6   13     -5.10      0.00
   -2    6   12      1.24      0.00
   -2    6   11     -3.98      0.00
   -2    6   10     14.41      0.00
   -2    6    9      0.62      0.00
   -2    6    8    -11.87      0.00
   -2    6    7     11.51      0.00
   -2    6    6     23.09      0.00
   -2    6    5     -7.21      0.00
   -2    6    4     -5.99      0.00
   -2    6    3      8.44      0.00
   -2    6    2     22.20      0.00
   -2    6    1     31.67      0.00
    2    6    0    -13.75      0.00
    2    6    1    -50.21      0.00
    2    6    2     15.36      0.00
    2    6    3     -6.66      0.00
    2    6    4     -6.75      0.00
    2    6    5      1.40      0.00
    2    6    6      3.64      0.00
    2    6    7      5.97      0.00
    2    6    8     -3.83      0.00
    2    6    9     -3.55      0.00
    2    6   10      1.38      0.00
    2    6   11      6.34      0.00
    2    6   12     -7.64      0.00
    2    6   13      3.84      0.00
    2    6   14     -1.82      0.00
    2    6   15      5.25      0.00
    2    6   16     -1.54      0.00
    2    6   17      1.15      0.00
    2    6   18     -1.77      0.00
    2    6   19      2.45      0.00
    2    6   20     -2.56      0.00
    2    6   21      2.62      0.00
    2    6   22      0.72      0.00
    2    6   23      0.71      0.00
    2    6   24     -0.95      0.00
    2    6   25     -0.53      0.00
   -2    7   26      1.48      0.00
   -2    7   25      3.38      0.00
   -2    7   24     -0.69      0.00
   -2    7   23      1.11      0.00
   -2    7   22      1.57      0.00
   -2    7   21     -0.20      0.00
   -2    7   20      1.79      0.00
   -2    7   19      0.05      0.00
   -2    7   18      2.06      0.00
   -2    7   17      3.77      0.00
   -2    7   16     -3.27      0.00
   -2    7   15     -1.50      0.00
   -2    7   14      2.01      0.00
   -2    7   13      0.43      0.00
   -2    7   12      0.65      0.00
   -2    7   11      0.44      0.00
   -2    7   10      2.87      0.00
   -2    7    9     16.21      0.00
   -2    7    8    -14.22      0.00
   -2    7    7      7.49      0.00
   -2    7    6      4.52      0.00
   -2    7    5      4.47      0.00
   -2    7    4      2.56      0.00
   -2    7    3      1.90      0.00
   -2    7    2      4.95      0.00
   -2    7    1      5.37      0.00
    2    7    0     30.93      0.00
    2    7    1     -8.38      0.00
    2    7    2      6.53      0.00
    2    7    3    -11.93      0.00
    2    7    4      0.25      0.00
    2    7    5    -11.00      0.00
    2    7    6     -6.68      0.00
    2    7    7     -8.30      0.00
    2    7    8      6.61      0.00
    2    7    9    -13.54      0.00
    2    7   10      1.59      0.00
    2    7   11     -2.49      0.00
    2    7   12      0.76      0.00
    2    7   13      2.45      0.00
    2    7   14     -2.93      0.00
    2    7   15      1.66      0.00
    2    7   16     -0.24      0.00
    2    7   17      2.41      0.00
    2    7   18     -0.14      0.00
    2    7   19      3.59      0.00
    2    7   20     -2.48      0.00
    2    7   21      0.13      0.00
    2    7   22     -1.29      0.00
    2    7   23      0.16      0.00
    2    7   24      0.92      0.00
    2    7   25      1.45      0.00
   -2    8   26      1.17      0.00
   -2    8   25      2.81      0.00
   -2    8   24     -2.21      0.00
   -2    8   23     -0.35      0.00
   -2    8   22      4.14      0.00
   -2    8   21      0.16      0.00
   -2    8   20     -1.24      0.00
   -2    8   19     -1.33      0.00
   -2    8   18      0.82      0.00
   -2    8   17      0.87      0.00
   -2    8   16     -4.31      0.00
   -2    8   15     -2.03      0.00
   -2    8   14      8.47      0.00
   -2    8   13     -1.74      0.00
   -2    8   12     -0.82      0.00
   -2    8   11     -4.00      0.00
   -2    8   10      3.07      0.00
   -2    8    9      3.39      0.00
   -2    8    8    -19.71      0.00
   -2    8    7      3.79      0.00
   -2    8    6     11.19      0.00
   -2    8    5     -4.96      0.00
   -2    8    4    -11.09      0.00
   -2    8    3     -9.87      0.00
   -2    8    2      7.91      0.00
   -2    8    1      3.68      0.00
    2    8    0    -14.66      0.00
    2    8    1    -10.69      0.00
    2    8    2     12.47      0.00
    2    8    3      7.15      0.00
    2    8    4     -6.82      0.00
    2    8    5      2.85      0.00
    2    8    6      1.32      0.00
    2    8    7      3.33      0.00
    2    8    8      1.05      0.00
    2    8    9     -8.67      0.00
    2    8   10      8.27      0.00
    2    8   11     -0.68      0.00
    2    8   12     -5.58      0.00
    2    8   13      0.07      0.00
    2    8   14     -0.96      0.00
    2    8   15      2.63      0.00
    2    8   16     -2.19      0.00
    2    8   17     -1.54      0.00
    2    8   18     -0.22      0.00
    2    8   19      1.53      0.00
    2    8   20     -1.60      0.00
    2    8   21      2.37      0.00
    2    8   22      1.20      0.00
    2    8   23     -1.27      0.00
    2    8   24     -2.15      0.00
    2    8   25     -1.68      0.00
    2    8   26     -1.83      0.00
   -2    9   26     -1.59      0.00
   -2    9   25      1.35      0.00
   -2    9   24     -1.44      0.00
   -2    9   23     -2.08      0.00
   -2    9   22     -0.25      0.00
   -2    9   21     -1.37      0.00
   -2    9   20     -1.79      0.00
   -2    9   19     -0.74      0.00
   -2    9   18     -0.70      0.00
   -2    9   17      3.83      0.00
   -2    9   16      2.50      0.00
   -2    9   15     -1.70      0.00
   -2    9   14      4.22      0.00
   -2    9   13     -0.67      0.00
   -2    9   12      2.34      0.00
   -2    9   11     -3.27      0.00
   -2    9   10     -0.50      0.00
   -2    9    9     16.59      0.00
   -2    9    8     -8.85      0.00
   -2    9    7      6.84      0.00
   -2    9    6     -2.34      0.00
   -2    9    5      7.43      0.00
   -2    9    4     -2.33      0.00
   -2    9    3     -0.51      0.00
   -2    9    2     -1.00      0.00
   -2    9    1      9.20      0.00
    2    9    0     16.25      0.00
    2    9    1     -3.15      0.00
    2    9    2      6.49      0.00
    2    9    3     -0.87      0.00
    2    9    4      0.50      0.00
    2    9    5      2.76      0.00
    2    9    6      0.41      0.00
    2    9    7      2.74      0.00
    2    9    8      2.99      0.00
    2    9    9     -9.72      0.00
    2    9   10      4.15      0.00
    2    9   11     -2.90      0.00
    2    9   12     -3.12      0.00
    2    9   13      1.03      0.00
    2    9   14     -3.90      0.00
    2    9   15      0.45      0.00
    2    9   16     -1.71      0.00
    2    9   17     -1.25      0.00
    2    9   18      1.18      0.00
    2    9   19      0.32      0.00
    2    9   20     -3.25      0.00
    2    9   21     -0.80      0.00
    2    9   22     -0.04      0.00
    2    9   23      1.50      0.00
    2    9   24      1.60      0.00
   -2   10   26     -0.15      0.00
   -2   10   25      2.21      0.00
   -2   10   24     -1.69      0.00
   -2   10   23     -1.26      0.00
   -2   10   22      2.36      0.00
   -2   10   21      3.15      0.00
   -2   10   20     -1.68      0.00
   -2   10   19      3.02      0.00
   -2   10   18      0.95      0.00
   -2   10   17      4.50      0.00
   -2   10   16     -6.13      0.00
   -2   10   15     -2.18      0.00
   -2   10   14      0.12      0.00
   -2   10   13      2.40      0.00
   -2   10   12     -5.39      0.00
   -2   10   11      0.16      0.00
   -2   10   10     -3.76      0.00
   -2   10    9      8.91      0.00
   -2   10    8    -18.73      0.00
   -2   10    7     -0.21      0.00
   -2   10    6      0.65      0.00
   -2   10    5     -2.14      0.00
   -2   10    4     -8.01      0.00
   -2   10    3    -12.38      0.00
   -2   10    2      3.58      0.00
   -2   10    1     -2.92      0.00
    2   10    0     -9.67      0.00
    2   10    1      2.41      0.00
    2   10    2     10.74      0.00
    2   10    3      7.42      0.00
    2   10    4     -4.79      0.00
    2   10    5      2.82      0.00
    2   10    6      1.20      0.00
    2   10    7      3.13      0.00
    2   10    8      3.05      0.00
    2   10    9     -5.68      0.00
    2   10   10     14.24      0.00
    2   10   11     -1.25      0.00
    2   10   12      1.44      0.00
    2   10   13     -0.09      0.00
    2   10   14      3.01      0.00
    2   10   15      0.10      0.00
    2   10   16      0.15      0.00
    2   10   17     -3.33      0.00
    2   10   18      2.97      0.00
    2   10   19     -0.91      0.00
    2   10   20      0.01      0.00
    2   10   21      1.54      0.00
    2   10   22     -0.47      0.00
    2   10   23     -1.09      0.00
    2   10   24     -1.47      0.00
   -2   11   25      1.02      0.00
   -2   11   24     -1.24      0.00
   -2   11   23      0.38      0.00
   -2   11   22     -0.20      0.00
   -2   11   21      0.83      0.00
   -2   11   20     -2.26      0.00
   -2   11   19     -0.33      0.00
   -2   11   18     -4.20      0.00
   -2   11   17      2.50      0.00
   -2   11   16     -2.05      0.00
   -2   11   15     -0.83      0.00
   -2   11   14     -0.86      0.00
   -2   11   13     -0.38      0.00
   -2   11   12      0.16      0.00
   -2   11   11     -6.47      0.00
   -2   11   10     -2.01      0.00
   -2   11    9      1.64      0.00
   -2   11    8     -0.18      0.00
   -2   11    7     -9.30      0.00
   -2   11    6      5.26      0.00
   -2   11    5     -6.27      0.00
   -2   11    4      9.68      0.00
   -2   11    3     -9.96      0.00
   -2   11    2      9.63      0.00
   -2   11    1      3.96      0.00
    2   11    0     -7.23      0.00
    2   11    1      0.73      0.00
    2   11    2     -8.75      0.00
    2   11    3      3.98      0.00
    2   11    4    -11.27      0.00
    2   11    5     11.76      0.00
    2   11    6     -5.23      0.00
    2   11    7      9.24      0.00
    2   11    8     -4.55      0.00
    2   11    9     -0.63      0.00
    2   11   10      3.23      0.00
    2   11   11     -0.87      0.00
    2   11   12     -1.06      0.00
    2   11   13      1.68      0.00
    2   11   14      1.00      0.00
    2   11   15      0.04      0.00
    2   11   16      0.83      0.00
    2   11   17     -1.83      0.00
    2   11   18      4.73      0.00
    2   11   19     -1.47      0.00
    2   11   20     -0.98      0.00
    2   11   21      0.08      0.00
    2   11   22      1.84      0.00
    2   11   23      1.46      0.00
   -2   12   25      2.98      0.00
   -2   12   24     -1.13      0.00
   -2   12   23     -0.34      0.00
   -2   12   22      0.99      0.00
   -2   12   21      0.07      0.00
   -2   12   20     -0.58      0.00
   -2   12   19     -1.74      0.00
   -2   12   18      0.69      0.00
   -2   12   17      0.29      0.00
   -2   12   16      0.14      0.00
   -2   12   15     -4.88      0.00
   -2   12   14      5.68      0.00
   -2   12   13     -1.80      0.00
   -2   12   12      5.61      0.00
   -2   12   11     -4.71      0.00
   -2   12   10      7.06      0.00
   -2   12    9      2.89      0.00
   -2   12    8      3.97      0.00
   -2   12    7     -1.51      0.00
   -2   12    6     10.24      0.00
   -2   12    5      5.88      0.00
   -2   12    4      4.34      0.00
   -2   12    3      4.25      0.00
   -2   12    2      5.24      0.00
   -2   12    1     11.56      0.00
    2   12    0     -6.09      0.00
    2   12    1     -7.29      0.00
    2   12    2      3.27      0.00
    2   12    3     -3.31      0.00
    2   12    4     -9.97      0.00
    2   12    5     -0.22      0.00
    2   12    6     -7.16      0.00
    2   12    7      4.14      0.00
    2   12    8     -9.79      0.00
    2   12    9      2.17      0.00
    2   12   10     -0.83      0.00
    2   12   11      4.11      0.00
    2   12   12     -6.56      0.00
    2   12   13      5.03      0.00
    2   12   14     -1.85      0.00
    2   12   15      4.18      0.00
    2   12   16     -2.06      0.00
    2   12   17      0.40      0.00
    2   12   18      1.13      0.00
    2   12   19      0.05      0.00
    2   12   20      0.07      0.00
    2   12   21      0.55      0.00
    2   12   22     -1.27      0.00
    2   12   23      0.57      0.00
   -2   13   24     -1.44      0.00
   -2   13   23     -1.01      0.00
   -2   13   22      1.32      0.00
   -2   13   21     -1.40      0.00
   -2   13   20      0.68      0.00
   -2   13   19     -0.64      0.00
   -2   13   18      1.44      0.00
   -2   13   17      0.60      0.00
   -2   13   16      3.70      0.00
   -2   13   15     -3.83      0.00
   -2   13   14      3.03      0.00
   -2   13   13     -0.96      0.00
   -2   13   12      2.88      0.00
   -2   13   11     -1.08      0.00
   -2   13   10     -1.37      0.00
   -2   13    9      4.97      0.00
   -2   13    8     -1.05      0.00
   -2   13    7      1.84      0.00
   -2   13    6     -4.31      0.00
   -2   13    5      4.46      0.00
   -2   13    4     -4.92      0.00
   -2   13    3      1.32      0.00
   -2   13    2     -9.56      0.00
   -2   13    1      2.71      0.00
    2   13    0      9.01      0.00
    2   13    1     -0.95      0.00
    2   13    2      8.36      0.00
    2   13    3     -5.87      0.00
    2   13    4      3.65      0.00
    2   13    5     -0.89      0.00
    2   13    6      4.12      0.00
    2   13    7     -3.09      0.00
    2   13    8     -1.11      0.00
    2   13    9     -0.92      0.00
    2   13   10      1.66      0.00
    2   13   11     -1.01      0.00
    2   13   12     -4.10      0.00
    2   13   13      1.18      0.00
    2   13   14     -2.83      0.00
    2   13   15      0.95      0.00
    2   13   16     -4.16      0.00
    2   13   17      0.79      0.00
    2   13   18     -0.03      0.00
    2   13   19      0.22      0.00
    2   13   20     -2.67      0.00
    2   13   21      2.00      0.00
    2   13   22      0.05      0.00
    2   13   23      0.44      0.00
   -2   14   23     -1.43      0.00
   -2   14   22      1.27      0.00
   -2   14   21      0.38      0.00
   -2   14   20      0.49      0.00
   -2   14   19      0.54      0.00
   -2   14   18     -0.71      0.00
   -2   14   17     -0.80      0.00
   -2   14   16      1.41      0.00
   -2   14   15     -1.36      0.00
   -2   14   14      1.29      0.00
   -2   14   13      0.36      0.00
   -2   14   12     -0.46      0.00
   -2   14   11     -0.27      0.00
   -2   14   10     -2.94      0.00
   -2   14    9      1.50      0.00
   -2   14    8     -2.43      0.00
   -2   14    7     -2.37      0.00
   -2   14    6     -2.35      0.00
   -2   14    5     -2.07      0.00
   -2   14    4     -3.19      0.00
   -2   14    3     -4.31      0.00
   -2   14    2     -0.73      0.00
   -2   14    1     -1.74      0.00
    2   14    0     -3.27      0.00
    2   14    1      3.27      0.00
    2   14    2      3.83      0.00
    2   14    3      1.46      0.00
    2   14    4     -0.46      0.00
    2   14    5     -0.24      0.00
    2   14    6      4.22      0.00
    2   14    7     -2.73      0.00
    2   14    8     -0.08      0.00
    2   14    9     -4.12      0.00
    2   14   10      4.33      0.00
    2   14   11     -2.74      0.00
    2   14   12      1.91      0.00
    2   14   13     -1.48      0.00
    2   14   14      3.90      0.00
    2   14   15      0.83      0.00
    2   14   16      0.93      0.00
    2   14   17      0.23      0.00
    2   14   18     -0.20      0.00
    2   14   19      0.53      0.00
    2   14   20     -2.70      0.00
    2   14   21     -0.97      0.00
    2   14   22     -2.63      0.00
    2   14   23      1.24      0.00
   -2   15   22      1.79      0.00
   -2   15   21      0.61      0.00
   -2   15   20     -1.03      0.00
   -2   15   19      0.13      0.00
   -2   15   18      1.32      0.00
   -2   15   17      0.68      0.00
   -2   15   16      2.11      0.00
   -2   15   15     -2.22      0.00
   -2   15   14     -0.54      0.00
   -2   15   13     -0.38      0.00
   -2   15   12      2.65      0.00
   -2   15   11     -0.27      0.00
   -2   15   10      0.18      0.00
   -2   15    9     -1.27      0.00
   -2   15    8      2.05      0.00
   -2   15    7     -1.78      0.00
   -2   15    6      1.86      0.00
   -2   15    5     -1.79      0.00
   -2   15    4      1.77      0.00
   -2   15    3      0.98      0.00
   -2   15    2      0.65      0.00
   -2   15    1      0.48      0.00
    2   15    0      0.00      0.00
    2   15    1      2.35      0.00
    2   15    2      0.17      0.00
    2   15    3      0.58      0.00
    2   15    4     -0.11      0.00
    2   15    5      4.89      0.00
    2   15    6      2.09      0.00
    2   15    7      0.42      0.00
    2   15    8      0.58      0.00
    2   15    9      1.84      0.00
    2   15   10      1.92      0.00
    2   15   11     -3.77      0.00
    2   15   12     -0.74      0.00
    2   15   13     -4.18      0.00
    2   15   14      1.59      0.00
    2   15   15     -4.43      0.00
    2   15   16     -1.95      0.00
    2   15   17     -1.36      0.00
    2   15   18     -0.09      0.00
    2   15   19      1.58      0.00
    2   15   20      0.04      0.00
    2   15   21      2.82      0.00
    2   15   22     -0.03      0.00
   -2   16   22     -1.36      0.00
   -2   16   21     -0.88      0.00
   -2   16   20     -0.32      0.00
   -2   16   19      0.01      0.00
   -2   16   18     -0.90      0.00
   -2   16   17     -2.75      0.00
   -2   16   16      0.28      0.00
   -2   16   15      1.30      0.00
   -2   16   14      0.93      0.00
   -2   16   13     -0.69      0.00
   -2   16   12      0.21      0.00
   -2   16   11     -0.65      0.00
   -2   16   10     -1.96      0.00
   -2   16    9     -1.02      0.00
   -2   16    8      0.14      0.00
   -2   16    7     -1.33      0.00
   -2   16    6      0.10      0.00
   -2   16    5      0.35      0.00
   -2   16    4     -1.68      0.00
   -2   16    3      1.89      0.00
   -2   16    2     -0.92      0.00
   -2   16    1      2.67      0.00
    2   16    0     -1.07      0.00
    2   16    1     -2.48      0.00
    2   16    2      2.02      0.00
    2   16    3     -3.14      0.00
    2   16    4     -0.86      0.00
    2   16    5     -1.22      0.00
    2   16    6      1.60      0.00
    2   16    7      0.25      0.00
    2   16    8      0.14      0.00
    2   16    9      1.42      0.00
    2   16   10      3.57      0.00
    2   16   11      1.92      0.00
    2   16   12      2.19      0.00
    2   16   13     -1.39      0.00
    2   16   14      4.22      0.00
    2   16   15      0.54      0.00
    2   16   16      2.40      0.00
    2   16   17      1.47      0.00
    2   16   18      0.87      0.00
    2   16   19      1.72      0.00
    2   16   20     -1.56      0.00
   -2   17   20     -1.28      0.00
   -2   17   19     -0.10      0.00
   -2   17   18      0.12      0.00
   -2   17   17      2.21      0.00
   -2   17   16      0.13      0.00
   -2   17   15     -0.20      0.00
   -2   17   14     -3.47      0.00
   -2   17   13     -2.01      0.00
   -2   17   12     -1.22      0.00
   -2   17   11      0.94      0.00
   -2   17   10     -1.86      0.00
   -2   17    9     -1.22      0.00
   -2   17    8      1.54      0.00
   -2   17    7     -0.83      0.00
   -2   17    6      4.01      0.00
   -2   17    5     -1.57      0.00
   -2   17    4      0.80      0.00
   -2   17    3      0.40      0.00
   -2   17    2      3.72      0.00
   -2   17    1     -1.05      0.00
    2   17    0     -3.71      0.00
    2   17    1     -0.67      0.00
    2   17    2     -2.00      0.00
    2   17    3     -2.09      0.00
    2   17    4     -0.61      0.00
    2   17    5      0.52      0.00
    2   17    6     -0.97      0.00
    2   17    7     -1.62      0.00
    2   17    8     -1.20      0.00
    2   17    9      1.80      0.00
    2   17   10     -0.01      0.00
    2   17   11     -0.46      0.00
    2   17   12      1.82      0.00
    2   17   13      2.19      0.00
    2   17   14      3.61      0.00
    2   17   15     -2.31      0.00
    2   17   16     -0.55      0.00
    2   17   17     -1.51      0.00
    2   17   18     -1.22      0.00
   -2   18   17     -2.16      0.00
   -2   18   16     -2.07      0.00
   -2   18   15     -0.29      0.00
   -2   18   14      1.33      0.00
   -2   18   13     -0.30      0.00
   -2   18   12      1.41      0.00
   -2   18   11      1.89      0.00
   -2   18   10      2.31      0.00
   -2   18    9     -0.89      0.00
   -2   18    8      4.67      0.00
   -2   18    7     -3.80      0.00
   -2   18    6      3.83      0.00
   -2   18    5     -0.81      0.00
   -2   18    4      2.58      0.00
   -2   18    3     -0.75      0.00
   -2   18    2      3.10      0.00
   -2   18    1     -0.84      0.00
    2   18    0      1.23      0.00
    2   18    1      0.49      0.00
    2   18    2     -0.04      0.00
    2   18    3     -1.85      0.00
    2   18    4     -1.86      0.00
    2   18    5     -1.96      0.00
    2   18    6     -2.52      0.00
    2   18    7      0.54      0.00
    2   18    8     -5.42      0.00
    2   18    9     -0.13      0.00
    2   18   10     -4.24      0.00
    2   18   11      0.27      0.00
    2   18   12     -6.65      0.00
    2   18   13     -2.40      0.00
    2   18   14     -1.46      0.00
    2   18   15     -0.37      0.00
    2   18   16      1.22      0.00
   -2   19   14      1.49      0.00
   -2   19   13     -0.81      0.00
   -2   19   12      0.59      0.00
   -2   19   11      0.41      0.00
   -2   19   10      0.23      0.00
   -2   19    9     -1.92      0.00
   -2   19    8      1.35      0.00
   -2   19    7     -1.00      0.00
   -2   19    6      0.79      0.00
   -2   19    5      1.65      0.00
   -2   19    4     -3.68      0.00
   -2   19    3     -0.42      0.00
   -2   19    2     -3.26      0.00
   -2   19    1     -0.99      0.00
    2   19    0      5.09      0.00
    2   19    1     -0.63      0.00
    2   19    2      6.71      0.00
    2   19    3     -1.76      0.00
    2   19    4      6.11      0.00
    2   19    5     -0.68      0.00
    2   19    6      2.47      0.00
    2   19    7     -0.44      0.00
    2   19    8      0.11      0.00
    2   19    9      3.25      0.00
    2   19   10     -2.54      0.00
    2   19   11      2.61      0.00
    2   19   12     -0.32      0.00
    2   19   13      5.71      0.00
   -2   20   11      1.37      0.00
   -2   20   10     -0.03      0.00
   -2   20    9      0.86      0.00
   -2   20    8     -0.63      0.00
   -2   20    7      0.18      0.00
   -2   20    6     -2.92      0.00
   -2   20    5      2.75      0.00
   -2   20    4     -2.02      0.00
   -2   20    3     -1.01      0.00
   -2   20    2     -2.30      0.00
   -2   20    1      0.40      0.00
    2   20    0     -0.58      0.00
    2   20    1     -1.33      0.00
    2   20    2      0.94      0.00
    2   20    3     -2.26      0.00
    2   20    4      3.41      0.00
    2   20    5     -2.90      0.00
    2   20    6      4.86      0.00
    2   20    7      0.85      0.00
    2   20    8      1.73      0.00
    2   20    9      0.68      0.00
    2   20   10      1.54      0.00
    2   20   11      0.71      0.00
    2   20   12     -3.17      0.00
   -2   21    9      0.86      0.00
   -2   21    8     -0.60      0.00
   -2   21    7     -0.78      0.00
   -2   21    6     -2.38      0.00
   -2   21    5      0.13      0.00
   -2   21    4     -0.01      0.00
   -2   21    3     -1.10      0.00
   -2   21    2      1.84      0.00
   -2   21    1      2.72      0.00
    2   21    0     -2.19      0.00
    2   21    1      2.32      0.00
    2   21    2     -1.22      0.00
    2   21    3     -0.09      0.00
    2   21    4     -0.16      0.00
    2   21    5     -1.27      0.00
    2   21    6     -0.84      0.00
    2   21    7     -1.77      0.00
    2   21    8     -0.46      0.00
    2   21    9      0.47      0.00
    2   21   10     -1.16      0.00
   -2   22    8     -1.16      0.00
   -2   22    7     -0.73      0.00
   -2   22    6      0.62      0.00
   -2   22    5      1.73      0.00
   -2   22    4      3.06      0.00
   -2   22    3      0.95      0.00
   -2   22    2     -1.55      0.00
   -2   22    1      1.95      0.00
    2   22    0     -1.59      0.00
    2   22    1     -1.52      0.00
    2   22    2     -1.15      0.00
    2   22    3     -0.34      0.00
    2   22    4     -0.10      0.00
    2   22    5     -0.69      0.00
    2   22    6      1.48      0.00
    2   22    7      1.20      0.00
    2   22    8     -1.01      0.00
    2   22    9      0.86      0.00
   -2   23    7     -0.50      0.00
   -2   23    6      0.22      0.00
   -2   23    5     -0.64      0.00
   -2   23    4      1.11      0.00
   -2   23    3     -0.68      0.00
   -2   23    2     -1.94      0.00
   -2   23    1      1.35      0.00
    2   23    0      1.40      0.00
    2   23    1     -0.51      0.00
    2   23    2      0.95      0.00
    2   23    3     -1.55      0.00
    2   23    4      0.35      0.00
    2   23    5     -1.34      0.00
    2   23    6     -0.67      0.00
    2   23    7     -1.50      0.00
    2   23    8     -0.50      0.00
   -2   24    2     -0.69      0.00
   -2   24    1     -1.09      0.00
   -3    0   26     -5.27      0.00
   -3    0   24     -1.38      0.00
   -3    0   22     -2.56      0.00
   -3    0   20      2.58      0.00
   -3    0   18      2.88      0.00
   -3    0   16      6.68      0.00
   -3    0   14     -2.21      0.00
   -3    0   12     11.46      0.00
   -3    0   10     -2.70      0.00
   -3    0    8     -0.21      0.00
   -3    0    6    -28.07      0.00
   -3    0    4    -18.41      0.00
   -3    0    2    -37.95      0.00
    3    0    0     -9.29      0.00
    3    0    2    -13.35      0.00
    3    0    4      2.38      0.00
    3    0    6     -6.43      0.00
    3    0    8      7.33      0.00
    3    0   10      5.32      0.00
    3    0   12      6.90      0.00
    3    0   14      3.39      0.00
    3    0   16      3.99      0.00
    3    0   18      0.57      0.00
    3    0   20      0.62      0.00
    3    0   22     -1.80      0.00
    3    0   24     -1.84      0.00
    3    0   26     -0.51      0.00
   -3    1   27      2.93      0.00
   -3    1   26     -0.64      0.00
   -3    1   25      1.31      0.00
   -3    1   24     -0.36      0.00
   -3    1   23      1.31      0.00
   -3    1   22     -1.13      0.00
   -3    1   21     -1.20      0.00
   -3    1   20     -0.50      0.00
   -3    1   19      1.46      0.00
   -3    1   18      0.71      0.00
   -3    1   17     -7.09      0.00
   -3    1   16     -3.56      0.00
   -3    1   15      8.06      0.00
   -3    1   14     -3.02      0.00
   -3    1   13    -11.12      0.00
   -3    1   12     -9.55      0.00
   -3    1   11      5.36      0.00
   -3    1   10    -12.04      0.00
   -3    1    9    -21.36      0.00
   -3    1    8    -19.59      0.00
   -3    1    7     16.75      0.00
   -3    1    6    -16.54      0.00
   -3    1    5    -23.50      0.00
   -3    1    4    -20.09      0.00
   -3    1    3     26.23      0.00
   -3    1    2     -3.35      0.00
   -3    1    1    -29.20      0.00
    3    1    0      0.40      0.00
    3    1    1     18.80      0.00
    3    1    2    -15.53      0.00
    3    1    3    -25.53      0.00
    3    1    4     -5.34      0.00
    3    1    5     22.40      0.00
    3    1    6    -13.82      0.00
    3    1    7     -8.73      0.00
    3    1    8    -10.41      0.00
    3    1    9     12.40      0.00
    3    1   10    -10.47      0.00
    3    1   11     -4.93      0.00
    3    1   12     -5.21      0.00
    3    1   13      7.66      0.00
    3    1   14     -3.04      0.00
    3    1   15     -2.18      0.00
    3    1   16      0.75      0.00
    3    1   17      2.12      0.00
    3    1   18      2.71      0.00
    3    1   19     -1.43      0.00
    3    1   20      3.38      0.00
    3    1   21      0.92      0.00
    3    1   22      1.04      0.00
    3    1   23      0.44      0.00
    3    1   24      0.37      0.00
    3    1   25      2.10      0.00
    3    1   26     -2.70      0.00
    3    1   27     -3.20      0.00
   -3    2   27      0.40      0.00
   -3    2   26     -2.31      0.00
   -3    2   25     -1.56      0.00
   -3    2   24      1.74      0.00
   -3    2   23      0.82      0.00
   -3    2   22     -1.48      0.00
   -3    2   21      0.78      0.00
   -3    2   20      0.53      0.00
   -3    2   19     -0.82      0.00
   -3    2   18     -2.47      0.00
   -3    2   17     -1.89      0.00
   -3    2   16     -0.95      0.00
   -3    2   15      1.55      0.00
   -3    2   14     -8.00      0.00
   -3    2   13     -4.61      0.00
   -3    2   12      3.47      0.00
   -3    2   11     -0.22      0.00
   -3    2   10     -0.94      0.00
   -3    2    9     -1.40      0.00
   -3    2    8     11.87      0.00
   -3    2    7      8.51      0.00
   -3    2    6      1.93      0.00
   -3    2    5     16.72      0.00
   -3    2    4     19.03      0.00
   -3    2    3     24.36      0.00
   -3    2    2      6.79      0.00
   -3    2    1     25.90      0.00
    3    2    0     27.30      0.00
    3    2    1    -18.50      0.00
    3    2    2      6.19      0.00
    3    2    3    -23.47      0.00
    3    2    4     10.70      0.00
    3    2    5    -15.15      0.00
    3    2    6     -7.37      0.00
    3    2    7     -7.53      0.00
    3    2    8      1.17      0.00
    3    2    9      5.04      0.00
    3    2   10     -6.20      0.00
    3    2   11      3.28      0.00
    3    2   12     -4.02      0.00
    3    2   13      6.79      0.00
    3    2   14     -7.33      0.00
    3    2   15      2.88      0.00
    3    2   16     -2.57      0.00
    3    2   17      2.25      0.00
    3    2   18     -2.05      0.00
    3    2   19     -0.98      0.00
    3    2   20      1.40      0.00
    3    2   21     -1.86      0.00
    3    2   22     -1.05      0.00
    3    2   23      0.10      0.00
    3    2   24     -0.67      0.00
    3    2   25      0.64      0.00
    3    2   26      0.72      0.00
   -3    3   26      1.52      0.00
   -3    3   25     -0.58      0.00
   -3    3   24      0.67      0.00
   -3    3   23      1.32      0.00
   -3    3   22     -0.64      0.00
   -3    3   21     -1.18      0.00
   -3    3   20     -0.20      0.00
   -3    3   19      3.50      0.00
   -3    3   18      3.82      0.00
   -3    3   17     -2.19      0.00
   -3    3   16     -4.40      0.00
   -3    3   15     10.91      0.00
   -3    3   14      4.52      0.00
   -3    3   13     -0.99      0.00
   -3    3   12      1.71      0.00
   -3    3   11     15.18      0.00
   -3    3   10     12.37      0.00
   -3    3    9     -3.23      0.00
   -3    3    8      1.50      0.00
   -3    3    7     27.68      0.00
   -3    3    6      4.27      0.00
   -3    3    5      0.61      0.00
   -3    3    4    -17.32      0.00
   -3    3    3     36.26      0.00
   -3    3    2     -1.13      0.00
   -3    3    1     -8.43      0.00
    3    3    0     21.51      0.00
    3    3    1     16.45      0.00
    3    3    2      2.18      0.00
    3    3    3    -16.51      0.00
    3    3    4     28.23      0.00
    3    3    5      5.84      0.00
    3    3    6      7.99      0.00
    3    3    7    -19.39      0.00
    3    3    8      9.52      0.00
    3    3    9     -5.58      0.00
    3    3   10     -1.27      0.00
    3    3   11    -13.65      0.00
    3    3   12      2.81      0.00
    3    3   13      2.23      0.00
    3    3   14     -1.19      0.00
    3    3   15     -2.22      0.00
    3    3   16     -0.93      0.00
    3    3   17      2.96      0.00
    3    3   18     -2.00      0.00
    3    3   19     -1.57      0.00
    3    3   20      1.13      0.00
    3    3   21      0.19      0.00
    3    3   22      0.17      0.00
    3    3   23      0.35      0.00
    3    3   24      1.25      0.00
    3    3   25      0.06      0.00
    3    3   26     -2.56      0.00
   -3    4   26     -0.77      0.00
   -3    4   25     -0.87      0.00
   -3    4   24      0.99      0.00
   -3    4   23      2.49      0.00
   -3    4   22     -1.38      0.00
   -3    4   21     -0.21      0.00
   -3    4   20      1.10      0.00
   -3    4   19      0.26      0.00
   -3    4   18     -2.06      0.00
   -3    4   17      1.91      0.00
   -3    4   16     -1.86      0.00
   -3    4   15      8.35      0.00
   -3    4   14     -4.75      0.00
   -3    4   13      1.27      0.00
   -3    4   12     -0.04      0.00
   -3    4   11      1.42      0.00
   -3    4   10     -3.31      0.00
   -3    4    9     -4.49      0.00
   -3    4    8     -0.21      0.00
   -3    4    7     -1.49      0.00
   -3    4    6     -8.71      0.00
   -3    4    5     -1.60      0.00
   -3    4    4     -4.34      0.00
   -3    4    3    -13.39      0.00
   -3    4    2    -17.65      0.00
   -3    4    1    -23.29      0.00
    3    4    0      2.64      0.00
    3    4    1     32.80      0.00
    3    4    2    -11.05      0.00
    3    4    3     17.73      0.00
    3    4    4      4.11      0.00
    3    4    5      9.59      0.00
    3    4    6     -5.48      0.00
    3    4    7      2.41      0.00
    3    4    8     12.13      0.00
    3    4    9      3.72      0.00
    3    4   10      4.10      0.00
    3    4   11     -5.85      0.00
    3    4   12      6.47      0.00
    3    4   13     -4.99      0.00
    3    4   14     -1.04      0.00
    3    4   15     -4.88      0.00
    3    4   16      2.43      0.00
    3    4   17      0.03      0.00
    3    4   18     -1.01      0.00
    3    4   19     -0.01      0.00
    3    4   20      1.24      0.00
    3    4   21     -1.87      0.00
    3    4   22      0.25      0.00
    3    4   23      0.60      0.00
    3    4   24      0.67      0.00
    3    4   25     -1.51      0.00
   -3    5   26      0.63      0.00
   -3    5   25      0.77      0.00
   -3    5   24     -2.71      0.00
   -3    5   23      2.39      0.00
   -3    5   22     -0.38      0.00
   -3    5   21     -1.67      0.00
   -3    5   20     -1.09      0.00
   -3    5   19      2.50      0.00
   -3    5   18      2.60      0.00
   -3    5   17     -1.28      0.00
   -3    5   16     -6.80      0.00
   -3    5   15      2.66      0.00
   -3    5   14      3.20      0.00
   -3    5   13     -8.05      0.00
   -3    5   12     -1.53      0.00
   -3    5   11     -4.62      0.00
   -3    5   10     10.35      0.00
   -3    5    9    -19.16      0.00
   -3    5    8      1.40      0.00
   -3    5    7     -7.44      0.00
   -3    5    6      8.96      0.00
   -3    5    5    -24.91      0.00
   -3    5    4     -7.17      0.00
   -3    5    3     -3.08      0.00
   -3    5    2     20.77      0.00
   -3    5    1    -15.48      0.00
    3    5    0    -12.73      0.00
    3    5    1     -0.12      0.00
    3    5    2    -29.86      0.00
    3    5    3      1.53      0.00
    3    5    4      1.96      0.00
    3    5    5     14.58      0.00
    3    5    6     -5.76      0.00
    3    5    7      6.38      0.00
    3    5    8      4.23      0.00
    3    5    9      7.81      0.00
    3    5   10     -0.86      0.00
    3    5   11      2.04      0.00
    3    5   12      6.80      0.00
    3    5   13      4.90      0.00
    3    5   14      1.69      0.00
    3    5   15     -2.47      0.00
    3    5   16      1.07      0.00
    3    5   17      1.27      0.00
    3    5   18     -1.77      0.00
    3    5   19     -0.73      0.00
    3    5   20      0.47      0.00
    3    5   21      0.91      0.00
    3    5   22     -1.58      0.00
    3    5   23      0.26      0.00
    3    5   24      0.46      0.00
    3    5   25     -0.73      0.00
   -3    6   26     -3.18      0.00
   -3    6   25     -0.61      0.00
   -3    6   24     -2.65      0.00
   -3    6   23      1.18      0.00
   -3    6   22     -0.61      0.00
   -3    6   21     -3.97      0.00
   -3    6   20      1.84      0.00
   -3    6   19     -1.84      0.00
   -3    6   18      1.08      0.00
   -3    6   17     -2.88      0.00
   -3    6   16      1.76      0.00
   -3    6   15     -0.88      0.00
   -3    6   14      2.47      0.00
   -3    6   13     -5.09      0.00
   -3    6   12      4.45      0.00
   -3    6   11     -1.90      0.00
   -3    6   10      4.51      0.00
   -3    6    9     -1.25      0.00
   -3    6    8      4.92      0.00
   -3    6    7      1.27      0.00
   -3    6    6     -1.03      0.00
   -3    6    5     12.53      0.00
   -3    6    4      1.53      0.00
   -3    6    3     11.83      0.00
   -3    6    2     -8.50      0.00
   -3    6    1      5.20      0.00
    3    6    0      6.80      0.00
    3    6    1      4.65      0.00
    3    6    2    -10.36      0.00
    3    6    3     -5.16      0.00
    3    6    4     -2.79      0.00
    3    6    5     -9.64      0.00
    3    6    6    -13.27      0.00
    3    6    7     -6.44      0.00
    3    6    8      2.45      0.00
    3    6    9     -1.88      0.00
    3    6   10     -4.86      0.00
    3    6   11     -1.57      0.00
    3    6   12      2.85      0.00
    3    6   13     -0.29      0.00
    3    6   14     -0.45      0.00
    3    6   15      0.82      0.00
    3    6   16      3.41      0.00
    3    6   17      0.67      0.00
    3    6   18     -0.71      0.00
    3    6   19      0.26      0.00
    3    6   20     -0.01      0.00
    3    6   21      0.46      0.00
    3    6   22      0.35      0.00
    3    6   23      2.50      0.00
    3    6   24     -2.53      0.00
    3    6   25     -0.30      0.00
   -3    7   26      1.68      0.00
   -3    7   25      1.34      0.00
   -3    7   24      0.49      0.00
   -3    7   23      1.07      0.00
   -3    7   22      5.55      0.00
   -3    7   21     -3.61      0.00
   -3    7   20      2.94      0.00
   -3    7   19     -0.80      0.00
   -3    7   18      4.25      0.00
   -3    7   17     -2.38      0.00
   -3    7   16     -3.02      0.00
   -3    7   15      1.18      0.00
   -3    7   14      0.30      0.00
   -3    7   13      1.95      0.00
   -3    7   12     -8.31      0.00
   -3    7   11      6.26      0.00
   -3    7   10     -8.62      0.00
   -3    7    9      2.68      0.00
   -3    7    8    -16.75      0.00
   -3    7    7      8.74      0.00
   -3    7    6     -9.63      0.00
   -3    7    5      6.30      0.00
   -3    7    4    -20.56      0.00
   -3    7    3      9.31      0.00
   -3    7    2     -1.76      0.00
   -3    7    1      1.55      0.00
    3    7    0     -3.14      0.00
    3    7    1     -2.88      0.00
    3    7    2    -12.16      0.00
    3    7    3      5.00      0.00
    3    7    4      0.43      0.00
    3    7    5      0.33      0.00
    3    7    6     -6.14      0.00
    3    7    7      0.45      0.00
    3    7    8     -3.21      0.00
    3    7    9     -1.99      0.00
    3    7   10     -5.40      0.00
    3    7   11     -0.11      0.00
    3    7   12     -0.49      0.00
    3    7   13     -0.06      0.00
    3    7   14     -0.81      0.00
    3    7   15     -1.86      0.00
    3    7   16      1.30      0.00
    3    7   17      0.41      0.00
    3    7   18      0.43      0.00
    3    7   19     -2.01      0.00
    3    7   20      1.84      0.00
    3    7   21     -1.68      0.00
    3    7   22     -1.31      0.00
    3    7   23      0.14      0.00
    3    7   24     -0.34      0.00
    3    7   25      0.91      0.00
   -3    8   25     -1.50      0.00
   -3    8   24      0.05      0.00
   -3    8   23     -1.65      0.00
   -3    8   22      1.77      0.00
   -3    8   21     -4.46      0.00
   -3    8   20      0.02      0.00
   -3    8   19     -1.02      0.00
   -3    8   18     -0.33      0.00
   -3    8   17     -0.38      0.00
   -3    8   16     -2.05      0.00
   -3    8   15      2.55      0.00
   -3    8   14     -1.64      0.00
   -3    8   13      2.65      0.00
   -3    8   12     -3.78      0.00
   -3    8   11      6.37      0.00
   -3    8   10     -2.31      0.00
   -3    8    9      8.92      0.00
   -3    8    8      3.41      0.00
   -3    8    7      5.88      0.00
   -3    8    6      3.64      0.00
   -3    8    5      7.04      0.00
   -3    8    4      9.95      0.00
   -3    8    3      4.84      0.00
   -3    8    2      6.89      0.00
   -3    8    1     -3.26      0.00
    3    8    0     19.18      0.00
    3    8    1      6.69      0.00
    3    8    2      3.52      0.00
    3    8    3      2.43      0.00
    3    8    4      9.67      0.00
    3    8    5      1.24      0.00
    3    8    6     -2.28      0.00
    3    8    7      6.12      0.00
    3    8    8      0.96      0.00
    3    8    9      4.53      0.00
    3    8   10     -9.28      0.00
    3    8   11      5.54      0.00
    3    8   12     -3.86      0.00
    3    8   13      1.19      0.00
    3    8   14     -5.33      0.00
    3    8   15      1.58      0.00
    3    8   16     -0.73      0.00
    3    8   17      0.74      0.00
    3    8   18     -0.17      0.00
    3    8   19     -1.10      0.00
    3    8   20      0.92      0.00
    3    8   21      0.13      0.00
    3    8   22      1.51      0.00
    3    8   23     -1.86      0.00
    3    8   24     -2.36      0.00
   -3    9   25     -1.30      0.00
   -3    9   24     -1.41      0.00
   -3    9   23      0.99      0.00
   -3    9   22      0.54      0.00
   -3    9   21     -1.61      0.00
   -3    9   20     -1.55      0.00
   -3    9   19      1.48      0.00
   -3    9   18      0.94      0.00
   -3    9   17      0.55      0.00
   -3    9   16     -0.01      0.00
   -3    9   15      1.53      0.00
   -3    9   14      2.61      0.00
   -3    9   13     -0.43      0.00
   -3    9   12      2.76      0.00
   -3    9   11      2.13      0.00
   -3    9   10      2.48      0.00
   -3    9    9     -0.15      0.00
   -3    9    8      2.89      0.00
   -3    9    7     -2.15      0.00
   -3    9    6      5.60      0.00
   -3    9    5     -0.53      0.00
   -3    9    4     -0.43      0.00
   -3    9    3     -2.59      0.00
   -3    9    2     -2.48      0.00
   -3    9    1     -3.66      0.00
    3    9    0      0.08      0.00
    3    9    1     -7.71      0.00
    3    9    2      9.36      0.00
    3    9    3     -3.58      0.00
    3    9    4      8.74      0.00
    3    9    5    -10.69      0.00
    3    9    6      8.68      0.00
    3    9    7     -2.97      0.00
    3    9    8      1.89      0.00
    3    9    9     -1.38      0.00
    3    9   10     -0.09      0.00
    3    9   11      2.44      0.00
    3    9   12     -1.76      0.00
    3    9   13      2.14      0.00
    3    9   14     -1.14      0.00
    3    9   15      1.20      0.00
    3    9   16     -2.12      0.00
    3    9   17      0.95      0.00
    3    9   18     -1.40      0.00
    3    9   19      0.40      0.00
    3    9   20      1.00      0.00
    3    9   21     -0.09      0.00
    3    9   22      0.48      0.00
    3    9   23      1.72      0.00
    3    9   24      1.83      0.00
   -3   10   25      0.80      0.00
   -3   10   24     -1.58      0.00
   -3   10   23      2.66      0.00
   -3   10   22      1.01      0.00
   -3   10   21      2.45      0.00
   -3   10   20      1.00      0.00
   -3   10   19      2.44      0.00
   -3   10   18      1.42      0.00
   -3   10   17      2.76      0.00
   -3   10   16     -1.13      0.00
   -3   10   15      1.02      0.00
   -3   10   14      1.24      0.00
   -3   10   13      0.13      0.00
   -3   10   12     -0.22      0.00
   -3   10   11     -0.30      0.00
   -3   10   10     -1.66      0.00
   -3   10    9     -1.44      0.00
   -3   10    8     -1.42      0.00
   -3   10    7     -4.85      0.00
   -3   10    6     -7.36      0.00
   -3   10    5     -6.65      0.00
   -3   10    4     -9.15      0.00
   -3   10    3     -2.45      0.00
   -3   10    2    -12.81      0.00
   -3   10    1     -8.12      0.00
    3   10    0     -4.30      0.00
    3   10    1      3.74      0.00
    3   10    2     -8.70      0.00
    3   10    3      2.31      0.00
    3   10    4      5.84      0.00
    3   10    5     -2.73      0.00
    3   10    6      3.84      0.00
    3   10    7      0.55      0.00
    3   10    8      8.58      0.00
    3   10    9     -2.35      0.00
    3   10   10      3.71      0.00
    3   10   11     -1.04      0.00
    3   10   12      5.95      0.00
    3   10   13     -4.26      0.00
    3   10   14      1.74      0.00
    3   10   15     -1.46      0.00
    3   10   16      1.66      0.00
    3   10   17      1.08      0.00
    3   10   18      0.00      0.00
    3   10   19     -2.17      0.00
    3   10   20      0.50      0.00
    3   10   21      1.23      0.00
    3   10   22      0.64      0.00
    3   10   23     -3.20      0.00
   -3   11   24     -1.58      0.00
   -3   11   23      2.04      0.00
   -3   11   22     -0.09      0.00
   -3   11   21     -1.79      0.00
   -3   11   20     -1.19      0.00
   -3   11   19     -0.14      0.00
   -3   11   18     -2.31      0.00
   -3   11   17     -0.22      0.00
   -3   11   16     -2.88      0.00
   -3   11   15     -0.45      0.00
   -3   11   14     -2.29      0.00
   -3   11   13     -5.20      0.00
   -3   11   12     -0.52      0.00
   -3   11   11     -4.50      0.00
   -3   11   10     -2.77      0.00
   -3   11    9     -7.55      0.00
   -3   11    8      1.88      0.00
   -3   11    7     -5.31      0.00
   -3   11    6      0.53      0.00
   -3   11    5      0.57      0.00
   -3   11    4      5.91      0.00
   -3   11    3      3.85      0.00
   -3   11    2      2.53      0.00
   -3   11    1      2.17      0.00
    3   11    0    -14.52      0.00
    3   11    1      5.78      0.00
    3   11    2     -5.18      0.00
    3   11    3      4.17      0.00
    3   11    4    -11.88      0.00
    3   11    5      2.29      0.00
    3   11    6     -3.45      0.00
    3   11    7      2.65      0.00
    3   11    8     -7.16      0.00
    3   11    9      2.79      0.00
    3   11   10      0.87      0.00
    3   11   11     -0.11      0.00
    3   11   12      2.10      0.00
    3   11   13     -1.47      0.00
    3   11   14      4.44      0.00
    3   11   15     -1.83      0.00
    3   11   16      0.75      0.00
    3   11   17     -1.01      0.00
    3   11   18      0.89      0.00
    3   11   19     -0.13      0.00
    3   11   20      0.90      0.00
    3   11   21     -2.03      0.00
    3   11   22      0.60      0.00
    3   11   23     -0.97      0.00
   -3   12   24     -1.13      0.00
   -3   12   23     -0.77      0.00
   -3   12   22      0.51      0.00
   -3   12   21     -1.22      0.00
   -3   12   20     -0.22      0.00
   -3   12   19     -2.53      0.00
   -3   12   18     -0.49      0.00
   -3   12   17     -0.30      0.00
   -3   12   16      0.83      0.00
   -3   12   15     -3.61      0.00
   -3   12   14      4.16      0.00
   -3   12   13     -2.71      0.00
   -3   12   12      5.90      0.00
   -3   12   11     -2.10      0.00
   -3   12   10      6.38      0.00
   -3   12    9     -1.37      0.00
   -3   12    8      8.65      0.00
   -3   12    7      2.75      0.00
   -3   12    6      4.27      0.00
   -3   12    5      1.32      0.00
   -3   12    4      1.98      0.00
   -3   12    3      6.28      0.00
   -3   12    2      0.81      0.00
   -3   12    1      0.08      0.00
    3   12    0      2.23      0.00
    3   12    1     -4.23      0.00
    3   12    2     -4.21      0.00
    3   12    3     -0.47      0.00
    3   12    4     -1.35      0.00
    3   12    5     -2.26      0.00
    3   12    6     -6.17      0.00
    3   12    7      3.24      0.00
    3   12    8     -5.71      0.00
    3   12    9      1.02      0.00
    3   12   10     -6.64      0.00
    3   12   11      2.37      0.00
    3   12   12     -0.94      0.00
    3   12   13     -0.28      0.00
    3   12   14     -0.85      0.00
    3   12   15     -0.62      0.00
    3   12   16      1.33      0.00
    3   12   17      1.25      0.00
    3   12   18     -0.45      0.00
    3   12   19     -1.89      0.00
    3   12   20      1.59      0.00
    3   12   21      1.82      0.00
    3   12   22      1.50      0.00
    3   12   23     -0.91      0.00
   -3   13   24     -1.43      0.00
   -3   13   23     -0.44      0.00
   -3   13   22     -0.59      0.00
   -3   13   21     -0.17      0.00
   -3   13   20      1.74      0.00
   -3   13   19      0.53      0.00
   -3   13   18      1.16      0.00
   -3   13   17     -0.04      0.00
   -3   13   16      3.56      0.00
   -3   13   15     -0.78      0.00
   -3   13   14      1.38      0.00
   -3   13   13     -1.34      0.00
   -3   13   12      1.46      0.00
   -3   13   11      2.76      0.00
   -3   13   10     -1.73      0.00
   -3   13    9      0.39      0.00
   -3   13    8      0.16      0.00
   -3   13    7      3.51      0.00
   -3   13    6     -6.87      0.00
   -3   13    5      1.64      0.00
   -3   13    4     -2.11      0.00
   -3   13    3      6.24      0.00
   -3   13    2     -7.94      0.00
   -3   13    1     -1.17      0.00
    3   13    0      1.03      0.00
    3   13    1      5.27      0.00
    3   13    2      8.24      0.00
    3   13    3     -1.37      0.00
    3   13    4      1.32      0.00
    3   13    5      1.71      0.00
    3   13    6      3.75      0.00
    3   13    7     -1.64      0.00
    3   13    8     -2.98      0.00
    3   13    9      1.78      0.00
    3   13   10     -0.05      0.00
    3   13   11     -2.05      0.00
    3   13   12     -3.56      0.00
    3   13   13     -0.41      0.00
    3   13   14      0.00      0.00
    3   13   15     -0.79      0.00
    3   13   16     -1.03      0.00
    3   13   17     -1.08      0.00
    3   13   18      0.33      0.00
    3   13   19     -0.49      0.00
    3   13   20     -0.29      0.00
    3   13   21     -1.71      0.00
    3   13   22     -1.49      0.00
    3   13   23     -1.23      0.00
   -3   14   23      1.97      0.00
   -3   14   22     -0.46      0.00
   -3   14   21      2.17      0.00
   -3   14   20     -0.77      0.00
   -3   14   19     -1.22      0.00
   -3   14   18     -1.72      0.00
   -3   14   17      0.91      0.00
   -3   14   16     -1.84      0.00
   -3   14   15     -0.23      0.00
   -3   14   14     -2.76      0.00
   -3   14   13      3.23      0.00
   -3   14   12     -2.44      0.00
   -3   14   11      4.30      0.00
   -3   14   10     -4.41      0.00
   -3   14    9     -0.37      0.00
   -3   14    8     -1.93      0.00
   -3   14    7      3.06      0.00
   -3   14    6     -1.12      0.00
   -3   14    5     -1.13      0.00
   -3   14    4     -0.43      0.00
   -3   14    3      1.31      0.00
   -3   14    2      0.89      0.00
   -3   14    1     -4.18      0.00
    3   14    0      2.28      0.00
    3   14    1      1.22      0.00
    3   14    2      0.53      0.00
    3   14    3      2.69      0.00
    3   14    4      2.83      0.00
    3   14    5      1.06      0.00
    3   14    6      1.80      0.00
    3   14    7      4.20      0.00
    3   14    8      1.07      0.00
    3   14    9      1.03      0.00
    3   14   10      1.73      0.00
    3   14   11      2.70      0.00
    3   14   12      2.59      0.00
    3   14   13      0.64      0.00
    3   14   14      0.06      0.00
    3   14   15      0.20      0.00
    3   14   16      1.87      0.00
    3   14   17      0.02      0.00
    3   14   18      0.00      0.00
    3   14   19     -1.43      0.00
    3   14   20     -0.43      0.00
    3   14   21     -0.23      0.00
    3   14   22      0.12      0.00
   -3   15   22     -2.19      0.00
   -3   15   21      0.46      0.00
   -3   15   20      1.87      0.00
   -3   15   19      0.05      0.00
   -3   15   18     -1.11      0.00
   -3   15   17      2.52      0.00
   -3   15   16      2.32      0.00
   -3   15   15      3.18      0.00
   -3   15   14      0.16      0.00
   -3   15   13      0.64      0.00
   -3   15   12     -0.53      0.00
   -3   15   11      2.10      0.00
   -3   15   10      0.53      0.00
   -3   15    9     -1.25      0.00
   -3   15    8      4.20      0.00
   -3   15    7      0.45      0.00
   -3   15    6      1.48      0.00
   -3   15    5     -5.53      0.00
   -3   15    4      2.99      0.00
   -3   15    3     -1.64      0.00
   -3   15    2      1.51      0.00
   -3   15    1     -8.89      0.00
    3   15    0     -2.98      0.00
    3   15    1     -1.97      0.00
    3   15    2      1.61      0.00
    3   15    3     -4.87      0.00
    3   15    4      0.68      0.00
    3   15    5     -0.08      0.00
    3   15    6      1.70      0.00
    3   15    7     -2.01      0.00
    3   15    8     -2.02      0.00
    3   15    9      1.37      0.00
    3   15   10      1.10      0.00
    3   15   11     -3.42      0.00
    3   15   12     -1.78      0.00
    3   15   13     -0.32      0.00
    3   15   14      1.01      0.00
    3   15   15     -1.53      0.00
    3   15   16     -0.61      0.00
    3   15   17     -1.23      0.00
    3   15   18      0.51      0.00
    3   15   19      1.46      0.00
    3   15   20      1.20      0.00
    3   15   21      1.89      0.00
   -3   16   21     -0.21      0.00
   -3   16   20      1.97      0.00
   -3   16   19     -1.29      0.00
   -3   16   18      0.75      0.00
   -3   16   17      0.77      0.00
   -3   16   16     -0.71      0.00
   -3   16   15     -3.98      0.00
   -3   16   14     -0.41      0.00
   -3   16   13     -1.93      0.00
   -3   16   12      0.22      0.00
   -3   16   11      1.42      0.00
   -3   16   10     -1.32      0.00
   -3   16    9     -4.80      0.00
   -3   16    8     -1.42      0.00
   -3   16    7     -1.94      0.00
   -3   16    6     -1.10      0.00
   -3   16    5     -3.61      0.00
   -3   16    4     -1.70      0.00
   -3   16    3     -1.02      0.00
   -3   16    2     -0.51      0.00
   -3   16    1     -2.14      0.00
    3   16    0      0.05      0.00
    3   16    1     -2.59      0.00
    3   16    2     -2.00      0.00
    3   16    3     -3.05      0.00
    3   16    4      0.01      0.00
    3   16    5     -3.29      0.00
    3   16    6      1.78      0.00
    3   16    7      0.02      0.00
    3   16    8      1.30      0.00
    3   16    9     -1.52      0.00
    3   16   10      4.26      0.00
    3   16   11     -0.85      0.00
    3   16   12      2.76      0.00
    3   16   13     -3.16      0.00
    3   16   14      2.56      0.00
    3   16   15     -0.53      0.00
    3   16   16      2.69      0.00
    3   16   17     -0.04      0.00
    3   16   18      2.40      0.00
    3   16   19      1.35      0.00
   -3   17   19     -1.29      0.00
   -3   17   18     -3.28      0.00
   -3   17   17     -0.59      0.00
   -3   17   16      1.18      0.00
   -3   17   15      0.47      0.00
   -3   17   14      1.22      0.00
   -3   17   13     -0.59      0.00
   -3   17   12     -4.21      0.00
   -3   17   11      1.01      0.00
   -3   17   10     -1.81      0.00
   -3   17    9     -0.53      0.00
   -3   17    8      0.03      0.00
   -3   17    7      1.37      0.00
   -3   17    6      1.23      0.00
   -3   17    5      0.26      0.00
   -3   17    4      0.70      0.00
   -3   17    3      3.37      0.00
   -3   17    2      3.68      0.00
   -3   17    1      2.20      0.00
    3   17    0     -2.60      0.00
    3   17    1      4.99      0.00
    3   17    2     -1.66      0.00
    3   17    3      1.70      0.00
    3   17    4     -4.50      0.00
    3   17    5      1.52      0.00
    3   17    6     -3.05      0.00
    3   17    7     -1.04      0.00
    3   17    8     -3.85      0.00
    3   17    9      1.54      0.00
    3   17   10      1.45      0.00
    3   17   11     -2.07      0.00
    3   17   12      2.08      0.00
    3   17   13      0.68      0.00
    3   17   14      3.89      0.00
    3   17   15     -2.78      0.00
    3   17   16      0.51      0.00
    3   17   17     -3.77      0.00
   -3   18   17      1.88      0.00
   -3   18   16     -0.99      0.00
   -3   18   15     -2.39      0.00
   -3   18   14     -0.80      0.00
   -3   18   13      1.23      0.00
   -3   18   12     -0.13      0.00
   -3   18   11      4.55      0.00
   -3   18   10      1.95      0.00
   -3   18    9     -0.57      0.00
   -3   18    8      2.15      0.00
   -3   18    7      0.46      0.00
   -3   18    6      3.08      0.00
   -3   18    5      0.70      0.00
   -3   18    4      3.63      0.00
   -3   18    3      0.39      0.00
   -3   18    2      1.87      0.00
   -3   18    1     -0.79      0.00
    3   18    0      0.22      0.00
    3   18    1      0.05      0.00
    3   18    2      0.13      0.00
    3   18    3      3.87      0.00
    3   18    4     -0.29      0.00
    3   18    5      3.21      0.00
    3   18    6     -2.05      0.00
    3   18    7      2.87      0.00
    3   18    8     -5.47      0.00
    3   18    9      1.09      0.00
    3   18   10     -3.03      0.00
    3   18   11      0.13      0.00
    3   18   12     -4.84      0.00
    3   18   13     -2.20      0.00
    3   18   14     -0.30      0.00
   -3   19   15      1.26      0.00
   -3   19   14      2.89      0.00
   -3   19   13      0.31      0.00
   -3   19   12     -2.17      0.00
   -3   19   11     -1.27      0.00
   -3   19   10      1.03      0.00
   -3   19    9     -0.83      0.00
   -3   19    8     -0.06      0.00
   -3   19    7     -1.05      0.00
   -3   19    6      1.67      0.00
   -3   19    5     -1.57      0.00
   -3   19    4     -2.62      0.00
   -3   19    3     -2.39      0.00
   -3   19    2     -2.69      0.00
   -3   19    1      0.25      0.00
    3   19    0      4.69      0.00
    3   19    1      0.01      0.00
    3   19    2      3.51      0.00
    3   19    3     -2.27      0.00
    3   19    4     -0.36      0.00
    3   19    5      1.55      0.00
    3   19    6      1.74      0.00
    3   19    7      0.69      0.00
    3   19    8     -0.98      0.00
    3   19    9      2.17      0.00
    3   19   10     -0.33      0.00
    3   19   11      0.19      0.00
    3   19   12     -0.43      0.00
   -3   20   12     -0.30      0.00
   -3   20   11      1.00      0.00
   -3   20   10      0.23      0.00
   -3   20    9      0.44      0.00
   -3   20    8     -0.85      0.00
   -3   20    7     -0.64      0.00
   -3   20    6     -1.49      0.00
   -3   20    5     -0.40      0.00
   -3   20    4     -0.31      0.00
   -3   20    3      0.54      0.00
   -3   20    2     -4.11      0.00
   -3   20    1      2.27      0.00
    3   20    0     -3.69      0.00
    3   20    1     -3.28      0.00
    3   20    2      1.44      0.00
    3   20    3      0.17      0.00
    3   20    4      1.32      0.00
    3   20    5      1.19      0.00
    3   20    6      1.70      0.00
    3   20    7      2.22      0.00
    3   20    8      2.01      0.00
    3   20    9      2.46      0.00
    3   20   10      3.30      0.00
   -3   21    9      1.83      0.00
   -3   21    8     -1.33      0.00
   -3   21    7     -0.67      0.00
   -3   21    6      2.20      0.00
   -3   21    5      0.53      0.00
   -3   21    4      0.24      0.00
   -3   21    3      1.25      0.00
   -3   21    2      2.36      0.00
   -3   21    1      5.25      0.00
    3   21    0     -0.75      0.00
    3   21    1      1.29      0.00
    3   21    2     -0.14      0.00
    3   21    3     -4.44      0.00
    3   21    4     -2.11      0.00
    3   21    5     -1.35      0.00
    3   21    6     -2.12      0.00
    3   21    7     -2.07      0.00
    3   21    8     -3.11      0.00
   -3   22    8     -0.33      0.00
   -3   22    7     -1.84      0.00
   -3   22    6      0.18      0.00
   -3   22    5     -1.37      0.00
   -3   22    4      2.27      0.00
   -3   22    3     -0.71      0.00
   -3   22    2     -2.93      0.00
   -3   22    1     -2.41      0.00
    3   22    0     -4.10      0.00
    3   22    1      0.76      0.00
    3   22    2      1.32      0.00
    3   22    3     -0.62      0.00
    3   22    4      1.95      0.00
    3   22    5     -0.19      0.00
   -3   23    6      3.51      0.00
   -3   23    5     -0.84      0.00
   -3   23    4     -0.28      0.00
   -3   23    3     -2.42      0.00
   -4    0   26      1.16      0.00
   -4    0   24      0.79      0.00
   -4    0   22     -1.75      0.00
   -4    0   20      2.04      0.00
   -4    0   18      0.46      0.00
   -4    0   16      6.80      0.00
   -4    0   14      0.83      0.00
   -4    0   12      9.11      0.00
   -4    0   10      0.93      0.00
   -4    0    8      2.97      0.00
   -4    0    6     -5.59      0.00
   -4    0    4     -4.79      0.00
   -4    0    2    -24.54      0.00
    4    0    0    -42.06      0.00
    4    0    2    -31.71      0.00
    4    0    4     -3.08      0.00
    4    0    6      9.16      0.00
    4    0    8      2.11      0.00
    4    0   10      1.38      0.00
    4    0   12      7.67      0.00
    4    0   14      2.83      0.00
    4    0   16      1.44      0.00
    4    0   18     -0.09      0.00
    4    0   20      1.80      0.00
    4    0   22      1.77      0.00
    4    0   24      0.69      0.00
    4    0   26     -1.17      0.00
   -4    1   27     -2.01      0.00
   -4    1   26     -1.16      0.00
   -4    1   25     -1.89      0.00
   -4    1   24      0.14      0.00
   -4    1   23     -0.76      0.00
   -4    1   22     -0.75      0.00
   -4    1   21      0.93      0.00
   -4    1   20      0.02      0.00
   -4    1   19     -0.10      0.00
   -4    1   18     -0.22      0.00
   -4    1   17     -1.19      0.00
   -4    1   16     -1.61      0.00
   -4    1   15      1.19      0.00
   -4    1   14     -4.55      0.00
   -4    1   13     -0.61      0.00
   -4    1   12    -12.03      0.00
   -4    1   11     -0.80      0.00
   -4    1   10    -16.15      0.00
   -4    1    9     -1.41      0.00
   -4    1    8    -23.97      0.00
   -4    1    7     -3.32      0.00
   -4    1    6    -18.58      0.00
   -4    1    5    -10.29      0.00
   -4    1    4    -21.99      0.00
   -4    1    3     -9.83      0.00
   -4    1    2    -10.66      0.00
   -4    1    1      6.78      0.00
    4    1    0      9.42      0.00
    4    1    1     16.39      0.00
    4    1    2     -5.21      0.00
    4    1    3      1.06      0.00
    4    1    4     -5.98      0.00
    4    1    5    -15.07      0.00
    4    1    6    -12.16      0.00
    4    1    7     -3.41      0.00
    4    1    8    -10.38      0.00
    4    1    9      2.15      0.00
    4    1   10    -11.09      0.00
    4    1   11      2.68      0.00
    4    1   12     -5.32      0.00
    4    1   13     -1.90      0.00
    4    1   14     -0.44      0.00
    4    1   15      3.06      0.00
    4    1   16      1.29      0.00
    4    1   17      0.79      0.00
    4    1   18      2.86      0.00
    4    1   19      0.50      0.00
    4    1   20      2.32      0.00
    4    1   21     -1.43      0.00
    4    1   22      0.72      0.00
    4    1   23     -1.25      0.00
    4    1   24      0.15      0.00
    4    1   25      0.12      0.00
    4    1   26     -0.85      0.00
    4    1   27      1.11      0.00
   -4    2   27      0.35      0.00
   -4    2   26      3.34      0.00
   -4    2   25     -1.61      0.00
   -4    2   24      2.57      0.00
   -4    2   23      0.21      0.00
   -4    2   22     -1.30      0.00
   -4    2   21     -0.47      0.00
   -4    2   20      0.03      0.00
   -4    2   19      0.59      0.00
   -4    2   18     -3.22      0.00
   -4    2   17     -2.39      0.00
   -4    2   16     -0.76      0.00
   -4    2   15     -0.16      0.00
   -4    2   14     -7.44      0.00
   -4    2   13      0.40      0.00
   -4    2   12      0.39      0.00
   -4    2   11      2.74      0.00
   -4    2   10     -4.18      0.00
   -4    2    9      7.35      0.00
   -4    2    8      5.91      0.00
   -4    2    7      1.77      0.00
   -4    2    6      7.57      0.00
   -4    2    5      5.80      0.00
   -4    2    4     26.03      0.00
   -4    2    3      3.25      0.00
   -4    2    2     19.00      0.00
   -4    2    1     18.10      0.00
    4    2    0      7.09      0.00
    4    2    1     -7.53      0.00
    4    2    2      3.23      0.00
    4    2    3    -16.15      0.00
    4    2    4     17.54      0.00
    4    2    5     -3.97      0.00
    4    2    6     10.37      0.00
    4    2    7     -7.15      0.00
    4    2    8     -1.80      0.00
    4    2    9      5.34      0.00
    4    2   10     -8.24      0.00
    4    2   11      3.86      0.00
    4    2   12     -2.25      0.00
    4    2   13      1.47      0.00
    4    2   14     -4.21      0.00
    4    2   15     -0.62      0.00
    4    2   16     -2.11      0.00
    4    2   17      0.16      0.00
    4    2   18     -1.83      0.00
    4    2   19     -2.31      0.00
    4    2   20      1.13      0.00
    4    2   21     -0.80      0.00
    4    2   22     -0.28      0.00
    4    2   23     -0.17      0.00
    4    2   24      0.72      0.00
    4    2   25      0.39      0.00
    4    2   26     -0.36      0.00
    4    2   27      0.81      0.00
   -4    3   26      0.69      0.00
   -4    3   25     -2.29      0.00
   -4    3   24      0.75      0.00
   -4    3   23      0.02      0.00
   -4    3   22     -1.12      0.00
   -4    3   21      0.68      0.00
   -4    3   20      0.54      0.00
   -4    3   19     -0.49      0.00
   -4    3   18      1.56      0.00
   -4    3   17     -0.09      0.00
   -4    3   16      2.70      0.00
   -4    3   15      1.67      0.00
   -4    3   14      6.78      0.00
   -4    3   13      1.64      0.00
   -4    3   12      3.86      0.00
   -4    3   11     -0.63      0.00
   -4    3   10      7.67      0.00
   -4    3    9      3.29      0.00
   -4    3    8      0.18      0.00
   -4    3    7      0.00      0.00
   -4    3    6     14.81      0.00
   -4    3    5      2.99      0.00
   -4    3    4      0.44      0.00
   -4    3    3     -7.77      0.00
   -4    3    2      3.70      0.00
   -4    3    1      9.56      0.00
    4    3    0     17.94      0.00
    4    3    1     10.21      0.00
    4    3    2      3.28      0.00
    4    3    3      5.25      0.00
    4    3    4     16.75      0.00
    4    3    5    -10.33      0.00
    4    3    6      6.78      0.00
    4    3    7     -0.36      0.00
    4    3    8      5.65      0.00
    4    3    9      0.55      0.00
    4    3   10     -5.31      0.00
    4    3   11      2.31      0.00
    4    3   12     -1.06      0.00
    4    3   13     -3.19      0.00
    4    3   14      0.52      0.00
    4    3   15     -0.01      0.00
    4    3   16     -0.74      0.00
    4    3   17     -0.25      0.00
    4    3   18      1.11      0.00
    4    3   19     -0.85      0.00
    4    3   20      2.89      0.00
    4    3   21     -0.97      0.00
    4    3   22      0.88      0.00
    4    3   23     -0.35      0.00
    4    3   24      0.21      0.00
    4    3   25     -0.64      0.00
    4    3   26     -0.83      0.00
   -4    4   26      1.45      0.00
   -4    4   25     -0.08      0.00
   -4    4   24      0.33      0.00
   -4    4   23      1.90      0.00
   -4    4   22     -1.01      0.00
   -4    4   21     -0.76      0.00
   -4    4   20      2.28      0.00
   -4    4   19      0.93      0.00
   -4    4   18      0.57      0.00
   -4    4   17     -1.74      0.00
   -4    4   16      2.02      0.00
   -4    4   15     -1.60      0.00
   -4    4   14     -3.20      0.00
   -4    4   13     -3.48      0.00
   -4    4   12      1.93      0.00
   -4    4   11     -2.31      0.00
   -4    4   10     -6.70      0.00
   -4    4    9      3.82      0.00
   -4    4    8      0.64      0.00
   -4    4    7     -4.27      0.00
   -4    4    6     -8.88      0.00
   -4    4    5     -1.98      0.00
   -4    4    4      5.28      0.00
   -4    4    3    -10.54      0.00
   -4    4    2     -3.87      0.00
   -4    4    1      7.44      0.00
    4    4    0     -1.58      0.00
    4    4    1     10.71      0.00
    4    4    2    -10.63      0.00
    4    4    3     -1.29      0.00
    4    4    4      7.77      0.00
    4    4    5      6.20      0.00
    4    4    6      0.46      0.00
    4    4    7     -2.24      0.00
    4    4    8      2.64      0.00
    4    4    9      9.88      0.00
    4    4   10     -5.03      0.00
    4    4   11      4.85      0.00
    4    4   12      2.71      0.00
    4    4   13      1.75      0.00
    4    4   14      0.04      0.00
    4    4   15     -1.32      0.00
    4    4   16      0.03      0.00
    4    4   17      0.34      0.00
    4    4   18     -3.17      0.00
    4    4   19     -3.03      0.00
    4    4   20      1.87      0.00
    4    4   21     -2.90      0.00
    4    4   22      0.64      0.00
    4    4   23     -0.26      0.00
    4    4   24      2.61      0.00
    4    4   25      0.05      0.00
    4    4   26      0.58      0.00
   -4    5   26      0.17      0.00
   -4    5   25      0.84      0.00
   -4    5   24     -0.25      0.00
   -4    5   23      0.11      0.00
   -4    5   22     -0.46      0.00
   -4    5   21      0.04      0.00
   -4    5   20      0.41      0.00
   -4    5   19     -2.02      0.00
   -4    5   18     -0.14      0.00
   -4    5   17      0.19      0.00
   -4    5   16      0.23      0.00
   -4    5   15     -1.76      0.00
   -4    5   14      4.43      0.00
   -4    5   13      1.42      0.00
   -4    5   12      1.47      0.00
   -4    5   11     -2.18      0.00
   -4    5   10      5.48      0.00
   -4    5    9      3.91      0.00
   -4    5    8      1.17      0.00
   -4    5    7     -6.24      0.00
   -4    5    6     14.34      0.00
   -4    5    5      2.54      0.00
   -4    5    4      7.08      0.00
   -4    5    3    -17.01      0.00
   -4    5    2     12.07      0.00
   -4    5    1     -0.74      0.00
    4    5    0      3.56      0.00
    4    5    1    -10.52      0.00
    4    5    2    -10.16      0.00
    4    5    3      2.22      0.00
    4    5    4      8.45      0.00
    4    5    5     -9.33      0.00
    4    5    6      3.49      0.00
    4    5    7      2.28      0.00
    4    5    8      6.08      0.00
    4    5    9      1.34      0.00
    4    5   10     -3.85      0.00
    4    5   11      4.94      0.00
    4    5   12      0.52      0.00
    4    5   13     -2.06      0.00
    4    5   14      1.27      0.00
    4    5   15      1.90      0.00
    4    5   16      0.18      0.00
    4    5   17      4.07      0.00
    4    5   18     -1.89      0.00
    4    5   19      2.54      0.00
    4    5   20      0.61      0.00
    4    5   21     -0.78      0.00
    4    5   22     -1.09      0.00
    4    5   23     -1.72      0.00
    4    5   24     -0.35      0.00
    4    5   25     -1.53      0.00
   -4    6   25     -1.49      0.00
   -4    6   24      0.00      0.00
   -4    6   23      0.83      0.00
   -4    6   22      0.04      0.00
   -4    6   21     -1.30      0.00
   -4    6   20      2.96      0.00
   -4    6   19      0.98      0.00
   -4    6   18      1.16      0.00
   -4    6   17     -1.96      0.00
   -4    6   16      4.88      0.00
   -4    6   15     -2.57      0.00
   -4    6   14      1.47      0.00
   -4    6   13     -3.47      0.00
   -4    6   12      7.01      0.00
   -4    6   11     -1.85      0.00
   -4    6   10     -2.14      0.00
   -4    6    9     -0.32      0.00
   -4    6    8      5.37      0.00
   -4    6    7     -6.29      0.00
   -4    6    6     -9.77      0.00
   -4    6    5     -2.81      0.00
   -4    6    4      1.03      0.00
   -4    6    3     -9.66      0.00
   -4    6    2    -12.89      0.00
   -4    6    1      5.90      0.00
    4    6    0     -3.07      0.00
    4    6    1      5.58      0.00
    4    6    2    -18.24      0.00
    4    6    3     -6.96      0.00
    4    6    4     -1.20      0.00
    4    6    5     -6.56      0.00
    4    6    6     -6.92      0.00
    4    6    7    -12.94      0.00
    4    6    8      3.26      0.00
    4    6    9     -2.93      0.00
    4    6   10     -4.07      0.00
    4    6   11     -2.06      0.00
    4    6   12      6.66      0.00
    4    6   13     -2.17      0.00
    4    6   14      1.81      0.00
    4    6   15     -2.45      0.00
    4    6   16      2.21      0.00
    4    6   17      1.73      0.00
    4    6   18     -3.45      0.00
    4    6   19      3.04      0.00
    4    6   20      1.29      0.00
    4    6   21      1.47      0.00
    4    6   22      0.90      0.00
    4    6   23      2.90      0.00
    4    6   24      1.38      0.00
    4    6   25      0.10      0.00
   -4    7   25      1.17      0.00
   -4    7   24      1.98      0.00
   -4    7   23     -1.40      0.00
   -4    7   22     -0.93      0.00
   -4    7   21      0.02      0.00
   -4    7   20      0.14      0.00
   -4    7   19     -3.23      0.00
   -4    7   18     -0.99      0.00
   -4    7   17      0.09      0.00
   -4    7   16      0.07      0.00
   -4    7   15     -4.45      0.00
   -4    7   14     -1.05      0.00
   -4    7   13      1.00      0.00
   -4    7   12     -6.61      0.00
   -4    7   11     -3.80      0.00
   -4    7   10    -10.28      0.00
   -4    7    9      4.57      0.00
   -4    7    8    -13.40      0.00
   -4    7    7     -2.95      0.00
   -4    7    6    -10.07      0.00
   -4    7    5     12.05      0.00
   -4    7    4     -8.29      0.00
   -4    7    3     -2.35      0.00
   -4    7    2     -3.92      0.00
   -4    7    1     15.67      0.00
    4    7    0      2.74      0.00
    4    7    1      2.63      0.00
    4    7    2     -9.95      0.00
    4    7    3     18.02      0.00
    4    7    4     -4.59      0.00
    4    7    5      1.36      0.00
    4    7    6     -6.44      0.00
    4    7    7      7.24      0.00
    4    7    8     -2.01      0.00
    4    7    9     -0.59      0.00
    4    7   10     -6.65      0.00
    4    7   11      1.44      0.00
    4    7   12     -1.29      0.00
    4    7   13     -4.79      0.00
    4    7   14      1.48      0.00
    4    7   15     -1.18      0.00
    4    7   16      1.77      0.00
    4    7   17     -0.53      0.00
    4    7   18     -2.50      0.00
    4    7   19      0.87      0.00
    4    7   20     -0.01      0.00
    4    7   21     -2.51      0.00
    4    7   22     -2.20      0.00
    4    7   23     -1.89      0.00
    4    7   24     -1.41      0.00
   -4    8   25     -2.80      0.00
   -4    8   24     -1.34      0.00
   -4    8   23      1.53      0.00
   -4    8   22     -2.22      0.00
   -4    8   21      0.84      0.00
   -4    8   20     -1.87      0.00
   -4    8   19      2.51      0.00
   -4    8   18     -4.36      0.00
   -4    8   17      0.44      0.00
   -4    8   16     -1.14      0.00
   -4    8   15      1.22      0.00
   -4    8   14     -4.10      0.00
   -4    8   13      1.60      0.00
   -4    8   12      1.32      0.00
   -4    8   11      5.79      0.00
   -4    8   10     -3.80      0.00
   -4    8    9      7.75      0.00
   -4    8    8      8.71      0.00
   -4    8    7      5.70      0.00
   -4    8    6      2.05      0.00
   -4    8    5      6.61      0.00
   -4    8    4     16.88      0.00
   -4    8    3      0.62      0.00
   -4    8    2      6.23      0.00
   -4    8    1      6.34      0.00
    4    8    0     18.84      0.00
    4    8    1      3.65      0.00
    4    8    2      2.24      0.00
    4    8    3      4.11      0.00
    4    8    4      8.49      0.00
    4    8    5      6.94      0.00
    4    8    6     -5.15      0.00
    4    8    7      4.80      0.00
    4    8    8     -0.33      0.00
    4    8    9      6.64      0.00
    4    8   10     -8.74      0.00
    4    8   11      6.04      0.00
    4    8   12     -1.05      0.00
    4    8   13      0.18      0.00
    4    8   14     -4.59      0.00
    4    8   15     -0.24      0.00
    4    8   16      0.30      0.00
    4    8   17     -0.77      0.00
    4    8   18     -4.13      0.00
    4    8   19      1.01      0.00
    4    8   20     -0.09      0.00
    4    8   21     -1.53      0.00
    4    8   22      2.20      0.00
    4    8   23      1.31      0.00
    4    8   24      1.26      0.00
   -4    9   24      0.06      0.00
   -4    9   23      2.24      0.00
   -4    9   22     -5.10      0.00
   -4    9   21      4.18      0.00
   -4    9   20     -1.38      0.00
   -4    9   19      2.64      0.00
   -4    9   18     -1.77      0.00
   -4    9   17      5.25      0.00
   -4    9   16      3.57      0.00
   -4    9   15     -0.71      0.00
   -4    9   14      4.02      0.00
   -4    9   13      2.30      0.00
   -4    9   12      7.38      0.00
   -4    9   11     -2.90      0.00
   -4    9   10      5.22      0.00
   -4    9    9      1.66      0.00
   -4    9    8      9.59      0.00
   -4    9    7     -9.29      0.00
   -4    9    6      5.36      0.00
   -4    9    5     -0.58      0.00
   -4    9    4      7.74      0.00
   -4    9    3    -11.73      0.00
   -4    9    2     -1.23      0.00
   -4    9    1     -1.41      0.00
    4    9    0      1.74      0.00
    4    9    1    -15.30      0.00
    4    9    2      5.27      0.00
    4    9    3     -2.66      0.00
    4    9    4      5.31      0.00
    4    9    5     -9.61      0.00
    4    9    6      5.03      0.00
    4    9    7      1.88      0.00
    4    9    8      3.18      0.00
    4    9    9     -2.05      0.00
    4    9   10     -0.41      0.00
    4    9   11      3.54      0.00
    4    9   12      0.42      0.00
    4    9   13      0.58      0.00
    4    9   14     -0.02      0.00
    4    9   15      1.21      0.00
    4    9   16      1.31      0.00
    4    9   17      0.58      0.00
    4    9   18     -0.56      0.00
    4    9   19      3.29      0.00
    4    9   20      2.27      0.00
    4    9   21     -2.17      0.00
    4    9   22      1.18      0.00
    4    9   23     -2.51      0.00
    4    9   24      0.88      0.00
   -4   10   24     -2.62      0.00
   -4   10   23      2.81      0.00
   -4   10   22     -0.99      0.00
   -4   10   21      2.84      0.00
   -4   10   20     -1.47      0.00
   -4   10   19      1.07      0.00
   -4   10   18     -1.96      0.00
   -4   10   17     -0.73      0.00
   -4   10   16      1.53      0.00
   -4   10   15     -3.43      0.00
   -4   10   14     -0.16      0.00
   -4   10   13     -4.06      0.00
   -4   10   12      3.19      0.00
   -4   10   11     -4.51      0.00
   -4   10   10     -4.52      0.00
   -4   10    9     -4.90      0.00
   -4   10    8      1.32      0.00
   -4   10    7     -6.37      0.00
   -4   10    6     -9.07      0.00
   -4   10    5     -2.88      0.00
   -4   10    4     -2.92      0.00
   -4   10    3     -3.47      0.00
   -4   10    2    -12.88      0.00
   -4   10    1     -0.65      0.00
    4   10    0     -0.25      0.00
    4   10    1      0.97      0.00
    4   10    2     -5.15      0.00
    4   10    3     -1.10      0.00
    4   10    4      5.34      0.00
    4   10    5     -2.66      0.00
    4   10    6     -0.09      0.00
    4   10    7     -0.78      0.00
    4   10    8      6.29      0.00
    4   10    9     -2.23      0.00
    4   10   10      2.16      0.00
    4   10   11      0.24      0.00
    4   10   12      4.15      0.00
    4   10   13     -1.64      0.00
    4   10   14      0.80      0.00
    4   10   15      1.39      0.00
    4   10   16      2.94      0.00
    4   10   17     -2.20      0.00
    4   10   18     -0.46      0.00
    4   10   19      0.05      0.00
    4   10   20      1.80      0.00
    4   10   21     -3.56      0.00
    4   10   22      5.65      0.00
    4   10   23     -1.58      0.00
   -4   11   23      1.11      0.00
   -4   11   22     -0.96      0.00
   -4   11   21      1.67      0.00
   -4   11   20      0.62      0.00
   -4   11   19      2.35      0.00
   -4   11   18     -1.27      0.00
   -4   11   17      1.69      0.00
   -4   11   16      2.01      0.00
   -4   11   15     -1.42      0.00
   -4   11   14     -1.16      0.00
   -4   11   13      0.18      0.00
   -4   11   12      1.53      0.00
   -4   11   11     -1.53      0.00
   -4   11   10     -3.57      0.00
   -4   11    9      2.47      0.00
   -4   11    8      3.43      0.00
   -4   11    7     -0.95      0.00
   -4   11    6     -3.72      0.00
   -4   11    5      6.20      0.00
   -4   11    4      3.69      0.00
   -4   11    3     -0.14      0.00
   -4   11    2     -1.73      0.00
   -4   11    1      4.47      0.00
    4   11    0     -6.37      0.00
    4   11    1     -3.06      0.00
    4   11    2     -1.81      0.00
    4   11    3      2.13      0.00
    4   11    4     -4.47      0.00
    4   11    5     -4.06      0.00
    4   11    6     -2.12      0.00
    4   11    7      1.88      0.00
    4   11    8     -3.11      0.00
    4   11    9     -3.72      0.00
    4   11   10     -0.10      0.00
    4   11   11     -0.88      0.00
    4   11   12      0.43      0.00
    4   11   13     -0.81      0.00
    4   11   14     -1.32      0.00
    4   11   15     -0.15      0.00
    4   11   16      1.51      0.00
    4   11   17     -1.07      0.00
    4   11   18      0.01      0.00
    4   11   19     -1.29      0.00
    4   11   20      2.25      0.00
    4   11   21     -4.46      0.00
    4   11   22      2.16      0.00
    4   11   23     -6.40      0.00
   -4   12   23     -3.46      0.00
   -4   12   22     -0.48      0.00
   -4   12   21      0.92      0.00
   -4   12   20     -3.57      0.00
   -4   12   19     -2.13      0.00
   -4   12   18     -2.64      0.00
   -4   12   17     -1.22      0.00
   -4   12   16      1.97      0.00
   -4   12   15     -3.73      0.00
   -4   12   14     -0.85      0.00
   -4   12   13     -1.19      0.00
   -4   12   12      3.30      0.00
   -4   12   11     -1.59      0.00
   -4   12   10     -1.90      0.00
   -4   12    9     -0.72      0.00
   -4   12    8      5.13      0.00
   -4   12    7     -1.81      0.00
   -4   12    6     -2.16      0.00
   -4   12    5     -0.53      0.00
   -4   12    4      3.76      0.00
   -4   12    3     -0.25      0.00
   -4   12    2     -0.98      0.00
   -4   12    1      0.48      0.00
    4   12    0      3.37      0.00
    4   12    1     -1.06      0.00
    4   12    2     -1.98      0.00
    4   12    3     -0.50      0.00
    4   12    4      1.56      0.00
    4   12    5     -2.89      0.00
    4   12    6     -2.67      0.00
    4   12    7      0.71      0.00
    4   12    8     -0.03      0.00
    4   12    9     -2.25      0.00
    4   12   10      0.70      0.00
    4   12   11     -0.96      0.00
    4   12   12     -0.02      0.00
    4   12   13     -2.27      0.00
    4   12   14     -2.01      0.00
    4   12   15     -0.08      0.00
    4   12   16     -0.57      0.00
    4   12   17     -2.37      0.00
    4   12   18      1.81      0.00
    4   12   19      0.16      0.00
    4   12   20      2.03      0.00
    4   12   21     -1.65      0.00
    4   12   22      4.87      0.00
    4   12   23     -0.25      0.00
   -4   13   22      0.70      0.00
   -4   13   21      1.46      0.00
   -4   13   20      0.14      0.00
   -4   13   19      1.67      0.00
   -4   13   18      1.79      0.00
   -4   13   17     -1.89      0.00
   -4   13   16      3.13      0.00
   -4   13   15     -1.34      0.00
   -4   13   14     -0.06      0.00
   -4   13   13     -0.06      0.00
   -4   13   12      0.76      0.00
   -4   13   11      1.54      0.00
   -4   13   10     -3.80      0.00
   -4   13    9      0.28      0.00
   -4   13    8      1.74      0.00
   -4   13    7     -0.63      0.00
   -4   13    6     -4.60      0.00
   -4   13    5      2.73      0.00
   -4   13    4      1.17      0.00
   -4   13    3      2.58      0.00
   -4   13    2     -6.58      0.00
   -4   13    1      5.77      0.00
    4   13    0      1.15      0.00
    4   13    1      3.87      0.00
    4   13    2      2.94      0.00
    4   13    3      5.89      0.00
    4   13    4     -0.55      0.00
    4   13    5      1.92      0.00
    4   13    6      1.54      0.00
    4   13    7      3.30      0.00
    4   13    8     -2.56      0.00
    4   13    9     -2.42      0.00
    4   13   10      0.52      0.00
    4   13   11     -1.38      0.00
    4   13   12      1.31      0.00
    4   13   13      1.01      0.00
    4   13   14      0.20      0.00
    4   13   15      0.76      0.00
    4   13   16      2.72      0.00
    4   13   17     -1.35      0.00
    4   13   18     -0.75      0.00
    4   13   19     -4.21      0.00
    4   13   20      2.09      0.00
    4   13   21     -1.11      0.00
    4   13   22     -2.20      0.00
   -4   14   22     -1.40      0.00
   -4   14   21      1.51      0.00
   -4   14   20     -1.87      0.00
   -4   14   19     -1.87      0.00
   -4   14   18     -1.60      0.00
   -4   14   17      1.24      0.00
   -4   14   16      0.81      0.00
   -4   14   15      1.24      0.00
   -4   14   14     -3.20      0.00
   -4   14   13      3.58      0.00
   -4   14   12     -0.71      0.00
   -4   14   11      4.94      0.00
   -4   14   10     -3.66      0.00
   -4   14    9      3.59      0.00
   -4   14    8      3.61      0.00
   -4   14    7      4.24      0.00
   -4   14    6      0.49      0.00
   -4   14    5      4.13      0.00
   -4   14    4      1.73      0.00
   -4   14    3      4.92      0.00
   -4   14    2     -0.64      0.00
   -4   14    1      3.92      0.00
    4   14    0      1.07      0.00
    4   14    1     -0.09      0.00
    4   14    2      0.23      0.00
    4   14    3      3.55      0.00
    4   14    4     -0.87      0.00
    4   14    5      1.95      0.00
    4   14    6     -1.30      0.00
    4   14    7      5.90      0.00
    4   14    8     -0.15      0.00
    4   14    9      4.45      0.00
    4   14   10      1.58      0.00
    4   14   11      3.13      0.00
    4   14   12     -1.61      0.00
    4   14   13      1.18      0.00
    4   14   14     -1.85      0.00
    4   14   15      0.72      0.00
    4   14   16     -1.18      0.00
    4   14   17     -0.48      0.00
    4   14   18      2.63      0.00
    4   14   19     -1.42      0.00
    4   14   20      1.24      0.00
    4   14   21     -1.37      0.00
   -4   15   22      2.01      0.00
   -4   15   21      0.69      0.00
   -4   15   20     -0.03      0.00
   -4   15   19      2.18      0.00
   -4   15   18     -0.12      0.00
   -4   15   17      1.23      0.00
   -4   15   16     -1.25      0.00
   -4   15   15      1.25      0.00
   -4   15   14      0.54      0.00
   -4   15   13     -0.08      0.00
   -4   15   12     -0.15      0.00
   -4   15   11      2.32      0.00
   -4   15   10     -0.47      0.00
   -4   15    9     -1.93      0.00
   -4   15    8      2.15      0.00
   -4   15    7     -2.80      0.00
   -4   15    6     -2.19      0.00
   -4   15    5     -4.79      0.00
   -4   15    4      0.01      0.00
   -4   15    3     -5.43      0.00
   -4   15    2     -4.12      0.00
   -4   15    1     -6.22      0.00
    4   15    0     -0.04      0.00
    4   15    1     -7.56      0.00
    4   15    2      1.15      0.00
    4   15    3     -3.22      0.00
    4   15    4     -0.02      0.00
    4   15    5     -1.40      0.00
    4   15    6      2.33      0.00
    4   15    7     -1.27      0.00
    4   15    8     -2.69      0.00
    4   15    9     -1.53      0.00
    4   15   10      0.37      0.00
    4   15   11     -0.08      0.00
    4   15   12     -0.36      0.00
    4   15   13      1.94      0.00
    4   15   14     -1.57      0.00
    4   15   15      2.34      0.00
    4   15   16      1.30      0.00
    4   15   17      2.75      0.00
    4   15   18     -2.21      0.00
    4   15   19     -0.16      0.00
    4   15   20      4.74      0.00
   -4   16   20      1.63      0.00
   -4   16   19     -0.36      0.00
   -4   16   18      0.10      0.00
   -4   16   17      0.60      0.00
   -4   16   16      2.72      0.00
   -4   16   15     -2.56      0.00
   -4   16   14      3.20      0.00
   -4   16   13     -4.43      0.00
   -4   16   12      1.31      0.00
   -4   16   11     -0.64      0.00
   -4   16   10     -0.77      0.00
   -4   16    9     -3.70      0.00
   -4   16    8      0.02      0.00
   -4   16    7     -1.97      0.00
   -4   16    6     -0.22      0.00
   -4   16    5     -1.07      0.00
   -4   16    4      0.11      0.00
   -4   16    3     -0.18      0.00
   -4   16    2      0.50      0.00
   -4   16    1      1.75      0.00
    4   16    0     -0.26      0.00
    4   16    1     -1.11      0.00
    4   16    2     -0.10      0.00
    4   16    3     -2.45      0.00
    4   16    4     -3.33      0.00
    4   16    5     -3.45      0.00
    4   16    6      0.45      0.00
    4   16    7     -1.91      0.00
    4   16    8      1.10      0.00
    4   16    9     -2.44      0.00
    4   16   10      2.22      0.00
    4   16   11     -3.44      0.00
    4   16   12      0.93      0.00
    4   16   13     -1.64      0.00
    4   16   14      1.37      0.00
    4   16   15     -1.57      0.00
    4   16   16     -2.13      0.00
    4   16   17      1.82      0.00
    4   16   18     -1.78      0.00
    4   16   19      1.87      0.00
   -4   17   19     -1.08      0.00
   -4   17   18     -0.98      0.00
   -4   17   17     -2.04      0.00
   -4   17   16     -0.28      0.00
   -4   17   15     -4.50      0.00
   -4   17   14      4.09      0.00
   -4   17   13     -3.37      0.00
   -4   17   12     -1.09      0.00
   -4   17   11      0.53      0.00
   -4   17   10     -0.84      0.00
   -4   17    9     -0.24      0.00
   -4   17    8     -1.07      0.00
   -4   17    7      2.15      0.00
   -4   17    6     -1.39      0.00
   -4   17    5      1.89      0.00
   -4   17    4     -0.54      0.00
   -4   17    3      2.78      0.00
   -4   17    2     -2.18      0.00
   -4   17    1      3.58      0.00
    4   17    0     -0.55      0.00
    4   17    1      2.36      0.00
    4   17    2      0.26      0.00
    4   17    3      2.90      0.00
    4   17    4     -1.72      0.00
    4   17    5      3.87      0.00
    4   17    6     -0.71      0.00
    4   17    7      0.31      0.00
    4   17    8     -2.60      0.00
    4   17    9      2.54      0.00
    4   17   10      0.66      0.00
    4   17   11      0.03      0.00
    4   17   12     -0.50      0.00
    4   17   13     -1.90      0.00
    4   17   14      0.17      0.00
    4   17   15     -1.78      0.00
    4   17   18     -5.50      0.00
   -4   18   18     -0.82      0.00
   -4   18   17      0.84      0.00
   -4   18   16      1.31      0.00
   -4   18   15     -0.94      0.00
   -4   18   14      4.02      0.00
   -4   18   13     -2.29      0.00
   -4   18   12     -0.55      0.00
   -4   18   11      3.20      0.00
   -4   18   10      0.83      0.00
   -4   18    9      1.42      0.00
   -4   18    8      0.10      0.00
   -4   18    7      2.24      0.00
   -4   18    6      0.34      0.00
   -4   18    5      2.20      0.00
   -4   18    4      0.62      0.00
   -4   18    3      0.03      0.00
   -4   18    2      0.87      0.00
   -4   18    1      0.17      0.00
    4   18    0      1.44      0.00
    4   18    1      2.92      0.00
    4   18    2      2.86      0.00
    4   18    3      0.09      0.00
    4   18    4     -0.79      0.00
    4   18    5      0.51      0.00
    4   18    6     -1.09      0.00
    4   18    7      0.21      0.00
    4   18    8     -3.14      0.00
    4   18    9      1.95      0.00
    4   18   10     -3.45      0.00
    4   18   11      2.39      0.00
    4   18   12     -1.56      0.00
    4   18   13      3.90      0.00
   -4   19   16      0.60      0.00
   -4   19   15     -2.97      0.00
   -4   19   14      3.84      0.00
   -4   19   13     -0.86      0.00
   -4   19   12     -0.39      0.00
   -4   19   11      0.24      0.00
   -4   19   10      0.04      0.00
   -4   19    9     -0.63      0.00
   -4   19    8     -1.22      0.00
   -4   19    7     -1.47      0.00
   -4   19    6     -0.95      0.00
   -4   19    5     -1.52      0.00
   -4   19    4     -0.65      0.00
   -4   19    3     -1.03      0.00
   -4   19    2     -0.49      0.00
   -4   19    1     -0.79      0.00
    4   19    0     -2.30      0.00
    4   19    1      0.29      0.00
    4   19    2     -0.74      0.00
    4   19    3      0.19      0.00
    4   19    4      1.92      0.00
    4   19    5      3.10      0.00
    4   19    6      2.52      0.00
    4   19    7      0.02      0.00
    4   19    8      1.44      0.00
    4   19    9      2.62      0.00
    4   19   10      0.52      0.00
    4   19   11      0.40      0.00
   -4   20   14      3.18      0.00
   -4   20   13     -3.07      0.00
   -4   20   12     -1.88      0.00
   -4   20   11      0.89      0.00
   -4   20   10     -0.23      0.00
   -4   20    9     -0.87      0.00
   -4   20    8      0.60      0.00
   -4   20    7      0.99      0.00
   -4   20    6     -0.45      0.00
   -4   20    5      2.20      0.00
   -4   20    4      0.05      0.00
   -4   20    3      2.37      0.00
   -4   20    2     -2.07      0.00
   -4   20    1      2.56      0.00
    4   20    0     -1.45      0.00
    4   20    1      1.63      0.00
    4   20    2     -2.45      0.00
    4   20    3      0.39      0.00
    4   20    4     -1.80      0.00
    4   20    5      0.96      0.00
    4   20    6     -1.04      0.00
    4   20    7     -0.31      0.00
    4   20    8     -0.15      0.00
   -4   21   11      1.00      0.00
   -4   21   10      0.01      0.00
   -4   21    9      1.71      0.00
   -4   21    8      0.30      0.00
   -4   21    7      0.90      0.00
   -4   21    6     -0.79      0.00
   -4   21    5      1.98      0.00
   -4   21    4     -1.66      0.00
   -4   21    3      2.05      0.00
   -4   21    2     -2.39      0.00
   -4   21    1     -0.79      0.00
    4   21    0      1.14      0.00
    4   21    1     -0.99      0.00
    4   21    2     -2.13      0.00
    4   21    3     -2.73      0.00
    4   21    4     -1.32      0.00
    4   21    5     -0.96      0.00
   -4   22    8     -0.17      0.00
   -4   22    7      0.54      0.00
   -4   22    6     -1.63      0.00
   -4   22    5     -0.70      0.00
   -4   22    4     -0.18      0.00
   -4   22    3      0.24      0.00
   -4   22    2     -1.94      0.00
   -4   22    1      0.38      0.00
   -5    0   26     -1.26      0.00
   -5    0   24      2.45      0.00
   -5    0   22      2.03      0.00
   -5    0   20      0.19      0.00
   -5    0   18      3.96      0.00
   -5    0   16     -0.67      0.00
   -5    0   14      3.68      0.00
   -5    0   12     -4.12      0.00
   -5    0   10      4.29      0.00
   -5    0    8    -11.70      0.00
   -5    0    6      2.87      0.00
   -5    0    4    -23.19      0.00
   -5    0    2     -5.44      0.00
    5    0    0    -30.06      0.00
    5    0    2      0.66      0.00
    5    0    4    -16.09      0.00
    5    0    6      3.61      0.00
    5    0    8     -5.73      0.00
    5    0   10      7.85      0.00
    5    0   12     -0.52      0.00
    5    0   14      2.10      0.00
    5    0   16     -0.70      0.00
    5    0   18      2.16      0.00
    5    0   20     -2.28      0.00
    5    0   22      0.41      0.00
    5    0   24      0.85      0.00
    5    0   26      0.98      0.00
   -5    1   26      1.34      0.00
   -5    1   25      0.47      0.00
   -5    1   24      0.98      0.00
   -5    1   23     -1.37      0.00
   -5    1   22     -0.22      0.00
   -5    1   21      1.37      0.00
   -5    1   20     -1.77      0.00
   -5    1   19     -0.36      0.00
   -5    1   18     -2.77      0.00
   -5    1   17     -0.95      0.00
   -5    1   16     -4.36      0.00
   -5    1   15      1.58      0.00
   -5    1   14     -2.39      0.00
   -5    1   13      2.02      0.00
   -5    1   12     -7.86      0.00
   -5    1   11      2.76      0.00
   -5    1   10     -9.14      0.00
   -5    1    9      5.81      0.00
   -5    1    8    -12.16      0.00
   -5    1    7      1.81      0.00
   -5    1    6     -8.59      0.00
   -5    1    5      4.02      0.00
   -5    1    4     -8.94      0.00
   -5    1    3      1.05      0.00
   -5    1    2     -4.60      0.00
   -5    1    1      6.00      0.00
    5    1    0      5.36      0.00
    5    1    1     -1.84      0.00
    5    1    2      0.52      0.00
    5    1    3     -2.94      0.00
    5    1    4     -1.95      0.00
    5    1    5     -6.16      0.00
    5    1    6     -6.15      0.00
    5    1    7     -0.05      0.00
    5    1    8     -6.87      0.00
    5    1    9     -5.95      0.00
    5    1   10     -5.94      0.00
    5    1   11      0.23      0.00
    5    1   12     -2.74      0.00
    5    1   13     -1.04      0.00
    5    1   14      0.36      0.00
    5    1   15      3.86      0.00
    5    1   16      0.02      0.00
    5    1   17     -1.68      0.00
    5    1   18      0.92      0.00
    5    1   19      1.92      0.00
    5    1   20     -0.08      0.00
    5    1   21      1.18      0.00
    5    1   22     -2.00      0.00
    5    1   23     -0.33      0.00
    5    1   24     -1.39      0.00
    5    1   25      0.38      0.00
    5    1   26     -1.55      0.00
   -5    2   27     -0.40      0.00
   -5    2   26     -0.37      0.00
   -5    2   25     -1.73      0.00
   -5    2   24     -1.09      0.00
   -5    2   23     -0.39      0.00
   -5    2   22     -0.80      0.00
   -5    2   21     -0.30      0.00
   -5    2   20     -4.21      0.00
   -5    2   19      2.23      0.00
   -5    2   18     -0.07      0.00
   -5    2   17      4.80      0.00
   -5    2   16     -4.20      0.00
   -5    2   15      2.29      0.00
   -5    2   14      1.04      0.00
   -5    2   13      3.07      0.00
   -5    2   12     -4.92      0.00
   -5    2   11      2.80      0.00
   -5    2   10      5.48      0.00
   -5    2    9      4.71      0.00
   -5    2    8     -4.51      0.00
   -5    2    7     -4.32      0.00
   -5    2    6     15.21      0.00
   -5    2    5     -3.19      0.00
   -5    2    4      0.84      0.00
   -5    2    3     -9.54      0.00
   -5    2    2     18.23      0.00
   -5    2    1      0.54      0.00
    5    2    0     -3.58      0.00
    5    2    1      5.27      0.00
    5    2    2     18.89      0.00
    5    2    3     -4.42      0.00
    5    2    4      0.67      0.00
    5    2    5      2.15      0.00
    5    2    6     10.57      0.00
    5    2    7     -3.09      0.00
    5    2    8     -2.88      0.00
    5    2    9      0.82      0.00
    5    2   10      5.08      0.00
    5    2   11     -2.83      0.00
    5    2   12     -3.53      0.00
    5    2   13     -2.37      0.00
    5    2   14     -0.81      0.00
    5    2   15     -2.00      0.00
    5    2   16     -2.60      0.00
    5    2   17      0.49      0.00
    5    2   18      0.48      0.00
    5    2   19     -1.09      0.00
    5    2   20     -2.26      0.00
    5    2   21      1.08      0.00
    5    2   22     -0.34      0.00
    5    2   23      1.25      0.00
    5    2   24     -1.41      0.00
    5    2   25      0.53      0.00
    5    2   26     -1.46      0.00
   -5    3   26     -0.47      0.00
   -5    3   25     -0.11      0.00
   -5    3   24     -0.44      0.00
   -5    3   23     -0.92      0.00
   -5    3   22      0.46      0.00
   -5    3   21      1.31      0.00
   -5    3   20     -1.01      0.00
   -5    3   19      2.18      0.00
   -5    3   18     -0.73      0.00
   -5    3   17      2.93      0.00
   -5    3   16     -3.13      0.00
   -5    3   15     -1.07      0.00
   -5    3   14      5.79      0.00
   -5    3   13     -1.40      0.00
   -5    3   12      1.88      0.00
   -5    3   11     -8.40      0.00
   -5    3   10      4.70      0.00
   -5    3    9     -5.33      0.00
   -5    3    8      1.72      0.00
   -5    3    7    -12.14      0.00
   -5    3    6      9.17      0.00
   -5    3    5     -6.10      0.00
   -5    3    4      2.54      0.00
   -5    3    3     -8.09      0.00
   -5    3    2      3.87      0.00
   -5    3    1      5.50      0.00
    5    3    0      1.97      0.00
    5    3    1      2.04      0.00
    5    3    2     -2.56      0.00
    5    3    3      7.34      0.00
    5    3    4      2.19      0.00
    5    3    5      3.33      0.00
    5    3    6      0.26      0.00
    5    3    7      8.44      0.00
    5    3    8      0.91      0.00
    5    3    9      0.48      0.00
    5    3   10      1.75      0.00
    5    3   11      2.23      0.00
    5    3   12      2.25      0.00
    5    3   13     -2.09      0.00
    5    3   14      3.14      0.00
    5    3   15      1.30      0.00
    5    3   16     -1.05      0.00
    5    3   17     -1.80      0.00
    5    3   18      0.93      0.00
    5    3   19      1.15      0.00
    5    3   20      0.70      0.00
    5    3   21      0.33      0.00
    5    3   22     -1.91      0.00
    5    3   23      0.95      0.00
    5    3   24      0.40      0.00
    5    3   25      1.17      0.00
    5    3   26     -0.93      0.00
   -5    4   26      1.03      0.00
   -5    4   25      0.74      0.00
   -5    4   24     -0.33      0.00
   -5    4   23     -0.38      0.00
   -5    4   22      3.35      0.00
   -5    4   21      0.82      0.00
   -5    4   20     -2.25      0.00
   -5    4   19     -0.38      0.00
   -5    4   18     -0.56      0.00
   -5    4   17      1.59      0.00
   -5    4   16     -3.23      0.00
   -5    4   15     -4.45      0.00
   -5    4   14      2.35      0.00
   -5    4   13     -4.49      0.00
   -5    4   12     -3.06      0.00
   -5    4   11     -5.29      0.00
   -5    4   10      2.73      0.00
   -5    4    9      4.25      0.00
   -5    4    8     -4.90      0.00
   -5    4    7     -0.20      0.00
   -5    4    6      5.17      0.00
   -5    4    5      9.10      0.00
   -5    4    4     -3.90      0.00
   -5    4    3      4.14      0.00
   -5    4    2      5.96      0.00
   -5    4    1     14.20      0.00
    5    4    0     -3.76      0.00
    5    4    1      2.08      0.00
    5    4    2      4.42      0.00
    5    4    3     -5.13      0.00
    5    4    4     -5.12      0.00
    5    4    5      7.08      0.00
    5    4    6     -0.02      0.00
    5    4    7      2.25      0.00
    5    4    8     -6.25      0.00
    5    4    9      8.19      0.00
    5    4   10      0.75      0.00
    5    4   11      1.90      0.00
    5    4   12     -1.70      0.00
    5    4   13      2.10      0.00
    5    4   14      0.46      0.00
    5    4   15      0.39      0.00
    5    4   16     -1.27      0.00
    5    4   17      1.30      0.00
    5    4   18      0.13      0.00
    5    4   19     -1.25      0.00
    5    4   20     -1.34      0.00
    5    4   21      1.04      0.00
    5    4   22      0.17      0.00
    5    4   23      2.17      0.00
    5    4   24     -2.00      0.00
    5    4   25      0.37      0.00
   -5    5   25      0.28      0.00
   -5    5   24      1.12      0.00
   -5    5   23     -1.50      0.00
   -5    5   22      1.60      0.00
   -5    5   21     -0.15      0.00
   -5    5   20     -1.04      0.00
   -5    5   19     -0.27      0.00
   -5    5   18      1.75      0.00
   -5    5   17      3.70      0.00
   -5    5   16     -1.60      0.00
   -5    5   15     -2.51      0.00
   -5    5   14      4.32      0.00
   -5    5   13      6.15      0.00
   -5    5   12      1.51      0.00
   -5    5   11      3.42      0.00
   -5    5   10      3.18      0.00
   -5    5    9     12.59      0.00
   -5    5    8     -1.15      0.00
   -5    5    7      3.44      0.00
   -5    5    6      4.77      0.00
   -5    5    5      8.51      0.00
   -5    5    4     -0.03      0.00
   -5    5    3     -4.62      0.00
   -5    5    2      2.04      0.00
   -5    5    1     -2.86      0.00
    5    5    0      3.53      0.00
    5    5    1    -13.94      0.00
    5    5    2      0.27      0.00
    5    5    3     -5.18      0.00
    5    5    4      3.70      0.00
    5    5    5     -9.34      0.00
    5    5    6      1.27      0.00
    5    5    7     -0.88      0.00
    5    5    8      0.60      0.00
    5    5    9     -2.83      0.00
    5    5   10      1.30      0.00
    5    5   11      0.50      0.00
    5    5   12     -0.24      0.00
    5    5   13      0.03      0.00
    5    5   14      0.38      0.00
    5    5   15      2.47      0.00
    5    5   16     -2.99      0.00
    5    5   17      0.42      0.00
    5    5   18     -0.25      0.00
    5    5   19      1.47      0.00
    5    5   20      0.55      0.00
    5    5   21     -0.25      0.00
    5    5   22     -2.23      0.00
    5    5   23      1.69      0.00
    5    5   24     -0.25      0.00
   -5    6   25     -0.31      0.00
   -5    6   24      0.23      0.00
   -5    6   23     -1.75      0.00
   -5    6   22      2.67      0.00
   -5    6   21      1.71      0.00
   -5    6   20     -0.07      0.00
   -5    6   19     -1.58      0.00
   -5    6   18      1.61      0.00
   -5    6   17      1.04      0.00
   -5    6   16      1.11      0.00
   -5    6   15     -0.82      0.00
   -5    6   14      4.74      0.00
   -5    6   13      1.55      0.00
   -5    6   12     -0.75      0.00
   -5    6   11     -2.66      0.00
   -5    6   10     -1.31      0.00
   -5    6    9      0.86      0.00
   -5    6    8     -5.77      0.00
   -5    6    7     -6.58      0.00
   -5    6    6     -4.00      0.00
   -5    6    5     -4.27      0.00
   -5    6    4     -8.09      0.00
   -5    6    3    -11.28      0.00
   -5    6    2     -5.65      0.00
   -5    6    1     -1.92      0.00
    5    6    0     -3.14      0.00
    5    6    1      4.07      0.00
    5    6    2     -3.64      0.00
    5    6    3     -5.05      0.00
    5    6    4     -2.47      0.00
    5    6    5     -1.56      0.00
    5    6    6     -1.22      0.00
    5    6    7     -7.87      0.00
    5    6    8     -0.86      0.00
    5    6    9     -4.36      0.00
    5    6   10      2.67      0.00
    5    6   11     -6.11      0.00
    5    6   12      1.61      0.00
    5    6   13     -1.61      0.00
    5    6   14      1.02      0.00
    5    6   15      1.36      0.00
    5    6   16      0.33      0.00
    5    6   17      1.88      0.00
    5    6   18      1.27      0.00
    5    6   19     -0.47      0.00
    5    6   20     -1.37      0.00
    5    6   21     -0.25      0.00
    5    6   22      1.37      0.00
    5    6   23      0.98      0.00
    5    6   24     -1.35      0.00
   -5    7   24     -0.40      0.00
   -5    7   23     -1.55      0.00
   -5    7   22     -1.31      0.00
   -5    7   21      0.64      0.00
   -5    7   20     -2.59      0.00
   -5    7   19     -3.57      0.00
   -5    7   18      0.30      0.00
   -5    7   17      1.97      0.00
   -5    7   16     -2.12      0.00
   -5    7   15     -7.07      0.00
   -5    7   14     -2.82      0.00
   -5    7   13      0.49      0.00
   -5    7   12     -5.34      0.00
   -5    7   11     -5.35      0.00
   -5    7   10     -4.85      0.00
   -5    7    9      4.53      0.00
   -5    7    8     -8.07      0.00
   -5    7    7     -2.96      0.00
   -5    7    6     -4.12      0.00
   -5    7    5      7.93      0.00
   -5    7    4     -4.37      0.00
   -5    7    3      1.25      0.00
   -5    7    2      0.49      0.00
   -5    7    1     10.35      0.00
    5    7    0      2.26      0.00
    5    7    1      3.35      0.00
    5    7    2     -1.02      0.00
    5    7    3     10.69      0.00
    5    7    4     -2.56      0.00
    5    7    5      4.11      0.00
    5    7    6     -2.96      0.00
    5    7    7      6.14      0.00
    5    7    8     -2.62      0.00
    5    7    9     -0.12      0.00
    5    7   10     -0.50      0.00
    5    7   11     -0.60      0.00
    5    7   12     -1.02      0.00
    5    7   13     -0.01      0.00
    5    7   14     -1.47      0.00
    5    7   15      0.18      0.00
    5    7   16     -2.60      0.00
    5    7   17     -1.07      0.00
    5    7   18      0.01      0.00
    5    7   19      1.85      0.00
    5    7   20      0.94      0.00
    5    7   21     -0.09      0.00
    5    7   22     -1.68      0.00
    5    7   23     -0.48      0.00
    5    7   24     -1.25      0.00
   -5    8   24     -1.61      0.00
   -5    8   23      0.75      0.00
   -5    8   22     -1.30      0.00
   -5    8   21      2.58      0.00
   -5    8   20     -2.40      0.00
   -5    8   19      1.19      0.00
   -5    8   18     -0.93      0.00
   -5    8   17      2.82      0.00
   -5    8   16     -2.43      0.00
   -5    8   15      2.40      0.00
   -5    8   14      0.13      0.00
   -5    8   13      4.89      0.00
   -5    8   12     -1.45      0.00
   -5    8   11      2.29      0.00
   -5    8   10     -0.18      0.00
   -5    8    9      4.91      0.00
   -5    8    8      1.30      0.00
   -5    8    7      3.13      0.00
   -5    8    6      3.40      0.00
   -5    8    5      3.69      0.00
   -5    8    4      5.79      0.00
   -5    8    3      1.28      0.00
   -5    8    2      6.12      0.00
   -5    8    1      1.96      0.00
    5    8    0      6.83      0.00
    5    8    1     -1.83      0.00
    5    8    2      3.32      0.00
    5    8    3      2.76      0.00
    5    8    4      3.04      0.00
    5    8    5      3.68      0.00
    5    8    6     -0.07      0.00
    5    8    7      4.24      0.00
    5    8    8      0.44      0.00
    5    8    9      2.81      0.00
    5    8   10      0.73      0.00
    5    8   11      1.68      0.00
    5    8   12     -2.65      0.00
    5    8   13      1.54      0.00
    5    8   14     -2.30      0.00
    5    8   15      3.01      0.00
    5    8   16     -2.43      0.00
    5    8   17      0.29      0.00
    5    8   18     -0.84      0.00
    5    8   19     -0.73      0.00
    5    8   20     -4.59      0.00
    5    8   21      1.14      0.00
    5    8   22      0.38      0.00
    5    8   23      2.14      0.00
    5    8   24      0.02      0.00
   -5    9   23      1.26      0.00
   -5    9   22      0.18      0.00
   -5    9   21      4.31      0.00
   -5    9   20      0.45      0.00
   -5    9   19      0.02      0.00
   -5    9   18     -0.91      0.00
   -5    9   17      5.14      0.00
   -5    9   16      0.27      0.00
   -5    9   15     -2.30      0.00
   -5    9   14     -0.16      0.00
   -5    9   13      2.61      0.00
   -5    9   12      3.63      0.00
   -5    9   11     -4.83      0.00
   -5    9   10      6.49      0.00
   -5    9    9      1.31      0.00
   -5    9    8      5.41      0.00
   -5    9    7     -8.53      0.00
   -5    9    6      6.12      0.00
   -5    9    5     -0.50      0.00
   -5    9    4      4.71      0.00
   -5    9    3     -9.92      0.00
   -5    9    2      3.21      0.00
   -5    9    1     -1.76      0.00
    5    9    0      1.16      0.00
    5    9    1     -5.78      0.00
    5    9    2      0.29      0.00
    5    9    3     -1.03      0.00
    5    9    4      0.73      0.00
    5    9    5     -2.80      0.00
    5    9    6      1.67      0.00
    5    9    7     -0.25      0.00
    5    9    8      2.16      0.00
    5    9    9     -3.05      0.00
    5    9   10      3.54      0.00
    5    9   11     -1.25      0.00
    5    9   12      1.31      0.00
    5    9   13      0.16      0.00
    5    9   14     -0.91      0.00
    5    9   15      0.76      0.00
    5    9   16     -1.02      0.00
    5    9   17     -0.60      0.00
    5    9   18      0.80      0.00
    5    9   19      3.37      0.00
    5    9   20      0.26      0.00
    5    9   21      2.12      0.00
    5    9   22     -1.60      0.00
    5    9   23      0.79      0.00
   -5   10   23     -1.25      0.00
   -5   10   22      0.30      0.00
   -5   10   21     -2.63      0.00
   -5   10   20     -2.17      0.00
   -5   10   19     -2.06      0.00
   -5   10   18     -0.14      0.00
   -5   10   17     -1.31      0.00
   -5   10   16     -1.49      0.00
   -5   10   15     -2.21      0.00
   -5   10   14      1.70      0.00
   -5   10   13     -1.86      0.00
   -5   10   12      1.65      0.00
   -5   10   11     -5.31      0.00
   -5   10   10      0.12      0.00
   -5   10    9     -3.47      0.00
   -5   10    8     -0.28      0.00
   -5   10    7     -0.68      0.00
   -5   10    6     -0.84      0.00
   -5   10    5     -1.10      0.00
   -5   10    4     -2.41      0.00
   -5   10    3      0.98      0.00
   -5   10    2     -0.98      0.00
   -5   10    1      1.32      0.00
    5   10    0     -5.51      0.00
    5   10    1     -4.22      0.00
    5   10    2     -1.94      0.00
    5   10    3      0.70      0.00
    5   10    4     -2.60      0.00
    5   10    5     -2.96      0.00
    5   10    6      0.06      0.00
    5   10    7      1.35      0.00
    5   10    8     -0.22      0.00
    5   10    9     -1.90      0.00
    5   10   10      4.57      0.00
    5   10   11      0.41      0.00
    5   10   12      1.16      0.00
    5   10   13      0.10      0.00
    5   10   14      2.78      0.00
    5   10   15      1.32      0.00
    5   10   16      0.30      0.00
    5   10   17     -0.49      0.00
    5   10   18      1.73      0.00
    5   10   19     -0.70      0.00
    5   10   20     -2.62      0.00
    5   10   21      0.53      0.00
    5   10   22     -0.17      0.00
    5   10   23      1.79      0.00
   -5   11   22      2.77      0.00
   -5   11   21      1.46      0.00
   -5   11   20      1.92      0.00
   -5   11   19      0.52      0.00
   -5   11   18     -1.10      0.00
   -5   11   17      3.80      0.00
   -5   11   16      0.50      0.00
   -5   11   15      1.63      0.00
   -5   11   14     -1.48      0.00
   -5   11   13      2.90      0.00
   -5   11   12      0.27      0.00
   -5   11   11      1.47      0.00
   -5   11   10     -0.59      0.00
   -5   11    9      8.41      0.00
   -5   11    8     -3.30      0.00
   -5   11    7      1.02      0.00
   -5   11    6     -4.21      0.00
   -5   11    5      5.68      0.00
   -5   11    4     -2.26      0.00
   -5   11    3     -2.23      0.00
   -5   11    2     -2.74      0.00
   -5   11    1      2.13      0.00
    5   11    0      4.09      0.00
    5   11    1     -1.51      0.00
    5   11    2      0.03      0.00
    5   11    3     -2.49      0.00
    5   11    4      1.14      0.00
    5   11    5     -4.30      0.00
    5   11    6     -1.04      0.00
    5   11    7     -2.14      0.00
    5   11    8     -1.85      0.00
    5   11    9     -2.93      0.00
    5   11   10     -0.84      0.00
    5   11   11     -1.32      0.00
    5   11   12     -1.08      0.00
    5   11   13      0.23      0.00
    5   11   14      0.32      0.00
    5   11   15      1.40      0.00
    5   11   16     -0.45      0.00
    5   11   17     -1.61      0.00
    5   11   18      1.00      0.00
    5   11   19      0.27      0.00
    5   11   20     -0.10      0.00
    5   11   21     -0.46      0.00
    5   11   22     -0.65      0.00
   -5   12   22      1.00      0.00
   -5   12   21     -0.37      0.00
   -5   12   20     -2.04      0.00
   -5   12   19      1.97      0.00
   -5   12   18     -0.98      0.00
   -5   12   17      2.67      0.00
   -5   12   16     -2.89      0.00
   -5   12   15      2.13      0.00
   -5   12   14     -0.99      0.00
   -5   12   13      1.11      0.00
   -5   12   12     -0.19      0.00
   -5   12   11     -0.27      0.00
   -5   12   10     -5.16      0.00
   -5   12    9      0.02      0.00
   -5   12    8     -4.80      0.00
   -5   12    7      0.52      0.00
   -5   12    6     -0.92      0.00
   -5   12    5     -2.19      0.00
   -5   12    4     -2.53      0.00
   -5   12    3     -2.73      0.00
   -5   12    2      3.29      0.00
   -5   12    1     -2.09      0.00
    5   12    0     -2.05      0.00
    5   12    1      1.69      0.00
    5   12    2      5.23      0.00
    5   12    3      2.63      0.00
    5   12    4      0.88      0.00
    5   12    5     -2.00      0.00
    5   12    6      4.90      0.00
    5   12    7     -0.24      0.00
    5   12    8     -0.59      0.00
    5   12    9     -3.02      0.00
    5   12   10      3.55      0.00
    5   12   11     -2.24      0.00
    5   12   12     -2.24      0.00
    5   12   13     -2.87      0.00
    5   12   14     -0.28      0.00
    5   12   15     -0.73      0.00
    5   12   16     -1.45      0.00
    5   12   17      0.01      0.00
    5   12   18      2.14      0.00
    5   12   19     -0.02      0.00
    5   12   20      0.26      0.00
    5   12   21     -1.23      0.00
    5   12   22      1.40      0.00
   -5   13   21     -0.35      0.00
   -5   13   20     -0.59      0.00
   -5   13   19     -0.26      0.00
   -5   13   18     -1.25      0.00
   -5   13   17     -0.22      0.00
   -5   13   16     -2.23      0.00
   -5   13   15     -0.45      0.00
   -5   13   14     -1.92      0.00
   -5   13   13     -4.44      0.00
   -5   13   12     -2.36      0.00
   -5   13   11     -1.69      0.00
   -5   13   10     -1.35      0.00
   -5   13    9      2.84      0.00
   -5   13    8     -1.77      0.00
   -5   13    7     -0.50      0.00
   -5   13    6     -0.24      0.00
   -5   13    5      2.87      0.00
   -5   13    4      0.81      0.00
   -5   13    3      0.73      0.00
   -5   13    2      3.83      0.00
   -5   13    1      3.42      0.00
    5   13    0     -2.46      0.00
    5   13    1      2.79      0.00
    5   13    2     -5.96      0.00
    5   13    3      4.44      0.00
    5   13    4     -1.17      0.00
    5   13    5      4.79      0.00
    5   13    6     -2.19      0.00
    5   13    7      4.18      0.00
    5   13    8     -0.91      0.00
    5   13    9      1.40      0.00
    5   13   10      0.39      0.00
    5   13   11      0.26      0.00
    5   13   12      1.04      0.00
    5   13   13     -0.31      0.00
    5   13   14      2.05      0.00
    5   13   15      0.13      0.00
    5   13   16     -1.06      0.00
    5   13   17     -1.44      0.00
    5   13   18      0.51      0.00
    5   13   19     -1.16      0.00
    5   13   20     -0.41      0.00
    5   13   21     -0.78      0.00
   -5   14   20      0.18      0.00
   -5   14   19      0.34      0.00
   -5   14   18     -1.40      0.00
   -5   14   17      0.80      0.00
   -5   14   16     -2.70      0.00
   -5   14   15      3.66      0.00
   -5   14   14      0.32      0.00
   -5   14   13      2.70      0.00
   -5   14   12      3.93      0.00
   -5   14   11      3.92      0.00
   -5   14   10      0.16      0.00
   -5   14    9      3.22      0.00
   -5   14    8     -0.03      0.00
   -5   14    7      3.39      0.00
   -5   14    6      2.18      0.00
   -5   14    5      4.88      0.00
   -5   14    4     -0.78      0.00
   -5   14    3      1.19      0.00
   -5   14    2      4.94      0.00
   -5   14    1     -0.02      0.00
    5   14    0     -1.26      0.00
    5   14    1      2.78      0.00
    5   14    2      2.02      0.00
    5   14    3      2.14      0.00
    5   14    4     -5.41      0.00
    5   14    5      3.31      0.00
    5   14    6     -1.87      0.00
    5   14    7      5.08      0.00
    5   14    8     -5.14      0.00
    5   14    9      5.00      0.00
    5   14   10     -0.46      0.00
    5   14   11      3.42      0.00
    5   14   12     -2.60      0.00
    5   14   13      1.24      0.00
    5   14   14      0.63      0.00
    5   14   15      0.02      0.00
    5   14   16     -1.32      0.00
    5   14   17     -0.48      0.00
    5   14   18      1.88      0.00
    5   14   19      0.02      0.00
    5   14   20      0.52      0.00
   -5   15   19      2.19      0.00
   -5   15   18     -1.07      0.00
   -5   15   17      4.02      0.00
   -5   15   16     -3.29      0.00
   -5   15   15      3.88      0.00
   -5   15   14      0.09      0.00
   -5   15   13     -2.63      0.00
   -5   15   12     -1.16      0.00
   -5   15   11     -2.10      0.00
   -5   15   10      2.20      0.00
   -5   15    9     -0.25      0.00
   -5   15    8     -0.69      0.00
   -5   15    7     -1.18      0.00
   -5   15    6      0.26      0.00
   -5   15    5     -0.70      0.00
   -5   15    4     -2.24      0.00
   -5   15    3     -5.45      0.00
   -5   15    2      3.42      0.00
   -5   15    1     -4.10      0.00
    5   15    0     -1.24      0.00
    5   15    1     -4.10      0.00
    5   15    2     -4.00      0.00
    5   15    3     -2.92      0.00
    5   15    4     -0.14      0.00
    5   15    5     -1.70      0.00
    5   15    6     -2.23      0.00
    5   15    7     -0.39      0.00
    5   15    8      0.10      0.00
    5   15    9      0.25      0.00
    5   15   10     -0.57      0.00
    5   15   11      1.08      0.00
    5   15   12     -1.43      0.00
    5   15   13      0.72      0.00
    5   15   14      0.15      0.00
    5   15   15      2.33      0.00
    5   15   16     -0.54      0.00
    5   15   17      1.19      0.00
    5   15   18      1.07      0.00
    5   15   19     -1.76      0.00
   -5   16   18     -1.24      0.00
   -5   16   17     -0.43      0.00
   -5   16   16     -0.53      0.00
   -5   16   15      0.16      0.00
   -5   16   14      2.32      0.00
   -5   16   13     -2.82      0.00
   -5   16   12      5.24      0.00
   -5   16   11     -2.29      0.00
   -5   16   10      1.69      0.00
   -5   16    9     -1.02      0.00
   -5   16    8     -0.20      0.00
   -5   16    7     -1.64      0.00
   -5   16    6      0.22      0.00
   -5   16    5      1.03      0.00
   -5   16    4     -0.83      0.00
   -5   16    3     -3.51      0.00
   -5   16    2      2.06      0.00
   -5   16    1     -2.44      0.00
    5   16    0     -4.00      0.00
    5   16    1      5.35      0.00
    5   16    2     -0.04      0.00
    5   16    3      3.21      0.00
    5   16    4     -1.89      0.00
    5   16    5      1.95      0.00
    5   16    6     -0.07      0.00
    5   16    7     -2.45      0.00
    5   16    8     -1.32      0.00
    5   16    9     -3.55      0.00
    5   16   10      2.16      0.00
    5   16   11     -2.49      0.00
    5   16   12      1.33      0.00
    5   16   13     -0.20      0.00
    5   16   14      0.33      0.00
    5   16   15      0.07      0.00
    5   16   16     -3.44      0.00
    5   16   17      1.58      0.00
    5   16   18      0.32      0.00
   -5   17   17     -1.36      0.00
   -5   17   16      1.11      0.00
   -5   17   15     -1.60      0.00
   -5   17   14      2.00      0.00
   -5   17   13     -3.34      0.00
   -5   17   12     -0.74      0.00
   -5   17   11     -2.57      0.00
   -5   17   10      0.85      0.00
   -5   17    9      1.19      0.00
   -5   17    8     -2.53      0.00
   -5   17    7     -0.25      0.00
   -5   17    6     -0.39      0.00
   -5   17    5      1.67      0.00
   -5   17    4     -2.26      0.00
   -5   17    3     -0.70      0.00
   -5   17    2      0.10      0.00
   -5   17    1      3.27      0.00
    5   17    0      1.72      0.00
    5   17    1      2.65      0.00
    5   17    2     -3.36      0.00
    5   17    3      1.74      0.00
    5   17    4     -1.23      0.00
    5   17    5      2.04      0.00
    5   17    6     -2.31      0.00
    5   17    7      2.58      0.00
    5   17    8      1.07      0.00
    5   17    9     -0.63      0.00
    5   17   10      0.70      0.00
    5   17   11     -2.96      0.00
    5   17   12      0.17      0.00
    5   17   13     -3.09      0.00
    5   17   16     -1.72      0.00
   -5   18   16     -1.07      0.00
   -5   18   15      0.03      0.00
   -5   18   14     -1.68      0.00
   -5   18   13      0.65      0.00
   -5   18   12      1.22      0.00
   -5   18   11      0.20      0.00
   -5   18   10     -1.46      0.00
   -5   18    9      1.25      0.00
   -5   18    8     -0.63      0.00
   -5   18    7     -1.62      0.00
   -5   18    6     -0.85      0.00
   -5   18    5      0.88      0.00
   -5   18    4     -0.58      0.00
   -5   18    3     -2.11      0.00
   -5   18    2      0.89      0.00
   -5   18    1      3.67      0.00
    5   18    0     -0.05      0.00
    5   18    1     -2.03      0.00
    5   18    2      2.88      0.00
    5   18    3     -1.85      0.00
    5   18    4      2.21      0.00
    5   18    5      0.50      0.00
    5   18    6      0.99      0.00
    5   18    7      0.98      0.00
    5   18    8      0.52      0.00
    5   18    9      1.25      0.00
    5   18   10      2.36      0.00
    5   18   11      0.13      0.00
    5   18   12      3.00      0.00
   -5   19   15      3.66      0.00
   -5   19   14     -0.11      0.00
   -5   19   13      2.36      0.00
   -5   19   12     -0.37      0.00
   -5   19   11     -1.29      0.00
   -5   19   10      0.15      0.00
   -5   19    9      1.29      0.00
   -5   19    8     -0.13      0.00
   -5   19    7     -1.43      0.00
   -5   19    6      0.98      0.00
   -5   19    5      1.19      0.00
   -5   19    4      3.16      0.00
   -5   19    3      0.40      0.00
   -5   19    2      2.68      0.00
   -5   19    1      2.24      0.00
    5   19    0      2.90      0.00
    5   19    1      0.08      0.00
    5   19    2      1.89      0.00
    5   19    3     -0.91      0.00
    5   19    4      2.48      0.00
    5   19    5     -2.46      0.00
    5   19    6     -1.54      0.00
    5   19    7     -0.94      0.00
    5   19    8     -0.64      0.00
    5   19    9     -1.06      0.00
    5   19   10     -0.15      0.00
    5   19   11     -1.19      0.00
   -5   20   13     -0.43      0.00
   -5   20   12      0.53      0.00
   -5   20   11     -0.19      0.00
   -5   20   10     -1.42      0.00
   -5   20    9      1.44      0.00
   -5   20    8      1.20      0.00
   -5   20    7      1.00      0.00
   -5   20    6      0.00      0.00
   -5   20    5      1.97      0.00
   -5   20    4      1.24      0.00
   -5   20    3     -2.83      0.00
   -5   20    2     -2.59      0.00
   -5   20    1      2.12      0.00
    5   20    0     -3.02      0.00
    5   20    1     -2.65      0.00
    5   20    2     -2.26      0.00
    5   20    3     -1.69      0.00
    5   20    4      0.74      0.00
    5   20    5      0.91      0.00
   -5   21   10     -1.14      0.00
   -5   21    9      3.07      0.00
   -5   21    8     -0.22      0.00
   -5   21    7      0.43      0.00
   -5   21    6     -1.73      0.00
   -5   21    5     -0.86      0.00
   -5   21    4      0.44      0.00
   -5   21    3     -1.67      0.00
   -5   21    2     -0.41      0.00
   -5   21    1      0.73      0.00
    5   21    0      3.50      0.00
    5   21    1     -0.32      0.00
   -5   22    6     -1.40      0.00
   -5   22    5     -1.05      0.00
   -5   22    4      2.98      0.00
   -6    0   26      2.94      0.00
   -6    0   24      3.33      0.00
   -6    0   22      1.13      0.00
   -6    0   20      0.92      0.00
   -6    0   18      0.57      0.00
   -6    0   16     -4.64      0.00
   -6    0   14     -1.36      0.00
   -6    0   12     -6.45      0.00
   -6    0   10     -0.34      0.00
   -6    0    8     -8.46      0.00
   -6    0    6      2.87      0.00
   -6    0    4     -6.84      0.00
   -6    0    2      2.60      0.00
    6    0    0    -12.48      0.00
    6    0    2      0.21      0.00
    6    0    4    -11.37      0.00
    6    0    6     -0.71      0.00
    6    0    8     -2.98      0.00
    6    0   10      4.83      0.00
    6    0   12     -1.13      0.00
    6    0   14      1.87      0.00
    6    0   16     -1.29      0.00
    6    0   18     -0.63      0.00
    6    0   20     -0.28      0.00
    6    0   22      0.85      0.00
    6    0   24      4.22      0.00
   -6    1   26      0.40      0.00
   -6    1   25     -2.07      0.00
   -6    1   24     -2.87      0.00
   -6    1   23      2.16      0.00
   -6    1   22     -1.87      0.00
   -6    1   21     -1.81      0.00
   -6    1   20     -1.48      0.00
   -6    1   19      1.61      0.00
   -6    1   18     -0.31      0.00
   -6    1   17     -2.22      0.00
   -6    1   16     -1.74      0.00
   -6    1   15      5.09      0.00
   -6    1   14      0.42      0.00
   -6    1   13     -1.36      0.00
   -6    1   12     -1.02      0.00
   -6    1   11      6.36      0.00
   -6    1   10      0.55      0.00
   -6    1    9      1.92      0.00
   -6    1    8      0.46      0.00
   -6    1    7      8.62      0.00
   -6    1    6     -0.16      0.00
   -6    1    5     -0.87      0.00
   -6    1    4     -2.27      0.00
   -6    1    3      4.65      0.00
   -6    1    2     -4.67      0.00
   -6    1    1     -1.74      0.00
    6    1    0      4.12      0.00
    6    1    1      1.33      0.00
    6    1    2      1.79      0.00
    6    1    3     -4.67      0.00
    6    1    4     -0.29      0.00
    6    1    5      0.81      0.00
    6    1    6     -1.27      0.00
    6    1    7     -4.63      0.00
    6    1    8     -2.69      0.00
    6    1    9     -3.62      0.00
    6    1   10     -2.30      0.00
    6    1   11     -4.00      0.00
    6    1   12     -1.21      0.00
    6    1   13      0.57      0.00
    6    1   14      1.11      0.00
    6    1   15     -0.31      0.00
    6    1   16      1.04      0.00
    6    1   17      1.50      0.00
    6    1   18      0.23      0.00
    6    1   19      0.21      0.00
    6    1   20     -2.10      0.00
    6    1   21      0.57      0.00
    6    1   22     -2.53      0.00
    6    1   23     -1.20      0.00
    6    1   24     -1.95      0.00
   -6    2   26     -0.78      0.00
   -6    2   25      1.69      0.00
   -6    2   24     -3.29      0.00
   -6    2   23      4.47      0.00
   -6    2   22     -2.02      0.00
   -6    2   21     -0.51      0.00
   -6    2   20     -0.52      0.00
   -6    2   19      1.09      0.00
   -6    2   18      2.10      0.00
   -6    2   17      1.97      0.00
   -6    2   16     -0.36      0.00
   -6    2   15      2.02      0.00
   -6    2   14      4.48      0.00
   -6    2   13      2.87      0.00
   -6    2   12      1.03      0.00
   -6    2   11      1.45      0.00
   -6    2   10      4.97      0.00
   -6    2    9      1.14      0.00
   -6    2    8     -3.33      0.00
   -6    2    7     -4.90      0.00
   -6    2    6      4.92      0.00
   -6    2    5     -3.59      0.00
   -6    2    4     -2.05      0.00
   -6    2    3     -7.99      0.00
   -6    2    2      7.04      0.00
   -6    2    1     -4.39      0.00
    6    2    0     -1.13      0.00
    6    2    1      9.29      0.00
    6    2    2     11.03      0.00
    6    2    3      3.41      0.00
    6    2    4     -0.81      0.00
    6    2    5      2.55      0.00
    6    2    6      5.53      0.00
    6    2    7     -0.88      0.00
    6    2    8      0.78      0.00
    6    2    9     -0.49      0.00
    6    2   10      5.10      0.00
    6    2   11     -2.59      0.00
    6    2   12     -1.51      0.00
    6    2   13     -2.36      0.00
    6    2   14     -0.21      0.00
    6    2   15     -4.16      0.00
    6    2   16     -2.01      0.00
    6    2   17     -1.53      0.00
    6    2   18     -1.09      0.00
    6    2   19     -0.69      0.00
    6    2   20     -0.03      0.00
    6    2   21      0.39      0.00
    6    2   22     -1.62      0.00
    6    2   23      1.21      0.00
    6    2   24     -0.55      0.00
   -6    3   26     -1.28      0.00
   -6    3   25      0.45      0.00
   -6    3   24     -4.02      0.00
   -6    3   23      2.86      0.00
   -6    3   22      0.67      0.00
   -6    3   21     -1.71      0.00
   -6    3   20      0.40      0.00
   -6    3   19      1.31      0.00
   -6    3   18      1.45      0.00
   -6    3   17     -3.36      0.00
   -6    3   16     -2.80      0.00
   -6    3   15     -1.16      0.00
   -6    3   14      1.74      0.00
   -6    3   13     -8.96      0.00
   -6    3   12     -2.67      0.00
   -6    3   11     -6.32      0.00
   -6    3   10     -1.08      0.00
   -6    3    9    -12.02      0.00
   -6    3    8     -1.11      0.00
   -6    3    7     -5.58      0.00
   -6    3    6      1.15      0.00
   -6    3    5    -11.71      0.00
   -6    3    4      1.93      0.00
   -6    3    3     -2.35      0.00
   -6    3    2      3.24      0.00
   -6    3    1     -3.59      0.00
    6    3    0     -7.33      0.00
    6    3    1      3.75      0.00
    6    3    2     -4.64      0.00
    6    3    3      2.99      0.00
    6    3    4     -2.25      0.00
    6    3    5     10.25      0.00
    6    3    6      0.86      0.00
    6    3    7      5.91      0.00
    6    3    8     -0.18      0.00
    6    3    9      5.22      0.00
    6    3   10      1.87      0.00
    6    3   11      1.81      0.00
    6    3   12      0.98      0.00
    6    3   13      2.81      0.00
    6    3   14      3.68      0.00
    6    3   15      0.61      0.00
    6    3   16      0.70      0.00
    6    3   17      2.92      0.00
    6    3   18      0.88      0.00
    6    3   19      0.21      0.00
    6    3   20     -0.08      0.00
    6    3   21      1.21      0.00
    6    3   22      0.23      0.00
    6    3   23      1.23      0.00
    6    3   24     -0.83      0.00
    6    3   25      1.10      0.00
   -6    4   25      0.45      0.00
   -6    4   24     -2.12      0.00
   -6    4   23      1.61      0.00
   -6    4   22      0.69      0.00
   -6    4   21     -2.86      0.00
   -6    4   20     -0.66      0.00
   -6    4   19     -1.23      0.00
   -6    4   18      0.76      0.00
   -6    4   17     -1.14      0.00
   -6    4   16     -0.75      0.00
   -6    4   15     -2.38      0.00
   -6    4   14      2.57      0.00
   -6    4   13     -1.44      0.00
   -6    4   12      0.14      0.00
   -6    4   11     -0.07      0.00
   -6    4   10      3.34      0.00
   -6    4    9      4.76      0.00
   -6    4    8      0.07      0.00
   -6    4    7      3.77      0.00
   -6    4    6      3.46      0.00
   -6    4    5      9.31      0.00
   -6    4    4      1.32      0.00
   -6    4    3      6.64      0.00
   -6    4    2      4.51      0.00
   -6    4    1      8.62      0.00
    6    4    0     -1.50      0.00
    6    4    1     -0.87      0.00
    6    4    2      1.39      0.00
    6    4    3     -6.01      0.00
    6    4    4     -5.37      0.00
    6    4    5     -0.27      0.00
    6    4    6     -2.24      0.00
    6    4    7      0.10      0.00
    6    4    8     -4.93      0.00
    6    4    9      4.36      0.00
    6    4   10     -0.79      0.00
    6    4   11      3.02      0.00
    6    4   12     -1.41      0.00
    6    4   13      2.06      0.00
    6    4   14      0.10      0.00
    6    4   15     -0.74      0.00
    6    4   16     -0.92      0.00
    6    4   17      1.48      0.00
    6    4   18     -2.90      0.00
    6    4   19      1.54      0.00
    6    4   20     -0.26      0.00
    6    4   21      0.36      0.00
    6    4   22     -1.15      0.00
    6    4   23      2.32      0.00
    6    4   24     -1.03      0.00
   -6    5   25      1.39      0.00
   -6    5   24     -1.17      0.00
   -6    5   23      3.58      0.00
   -6    5   22      2.44      0.00
   -6    5   21     -0.67      0.00
   -6    5   20     -0.16      0.00
   -6    5   19      2.68      0.00
   -6    5   18      2.24      0.00
   -6    5   17      0.47      0.00
   -6    5   16     -1.43      0.00
   -6    5   15      3.58      0.00
   -6    5   14      2.37      0.00
   -6    5   13      2.89      0.00
   -6    5   12     -1.86      0.00
   -6    5   11      8.61      0.00
   -6    5   10     -0.47      0.00
   -6    5    9      4.73      0.00
   -6    5    8     -2.54      0.00
   -6    5    7     10.02      0.00
   -6    5    6      0.08      0.00
   -6    5    5      2.28      0.00
   -6    5    4     -0.64      0.00
   -6    5    3      3.09      0.00
   -6    5    2     -2.15      0.00
   -6    5    1     -5.79      0.00
    6    5    0     -0.90      0.00
    6    5    1     -1.53      0.00
    6    5    2      2.40      0.00
    6    5    3     -7.87      0.00
    6    5    4      1.75      0.00
    6    5    5     -3.76      0.00
    6    5    6      3.34      0.00
    6    5    7     -6.70      0.00
    6    5    8     -0.96      0.00
    6    5    9     -2.63      0.00
    6    5   10     -0.56      0.00
    6    5   11     -4.18      0.00
    6    5   12     -2.53      0.00
    6    5   13     -0.24      0.00
    6    5   14      3.13      0.00
    6    5   15     -2.37      0.00
    6    5   16      0.58      0.00
    6    5   17      3.04      0.00
    6    5   18      0.37      0.00
    6    5   19      0.16      0.00
    6    5   20      0.18      0.00
    6    5   21      0.66      0.00
    6    5   22     -0.07      0.00
    6    5   23      0.10      0.00
    6    5   24     -1.73      0.00
   -6    6   24     -3.04      0.00
   -6    6   23      1.06      0.00
   -6    6   22     -1.02      0.00
   -6    6   21     -0.51      0.00
   -6    6   20     -1.53      0.00
   -6    6   19      1.72      0.00
   -6    6   18     -1.93      0.00
   -6    6   17      0.26      0.00
   -6    6   16     -2.90      0.00
   -6    6   15     -0.19      0.00
   -6    6   14     -0.96      0.00
   -6    6   13      0.69      0.00
   -6    6   12     -3.53      0.00
   -6    6   11     -0.48      0.00
   -6    6   10     -2.20      0.00
   -6    6    9     -1.12      0.00
   -6    6    8     -2.85      0.00
   -6    6    7     -4.25      0.00
   -6    6    6     -3.93      0.00
   -6    6    5     -6.98      0.00
   -6    6    4     -3.50      0.00
   -6    6    3     -6.44      0.00
   -6    6    2     -1.75      0.00
   -6    6    1     -3.72      0.00
    6    6    0     -1.47      0.00
    6    6    1      5.19      0.00
    6    6    2     -2.17      0.00
    6    6    3     -0.21      0.00
    6    6    4     -1.05      0.00
    6    6    5     -1.24      0.00
    6    6    6      0.01      0.00
    6    6    7     -3.91      0.00
    6    6    8      1.36      0.00
    6    6    9     -1.76      0.00
    6    6   10      1.88      0.00
    6    6   11     -1.89      0.00
    6    6   12      1.16      0.00
    6    6   13     -3.72      0.00
    6    6   14      0.70      0.00
    6    6   15     -4.38      0.00
    6    6   16      0.91      0.00
    6    6   17     -2.52      0.00
    6    6   18     -0.85      0.00
    6    6   19     -0.76      0.00
    6    6   20      1.09      0.00
    6    6   21     -2.67      0.00
    6    6   22      1.13      0.00
    6    6   23      1.64      0.00
    6    6   24      0.56      0.00
   -6    7   24     -3.04      0.00
   -6    7   23      2.55      0.00
   -6    7   22     -0.51      0.00
   -6    7   21     -0.70      0.00
   -6    7   20     -4.75      0.00
   -6    7   19      2.06      0.00
   -6    7   18     -0.29      0.00
   -6    7   17      0.81      0.00
   -6    7   16      0.73      0.00
   -6    7   15      1.21      0.00
   -6    7   14      2.83      0.00
   -6    7   13     -1.99      0.00
   -6    7   12     -0.46      0.00
   -6    7   11      0.49      0.00
   -6    7   10      1.67      0.00
   -6    7    9     -3.19      0.00
   -6    7    8     -1.40      0.00
   -6    7    7      2.00      0.00
   -6    7    6      0.68      0.00
   -6    7    5      0.82      0.00
   -6    7    4     -0.84      0.00
   -6    7    3      6.22      0.00
   -6    7    2     -3.83      0.00
   -6    7    1      0.08      0.00
    6    7    0      1.73      0.00
    6    7    1      6.56      0.00
    6    7    2      1.23      0.00
    6    7    3      1.94      0.00
    6    7    4      1.04      0.00
    6    7    5      6.84      0.00
    6    7    6      1.45      0.00
    6    7    7      0.05      0.00
    6    7    8     -1.38      0.00
    6    7    9      2.78      0.00
    6    7   10     -0.45      0.00
    6    7   11     -1.13      0.00
    6    7   12     -0.19      0.00
    6    7   13      2.61      0.00
    6    7   14      3.31      0.00
    6    7   15     -2.18      0.00
    6    7   16      1.56      0.00
    6    7   17      1.04      0.00
    6    7   18     -0.03      0.00
    6    7   19     -1.90      0.00
    6    7   20      1.22      0.00
    6    7   21     -0.86      0.00
    6    7   22      0.27      0.00
    6    7   23     -1.97      0.00
    6    7   24     -3.28      0.00
   -6    8   23      2.18      0.00
   -6    8   22     -1.16      0.00
   -6    8   21      1.10      0.00
   -6    8   20     -0.15      0.00
   -6    8   19      5.00      0.00
   -6    8   18      0.22      0.00
   -6    8   17     -0.72      0.00
   -6    8   16     -0.40      0.00
   -6    8   15     -1.72      0.00
   -6    8   14      0.47      0.00
   -6    8   13     -0.37      0.00
   -6    8   12     -0.14      0.00
   -6    8   11      0.24      0.00
   -6    8   10      0.43      0.00
   -6    8    9     -0.10      0.00
   -6    8    8      0.19      0.00
   -6    8    7      3.40      0.00
   -6    8    6     -1.48      0.00
   -6    8    5      0.74      0.00
   -6    8    4     -1.82      0.00
   -6    8    3      5.17      0.00
   -6    8    2     -0.31      0.00
   -6    8    1      1.91      0.00
    6    8    0      3.69      0.00
    6    8    1     -0.60      0.00
    6    8    2      1.93      0.00
    6    8    3      0.87      0.00
    6    8    4      2.21      0.00
    6    8    5     -1.07      0.00
    6    8    6      1.70      0.00
    6    8    7      2.31      0.00
    6    8    8      3.13      0.00
    6    8    9      1.42      0.00
    6    8   10      0.50      0.00
    6    8   11      1.89      0.00
    6    8   12     -0.01      0.00
    6    8   13     -1.36      0.00
    6    8   14     -0.27      0.00
    6    8   15     -0.45      0.00
    6    8   16      0.03      0.00
    6    8   17     -0.13      0.00
    6    8   18      0.62      0.00
    6    8   19      1.13      0.00
    6    8   20     -0.23      0.00
    6    8   21     -2.66      0.00
    6    8   22      1.22      0.00
    6    8   23      0.90      0.00
   -6    9   23      2.38      0.00
   -6    9   22      3.09      0.00
   -6    9   21      0.53      0.00
   -6    9   20     -1.76      0.00
   -6    9   19      0.39      0.00
   -6    9   18     -0.86      0.00
   -6    9   17     -1.94      0.00
   -6    9   16      0.76      0.00
   -6    9   15     -0.28      0.00
   -6    9   14      0.30      0.00
   -6    9   13     -2.72      0.00
   -6    9   12     -0.05      0.00
   -6    9   11     -1.28      0.00
   -6    9   10      2.12      0.00
   -6    9    9     -4.46      0.00
   -6    9    8      0.89      0.00
   -6    9    7     -1.59      0.00
   -6    9    6      1.58      0.00
   -6    9    5     -3.57      0.00
   -6    9    4      2.34      0.00
   -6    9    3      1.14      0.00
   -6    9    2      2.64      0.00
   -6    9    1     -4.89      0.00
    6    9    0     -4.69      0.00
    6    9    1     -0.45      0.00
    6    9    2     -4.70      0.00
    6    9    3     -2.29      0.00
    6    9    4     -0.18      0.00
    6    9    5      2.47      0.00
    6    9    6     -0.94      0.00
    6    9    7     -2.72      0.00
    6    9    8      0.11      0.00
    6    9    9      1.70      0.00
    6    9   10      0.29      0.00
    6    9   11     -1.60      0.00
    6    9   12      1.01      0.00
    6    9   13      0.84      0.00
    6    9   14      1.21      0.00
    6    9   15     -1.11      0.00
    6    9   16      0.37      0.00
    6    9   17      0.50      0.00
    6    9   18     -1.37      0.00
    6    9   19      0.69      0.00
    6    9   20      1.70      0.00
    6    9   21      2.36      0.00
    6    9   22      2.81      0.00
    6    9   23     -1.32      0.00
   -6   10   22     -0.15      0.00
   -6   10   21     -4.31      0.00
   -6   10   20     -1.69      0.00
   -6   10   19      0.82      0.00
   -6   10   18      0.77      0.00
   -6   10   17     -3.46      0.00
   -6   10   16      1.10      0.00
   -6   10   15     -0.39      0.00
   -6   10   14      1.29      0.00
   -6   10   13     -1.17      0.00
   -6   10   12      1.95      0.00
   -6   10   11      0.19      0.00
   -6   10   10      1.96      0.00
   -6   10    9     -1.87      0.00
   -6   10    8      2.77      0.00
   -6   10    7      3.47      0.00
   -6   10    6      3.31      0.00
   -6   10    5     -0.46      0.00
   -6   10    4      1.55      0.00
   -6   10    3      3.85      0.00
   -6   10    2     -0.58      0.00
   -6   10    1     -1.11      0.00
    6   10    0      0.02      0.00
    6   10    1     -1.77      0.00
    6   10    2     -1.50      0.00
    6   10    3     -0.48      0.00
    6   10    4     -3.64      0.00
    6   10    5     -3.37      0.00
    6   10    6     -2.78      0.00
    6   10    7      2.50      0.00
    6   10    8     -3.09      0.00
    6   10    9     -0.96      0.00
    6   10   10     -2.22      0.00
    6   10   11      2.16      0.00
    6   10   12     -0.90      0.00
    6   10   13     -1.02      0.00
    6   10   14      0.16      0.00
    6   10   15      0.46      0.00
    6   10   16     -1.39      0.00
    6   10   17      0.60      0.00
    6   10   18     -0.46      0.00
    6   10   19      1.50      0.00
    6   10   20     -4.98      0.00
    6   10   21     -2.07      0.00
    6   10   22     -1.56      0.00
   -6   11   21      0.20      0.00
   -6   11   20     -0.79      0.00
   -6   11   19      0.98      0.00
   -6   11   18     -0.32      0.00
   -6   11   17     -0.65      0.00
   -6   11   16      0.71      0.00
   -6   11   15      2.92      0.00
   -6   11   14     -1.96      0.00
   -6   11   13      1.43      0.00
   -6   11   12     -0.84      0.00
   -6   11   11      5.95      0.00
   -6   11   10     -1.23      0.00
   -6   11    9      3.00      0.00
   -6   11    8     -1.09      0.00
   -6   11    7      4.16      0.00
   -6   11    6     -2.83      0.00
   -6   11    5     -1.69      0.00
   -6   11    4     -4.04      0.00
   -6   11    3      3.19      0.00
   -6   11    2     -4.21      0.00
   -6   11    1     -1.10      0.00
    6   11    0      4.06      0.00
    6   11    1     -1.33      0.00
    6   11    2      3.66      0.00
    6   11    3     -4.51      0.00
    6   11    4      5.90      0.00
    6   11    5     -1.89      0.00
    6   11    6     -0.02      0.00
    6   11    7     -2.93      0.00
    6   11    8      0.35      0.00
    6   11    9      1.44      0.00
    6   11   10     -0.56      0.00
    6   11   11     -0.08      0.00
    6   11   12      0.46      0.00
    6   11   13      1.21      0.00
    6   11   14      0.72      0.00
    6   11   15      1.46      0.00
    6   11   16     -0.09      0.00
    6   11   17      0.77      0.00
    6   11   18     -1.28      0.00
    6   11   19      2.81      0.00
    6   11   20     -0.47      0.00
    6   11   21      3.80      0.00
   -6   12   20     -0.33      0.00
   -6   12   19      5.16      0.00
   -6   12   18      1.22      0.00
   -6   12   17      1.78      0.00
   -6   12   16     -1.22      0.00
   -6   12   15      6.19      0.00
   -6   12   14     -1.96      0.00
   -6   12   13      1.26      0.00
   -6   12   12     -2.83      0.00
   -6   12   11      3.14      0.00
   -6   12   10     -3.92      0.00
   -6   12    9     -3.60      0.00
   -6   12    8     -3.23      0.00
   -6   12    7     -1.13      0.00
   -6   12    6     -1.69      0.00
   -6   12    5     -5.16      0.00
   -6   12    4     -1.55      0.00
   -6   12    3     -0.27      0.00
   -6   12    2     -2.83      0.00
   -6   12    1     -5.42      0.00
    6   12    0     -0.17      0.00
    6   12    1      1.26      0.00
    6   12    2      3.23      0.00
    6   12    3      0.45      0.00
    6   12    4      2.53      0.00
    6   12    5     -2.39      0.00
    6   12    6      4.55      0.00
    6   12    7      2.31      0.00
    6   12    8      0.58      0.00
    6   12    9     -3.45      0.00
    6   12   10      1.71      0.00
    6   12   11     -1.54      0.00
    6   12   12     -0.48      0.00
    6   12   13     -2.80      0.00
    6   12   14      1.26      0.00
    6   12   15     -0.21      0.00
    6   12   16     -1.06      0.00
    6   12   17      0.30      0.00
    6   12   18      1.65      0.00
    6   12   19      0.44      0.00
    6   12   20     -2.68      0.00
   -6   13   19     -0.96      0.00
   -6   13   18     -2.71      0.00
   -6   13   17     -1.52      0.00
   -6   13   16     -3.69      0.00
   -6   13   15      0.40      0.00
   -6   13   14     -3.00      0.00
   -6   13   13     -3.61      0.00
   -6   13   12      0.24      0.00
   -6   13   11     -0.65      0.00
   -6   13   10      0.98      0.00
   -6   13    9     -5.11      0.00
   -6   13    8      2.09      0.00
   -6   13    7     -1.15      0.00
   -6   13    6      2.74      0.00
   -6   13    5     -3.17      0.00
   -6   13    4      1.21      0.00
   -6   13    3      2.01      0.00
   -6   13    2      4.29      0.00
   -6   13    1      2.46      0.00
    6   13    0     -4.57      0.00
    6   13    1      4.20      0.00
    6   13    2     -2.84      0.00
    6   13    3      3.85      0.00
    6   13    4      0.17      0.00
    6   13    5      3.21      0.00
    6   13    6     -5.37      0.00
    6   13    7      1.20      0.00
    6   13    8     -2.30      0.00
    6   13    9      1.59      0.00
    6   13   10      0.50      0.00
    6   13   11     -0.37      0.00
    6   13   12      1.10      0.00
    6   13   13     -1.61      0.00
    6   13   14      0.23      0.00
    6   13   15     -0.64      0.00
    6   13   16     -1.13      0.00
    6   13   17     -1.33      0.00
    6   13   18      0.16      0.00
   -6   14   18     -0.61      0.00
   -6   14   17      0.54      0.00
   -6   14   16     -2.01      0.00
   -6   14   15      4.16      0.00
   -6   14   14      1.37      0.00
   -6   14   13     -3.78      0.00
   -6   14   12      0.84      0.00
   -6   14   11     -1.29      0.00
   -6   14   10      2.53      0.00
   -6   14    9     -3.74      0.00
   -6   14    8      3.18      0.00
   -6   14    7      3.10      0.00
   -6   14    6      3.35      0.00
   -6   14    5      1.16      0.00
   -6   14    4      3.08      0.00
   -6   14    3      5.82      0.00
   -6   14    2      1.45      0.00
   -6   14    1     -0.42      0.00
    6   14    0     -1.97      0.00
    6   14    1     -3.11      0.00
    6   14    2     -2.91      0.00
    6   14    3     -1.73      0.00
    6   14    4     -3.59      0.00
    6   14    5      1.99      0.00
    6   14    6      0.60      0.00
    6   14    7      8.02      0.00
    6   14    8     -2.67      0.00
    6   14    9      1.41      0.00
    6   14   10      0.64      0.00
    6   14   11      0.05      0.00
    6   14   12     -0.87      0.00
    6   14   13     -0.13      0.00
    6   14   14      2.08      0.00
    6   14   15     -0.18      0.00
    6   14   16     -1.77      0.00
    6   14   17      0.86      0.00
   -6   15   17      3.99      0.00
   -6   15   16     -3.77      0.00
   -6   15   15      1.43      0.00
   -6   15   14     -0.22      0.00
   -6   15   13     -1.05      0.00
   -6   15   12      3.05      0.00
   -6   15   11      1.70      0.00
   -6   15   10      4.27      0.00
   -6   15    9     -0.12      0.00
   -6   15    8      0.39      0.00
   -6   15    7      0.25      0.00
   -6   15    6     -0.31      0.00
   -6   15    5     -0.55      0.00
   -6   15    4     -2.78      0.00
   -6   15    3     -2.23      0.00
   -6   15    2     -1.20      0.00
   -6   15    1     -0.95      0.00
    6   15    0     -0.13      0.00
    6   15    1      0.74      0.00
    6   15    2      1.96      0.00
    6   15    3      0.06      0.00
    6   15    4      1.27      0.00
    6   15    5     -2.35      0.00
    6   15    6     -5.13      0.00
    6   15    7     -0.85      0.00
    6   15    8     -2.42      0.00
    6   15    9      0.24      0.00
    6   15   10      1.83      0.00
    6   15   11     -0.07      0.00
    6   15   12      0.50      0.00
    6   15   13     -1.28      0.00
    6   15   14      1.19      0.00
    6   15   15      0.05      0.00
    6   15   16     -0.87      0.00
   -6   16   16     -0.78      0.00
   -6   16   15      3.11      0.00
   -6   16   14      3.51      0.00
   -6   16   13     -0.66      0.00
   -6   16   12      0.79      0.00
   -6   16   11      0.49      0.00
   -6   16   10      0.60      0.00
   -6   16    9     -0.61      0.00
   -6   16    8     -0.48      0.00
   -6   16    7      2.58      0.00
   -6   16    6      0.35      0.00
   -6   16    5     -1.35      0.00
   -6   16    4     -2.09      0.00
   -6   16    3      1.09      0.00
   -6   16    2      0.97      0.00
   -6   16    1     -4.74      0.00
    6   16    0     -3.37      0.00
    6   16    1      2.52      0.00
    6   16    2     -2.86      0.00
    6   16    3      0.05      0.00
    6   16    4     -1.85      0.00
    6   16    5      0.61      0.00
    6   16    6      1.27      0.00
    6   16    7      3.32      0.00
    6   16    8     -2.27      0.00
    6   16    9     -0.86      0.00
    6   16   10      1.31      0.00
    6   16   11     -0.41      0.00
    6   16   12      0.10      0.00
    6   16   13      1.79      0.00
    6   16   14      1.98      0.00
    6   16   15     -0.74      0.00
   -6   17   15     -3.10      0.00
   -6   17   14     -1.22      0.00
   -6   17   13     -1.34      0.00
   -6   17   12     -2.36      0.00
   -6   17   11     -0.75      0.00
   -6   17   10     -1.35      0.00
   -6   17    9      1.04      0.00
   -6   17    8     -2.37      0.00
   -6   17    7     -1.17      0.00
   -6   17    6     -1.86      0.00
   -6   17    5      2.38      0.00
   -6   17    4     -0.54      0.00
   -6   17    3     -0.04      0.00
   -6   17    2     -1.66      0.00
   -6   17    1     -0.35      0.00
    6   17    0     -2.67      0.00
    6   17    1      4.11      0.00
    6   17    2      0.81      0.00
    6   17    3      3.32      0.00
    6   17    4      1.64      0.00
    6   17    5     -0.04      0.00
    6   17    6     -0.67      0.00
    6   17    7     -0.27      0.00
    6   17    8     -0.68      0.00
    6   17    9     -0.95      0.00
    6   17   10      2.19      0.00
    6   17   11     -1.98      0.00
    6   17   12     -2.16      0.00
    6   17   13     -0.24      0.00
    6   17   14      0.41      0.00
   -6   18   13      1.46      0.00
   -6   18   12     -0.45      0.00
   -6   18   11      0.30      0.00
   -6   18   10     -1.24      0.00
   -6   18    9     -0.36      0.00
   -6   18    8     -3.43      0.00
   -6   18    7     -0.68      0.00
   -6   18    6     -1.63      0.00
   -6   18    5     -1.18      0.00
   -6   18    4     -4.80      0.00
   -6   18    3      0.69      0.00
   -6   18    2      4.01      0.00
   -6   18    1      1.32      0.00
    6   18    0      0.52      0.00
    6   18    1     -0.47      0.00
    6   18    2     -0.59      0.00
    6   18    3     -1.91      0.00
    6   18    4      0.34      0.00
    6   18    5     -0.42      0.00
    6   18    6      3.24      0.00
    6   18    7     -0.13      0.00
    6   18    8      1.01      0.00
    6   18    9     -3.90      0.00
    6   18   10      4.18      0.00
    6   18   11     -3.29      0.00
    6   18   12      2.65      0.00
   -6   19   11     -1.04      0.00
   -6   19   10     -0.42      0.00
   -6   19    9      3.55      0.00
   -6   19    8      0.74      0.00
   -6   19    7      2.86      0.00
   -6   19    6      0.40      0.00
   -6   19    5      3.86      0.00
   -6   19    4      3.72      0.00
   -6   19    3      1.76      0.00
   -6   19    2     -1.10      0.00
   -6   19    1     -4.50      0.00
    6   19    0      0.00      0.00
    6   19    1     -0.08      0.00
    6   19    2      0.78      0.00
    6   19    3     -1.88      0.00
    6   19    4     -0.73      0.00
    6   19    5     -1.53      0.00
    6   19    6     -0.73      0.00
    6   19    7     -0.61      0.00
    6   19    8      1.25      0.00
    6   19    9      0.01      0.00
    6   19   10      4.70      0.00
    6   19   11     -5.09      0.00
   -6   20    8     -3.05      0.00
   -6   20    7      0.28      0.00
   -6   20    6      0.02      0.00
   -6   20    5      0.73      0.00
   -6   20    4     -2.70      0.00
   -6   20    3     -1.36      0.00
   -6   20    2      2.06      0.00
   -6   20    1      3.18      0.00
    6   20    0      1.33      0.00
    6   20    1     -0.75      0.00
    6   20    9     -1.53      0.00
   -6   21    7      1.16      0.00
   -6   21    6     -1.04      0.00
   -6   21    5     -1.75      0.00
   -6   21    4     -0.06      0.00
   -6   21    3      1.69      0.00
   -7    0   26      2.12      0.00
   -7    0   24      2.05      0.00
   -7    0   22     -2.53      0.00
   -7    0   20     -1.14      0.00
   -7    0   18     -2.17      0.00
   -7    0   16     -5.73      0.00
   -7    0   14     -3.70      0.00
   -7    0   12     -3.17      0.00
   -7    0   10     -1.58      0.00
   -7    0    8     -0.96      0.00
   -7    0    6     -1.30      0.00
   -7    0    4      3.93      0.00
   -7    0    2     -1.45      0.00
    7    0    0      2.84      0.00
    7    0    2     -1.52      0.00
    7    0    4      1.93      0.00
    7    0    6     -3.95      0.00
    7    0    8     -1.46      0.00
    7    0   10     -4.61      0.00
    7    0   12     -0.90      0.00
    7    0   14     -3.03      0.00
    7    0   16      1.01      0.00
    7    0   18     -3.25      0.00
    7    0   20      1.14      0.00
    7    0   22     -1.21      0.00
   -7    1   26      0.55      0.00
   -7    1   25     -2.52      0.00
   -7    1   24     -0.13      0.00
   -7    1   23      0.80      0.00
   -7    1   22      0.99      0.00
   -7    1   21      0.27      0.00
   -7    1   20      2.11      0.00
   -7    1   19      2.12      0.00
   -7    1   18      0.40      0.00
   -7    1   17      0.16      0.00
   -7    1   16     -0.14      0.00
   -7    1   15      3.83      0.00
   -7    1   14      2.28      0.00
   -7    1   13     -1.03      0.00
   -7    1   12      3.11      0.00
   -7    1   11      3.82      0.00
   -7    1   10      2.41      0.00
   -7    1    9      1.39      0.00
   -7    1    8      1.59      0.00
   -7    1    7      6.08      0.00
   -7    1    6      1.80      0.00
   -7    1    5      0.67      0.00
   -7    1    4      0.70      0.00
   -7    1    3      2.64      0.00
   -7    1    2     -2.24      0.00
   -7    1    1      0.24      0.00
    7    1    0      1.12      0.00
    7    1    1     -0.72      0.00
    7    1    2      3.03      0.00
    7    1    3     -1.10      0.00
    7    1    4      4.25      0.00
    7    1    5     -2.38      0.00
    7    1    6      4.66      0.00
    7    1    7     -1.81      0.00
    7    1    8      1.93      0.00
    7    1    9     -1.26      0.00
    7    1   10      1.30      0.00
    7    1   11     -0.44      0.00
    7    1   12      0.62      0.00
    7    1   13      0.29      0.00
    7    1   14      2.18      0.00
    7    1   15     -0.94      0.00
    7    1   16     -0.01      0.00
    7    1   17     -0.90      0.00
    7    1   18     -0.52      0.00
    7    1   19      1.34      0.00
    7    1   20     -0.57      0.00
    7    1   21     -0.07      0.00
    7    1   22      2.19      0.00
   -7    2   26      0.97      0.00
   -7    2   25     -1.38      0.00
   -7    2   24      1.94      0.00
   -7    2   23      1.49      0.00
   -7    2   22      0.34      0.00
   -7    2   21     -1.10      0.00
   -7    2   20      0.91      0.00
   -7    2   19     -1.34      0.00
   -7    2   18      0.65      0.00
   -7    2   17      2.20      0.00
   -7    2   16      2.09      0.00
   -7    2   15     -1.11      0.00
   -7    2   14      3.20      0.00
   -7    2   13      1.76      0.00
   -7    2   12      2.53      0.00
   -7    2   11     -0.41      0.00
   -7    2   10     -1.94      0.00
   -7    2    9      3.53      0.00
   -7    2    8     -0.67      0.00
   -7    2    7     -2.29      0.00
   -7    2    6     -3.99      0.00
   -7    2    5     -3.28      0.00
   -7    2    4      0.77      0.00
   -7    2    3     -5.64      0.00
   -7    2    2     -3.04      0.00
   -7    2    1     -5.53      0.00
    7    2    0      2.56      0.00
    7    2    1      7.50      0.00
    7    2    2     -3.03      0.00
    7    2    3      3.99      0.00
    7    2    4      2.50      0.00
    7    2    5      0.95      0.00
    7    2    6      0.99      0.00
    7    2    7      0.74      0.00
    7    2    8      5.42      0.00
    7    2    9     -0.90      0.00
    7    2   10      0.42      0.00
    7    2   11     -0.66      0.00
    7    2   12      1.93      0.00
    7    2   13     -1.95      0.00
    7    2   14     -0.88      0.00
    7    2   15     -1.48      0.00
    7    2   16      4.03      0.00
    7    2   17     -1.13      0.00
    7    2   18     -1.17      0.00
    7    2   19     -1.08      0.00
    7    2   20     -0.47      0.00
    7    2   21     -4.37      0.00
    7    2   22     -2.60      0.00
   -7    3   25     -0.78      0.00
   -7    3   24      1.18      0.00
   -7    3   23     -2.01      0.00
   -7    3   22     -1.21      0.00
   -7    3   21     -2.48      0.00
   -7    3   20      0.40      0.00
   -7    3   19     -0.34      0.00
   -7    3   18     -0.48      0.00
   -7    3   17     -2.96      0.00
   -7    3   16     -0.83      0.00
   -7    3   15     -2.43      0.00
   -7    3   14     -0.59      0.00
   -7    3   13     -5.48      0.00
   -7    3   12     -2.86      0.00
   -7    3   11     -1.88      0.00
   -7    3   10     -3.61      0.00
   -7    3    9     -5.83      0.00
   -7    3    8     -1.69      0.00
   -7    3    7     -3.93      0.00
   -7    3    6      0.17      0.00
   -7    3    5     -6.48      0.00
   -7    3    4      3.10      0.00
   -7    3    3     -2.24      0.00
   -7    3    2      1.53      0.00
   -7    3    1     -2.97      0.00
    7    3    0     -6.24      0.00
    7    3    1      2.18      0.00
    7    3    2     -3.19      0.00
    7    3    3      4.52      0.00
    7    3    4     -4.78      0.00
    7    3    5      3.83      0.00
    7    3    6     -1.51      0.00
    7    3    7      2.98      0.00
    7    3    8     -1.86      0.00
    7    3    9      3.28      0.00
    7    3   10      1.86      0.00
    7    3   11      2.64      0.00
    7    3   12     -0.59      0.00
    7    3   13      2.50      0.00
    7    3   14      1.25      0.00
    7    3   15     -1.00      0.00
    7    3   16     -1.29      0.00
    7    3   17     -0.38      0.00
    7    3   18      1.90      0.00
    7    3   19      1.28      0.00
    7    3   20      1.82      0.00
    7    3   21      1.77      0.00
    7    3   22      4.08      0.00
   -7    4   25     -5.16      0.00
   -7    4   24      0.04      0.00
   -7    4   23     -0.19      0.00
   -7    4   22      0.47      0.00
   -7    4   21      1.10      0.00
   -7    4   20      1.33      0.00
   -7    4   19     -0.61      0.00
   -7    4   18     -0.69      0.00
   -7    4   17      0.80      0.00
   -7    4   16      3.12      0.00
   -7    4   15     -2.67      0.00
   -7    4   14     -0.35      0.00
   -7    4   13      1.81      0.00
   -7    4   12      3.70      0.00
   -7    4   11     -0.46      0.00
   -7    4   10     -1.27      0.00
   -7    4    9      2.57      0.00
   -7    4    8      5.72      0.00
   -7    4    7      1.11      0.00
   -7    4    6     -1.18      0.00
   -7    4    5      6.36      0.00
   -7    4    4      3.62      0.00
   -7    4    3      5.80      0.00
   -7    4    2     -2.71      0.00
   -7    4    1      7.42      0.00
    7    4    0      1.74      0.00
    7    4    1     -4.80      0.00
    7    4    2     -4.28      0.00
    7    4    3     -3.71      0.00
    7    4    4      0.99      0.00
    7    4    5     -2.20      0.00
    7    4    6     -2.68      0.00
    7    4    7      0.56      0.00
    7    4    8     -0.79      0.00
    7    4    9     -1.59      0.00
    7    4   10     -3.10      0.00
    7    4   11      1.46      0.00
    7    4   12      1.00      0.00
    7    4   13      0.57      0.00
    7    4   14      0.20      0.00
    7    4   15      2.81      0.00
    7    4   16      2.50      0.00
    7    4   17      0.91      0.00
    7    4   18     -0.67      0.00
    7    4   19      0.64      0.00
    7    4   20     -0.19      0.00
    7    4   21     -1.14      0.00
    7    4   22      0.00      0.00
   -7    5   24      2.70      0.00
   -7    5   23      2.04      0.00
   -7    5   22     -2.39      0.00
   -7    5   21      1.02      0.00
   -7    5   20     -1.38      0.00
   -7    5   19      1.31      0.00
   -7    5   18     -0.38      0.00
   -7    5   17     -0.10      0.00
   -7    5   16      0.89      0.00
   -7    5   15      1.21      0.00
   -7    5   14     -0.25      0.00
   -7    5   13      1.65      0.00
   -7    5   12     -0.97      0.00
   -7    5   11      4.44      0.00
   -7    5   10     -1.16      0.00
   -7    5    9      2.77      0.00
   -7    5    8     -0.30      0.00
   -7    5    7      6.66      0.00
   -7    5    6     -4.41      0.00
   -7    5    5      3.53      0.00
   -7    5    4     -3.61      0.00
   -7    5    3      5.62      0.00
   -7    5    2     -5.37      0.00
   -7    5    1      0.47      0.00
    7    5    0      0.21      0.00
    7    5    1      1.58      0.00
    7    5    2      2.43      0.00
    7    5    3     -5.13      0.00
    7    5    4     -1.19      0.00
    7    5    5     -4.42      0.00
    7    5    6      1.12      0.00
    7    5    7     -4.82      0.00
    7    5    8     -1.70      0.00
    7    5    9     -1.51      0.00
    7    5   10      0.50      0.00
    7    5   11     -3.85      0.00
    7    5   12     -2.09      0.00
    7    5   13     -2.75      0.00
    7    5   14     -0.03      0.00
    7    5   15     -4.07      0.00
    7    5   16     -1.58      0.00
    7    5   17      0.23      0.00
    7    5   18      0.17      0.00
    7    5   19     -0.22      0.00
    7    5   20      0.03      0.00
    7    5   21      0.25      0.00
    7    5   22      0.98      0.00
   -7    6   24     -1.95      0.00
   -7    6   23      1.91      0.00
   -7    6   22     -2.81      0.00
   -7    6   21      3.50      0.00
   -7    6   20      0.41      0.00
   -7    6   19      1.56      0.00
   -7    6   18     -3.62      0.00
   -7    6   17      0.61      0.00
   -7    6   16      0.89      0.00
   -7    6   15     -0.53      0.00
   -7    6   14     -5.51      0.00
   -7    6   13      1.25      0.00
   -7    6   12      0.16      0.00
   -7    6   11     -0.28      0.00
   -7    6   10     -6.13      0.00
   -7    6    9     -1.43      0.00
   -7    6    8      1.09      0.00
   -7    6    7     -2.09      0.00
   -7    6    6     -6.24      0.00
   -7    6    5     -0.75      0.00
   -7    6    4      2.72      0.00
   -7    6    3     -2.40      0.00
   -7    6    2     -3.30      0.00
   -7    6    1     -3.56      0.00
    7    6    0      3.02      0.00
    7    6    1      4.81      0.00
    7    6    2      0.15      0.00
    7    6    3      3.41      0.00
    7    6    4      4.99      0.00
    7    6    5      0.50      0.00
    7    6    6      0.89      0.00
    7    6    7      1.25      0.00
    7    6    8      0.61      0.00
    7    6    9     -1.21      0.00
    7    6   10     -1.06      0.00
    7    6   11      0.94      0.00
    7    6   12      1.13      0.00
    7    6   13     -0.70      0.00
    7    6   14      2.13      0.00
    7    6   15      0.01      0.00
    7    6   16      0.25      0.00
    7    6   17     -0.11      0.00
    7    6   18     -1.10      0.00
    7    6   19     -0.59      0.00
    7    6   20     -2.03      0.00
    7    6   21     -0.03      0.00
    7    6   22     -0.12      0.00
   -7    7   23      1.14      0.00
   -7    7   22     -3.23      0.00
   -7    7   21     -0.32      0.00
   -7    7   20     -2.56      0.00
   -7    7   19     -0.26      0.00
   -7    7   18     -1.19      0.00
   -7    7   17      0.01      0.00
   -7    7   16      1.70      0.00
   -7    7   15      0.32      0.00
   -7    7   14      0.88      0.00
   -7    7   13     -0.31      0.00
   -7    7   12      3.25      0.00
   -7    7   11      0.78      0.00
   -7    7   10      2.70      0.00
   -7    7    9     -1.82      0.00
   -7    7    8      4.01      0.00
   -7    7    7      1.40      0.00
   -7    7    6      1.30      0.00
   -7    7    5     -2.48      0.00
   -7    7    4      0.75      0.00
   -7    7    3      1.00      0.00
   -7    7    2     -1.06      0.00
   -7    7    1     -2.64      0.00
    7    7    0     -0.68      0.00
    7    7    1      0.98      0.00
    7    7    2      1.83      0.00
    7    7    3     -3.17      0.00
    7    7    4      2.54      0.00
    7    7    5      1.39      0.00
    7    7    6      3.40      0.00
    7    7    7     -0.53      0.00
    7    7    8      2.13      0.00
    7    7    9      2.95      0.00
    7    7   10      1.54      0.00
    7    7   11      0.09      0.00
    7    7   12     -0.82      0.00
    7    7   13      0.13      0.00
    7    7   14     -1.20      0.00
    7    7   15     -1.49      0.00
    7    7   16     -0.59      0.00
    7    7   17      0.79      0.00
    7    7   18     -0.45      0.00
    7    7   19      1.42      0.00
    7    7   20      0.77      0.00
    7    7   21      1.65      0.00
    7    7   22     -1.39      0.00
   -7    8   23      1.68      0.00
   -7    8   22     -0.96      0.00
   -7    8   21      0.27      0.00
   -7    8   20      4.21      0.00
   -7    8   19      1.84      0.00
   -7    8   18      0.01      0.00
   -7    8   17     -0.68      0.00
   -7    8   16      5.08      0.00
   -7    8   15     -0.40      0.00
   -7    8   14     -0.36      0.00
   -7    8   13     -1.42      0.00
   -7    8   12      3.62      0.00
   -7    8   11     -0.74      0.00
   -7    8   10     -3.27      0.00
   -7    8    9     -1.34      0.00
   -7    8    8      2.10      0.00
   -7    8    7      0.41      0.00
   -7    8    6     -4.66      0.00
   -7    8    5     -0.64      0.00
   -7    8    4      1.73      0.00
   -7    8    3      1.56      0.00
   -7    8    2     -4.01      0.00
   -7    8    1     -0.18      0.00
    7    8    0      1.73      0.00
    7    8    1     -0.80      0.00
    7    8    2     -1.01      0.00
    7    8    3     -0.73      0.00
    7    8    4      2.06      0.00
    7    8    5     -1.35      0.00
    7    8    6      0.59      0.00
    7    8    7     -0.34      0.00
    7    8    8      2.78      0.00
    7    8    9     -1.76      0.00
    7    8   10      1.73      0.00
    7    8   11     -0.20      0.00
    7    8   12      2.36      0.00
    7    8   13      1.85      0.00
    7    8   14      1.72      0.00
    7    8   15      0.64      0.00
    7    8   16      0.61      0.00
    7    8   17      1.38      0.00
    7    8   18      0.75      0.00
    7    8   19     -4.17      0.00
    7    8   20     -0.79      0.00
    7    8   21     -0.97      0.00
    7    8   22      1.09      0.00
   -7    9   22      2.88      0.00
   -7    9   21     -0.99      0.00
   -7    9   20      1.56      0.00
   -7    9   19     -1.72      0.00
   -7    9   18     -0.81      0.00
   -7    9   17     -1.54      0.00
   -7    9   16      0.28      0.00
   -7    9   15     -1.48      0.00
   -7    9   14     -2.78      0.00
   -7    9   13     -2.12      0.00
   -7    9   12     -1.25      0.00
   -7    9   11      0.72      0.00
   -7    9   10     -3.37      0.00
   -7    9    9     -1.76      0.00
   -7    9    8     -1.98      0.00
   -7    9    7     -0.80      0.00
   -7    9    6      0.47      0.00
   -7    9    5     -3.04      0.00
   -7    9    4      2.17      0.00
   -7    9    3      0.53      0.00
   -7    9    2      2.76      0.00
   -7    9    1     -0.87      0.00
    7    9    0     -3.36      0.00
    7    9    1      1.60      0.00
    7    9    2     -3.78      0.00
    7    9    3      0.51      0.00
    7    9    4     -4.19      0.00
    7    9    5      2.98      0.00
    7    9    6     -4.37      0.00
    7    9    7      0.79      0.00
    7    9    8     -1.78      0.00
    7    9    9      0.58      0.00
    7    9   10     -0.64      0.00
    7    9   11     -1.05      0.00
    7    9   12     -0.14      0.00
    7    9   13     -1.31      0.00
    7    9   14     -1.54      0.00
    7    9   15      0.06      0.00
    7    9   16     -0.90      0.00
    7    9   17     -1.29      0.00
    7    9   18      2.37      0.00
    7    9   19      0.77      0.00
    7    9   20      5.78      0.00
    7    9   21     -1.52      0.00
   -7   10   22     -0.66      0.00
   -7   10   21     -5.29      0.00
   -7   10   20      0.72      0.00
   -7   10   19     -0.27      0.00
   -7   10   18     -2.49      0.00
   -7   10   17     -2.06      0.00
   -7   10   16      1.19      0.00
   -7   10   15      0.73      0.00
   -7   10   14     -1.49      0.00
   -7   10   13      0.38      0.00
   -7   10   12      1.79      0.00
   -7   10   11      2.14      0.00
   -7   10   10     -1.95      0.00
   -7   10    9      2.01      0.00
   -7   10    8      4.84      0.00
   -7   10    7      3.07      0.00
   -7   10    6      3.46      0.00
   -7   10    5     -0.57      0.00
   -7   10    4      5.27      0.00
   -7   10    3      2.28      0.00
   -7   10    2      0.30      0.00
   -7   10    1      1.81      0.00
    7   10    0      1.71      0.00
    7   10    1     -2.70      0.00
    7   10    2     -1.67      0.00
    7   10    3     -0.16      0.00
    7   10    4     -2.31      0.00
    7   10    5      0.22      0.00
    7   10    6     -5.11      0.00
    7   10    7      2.00      0.00
    7   10    8     -2.41      0.00
    7   10    9      1.55      0.00
    7   10   10     -2.97      0.00
    7   10   11      1.62      0.00
    7   10   12      0.19      0.00
    7   10   13      1.94      0.00
    7   10   14     -1.11      0.00
    7   10   15      1.16      0.00
    7   10   16      0.69      0.00
    7   10   17      2.31      0.00
    7   10   18     -1.44      0.00
    7   10   19     -6.24      0.00
    7   10   20     -0.68      0.00
   -7   11   19      1.09      0.00
   -7   11   18      0.74      0.00
   -7   11   17      1.23      0.00
   -7   11   16      2.46      0.00
   -7   11   15      0.97      0.00
   -7   11   14     -0.55      0.00
   -7   11   13     -0.34      0.00
   -7   11   12      0.54      0.00
   -7   11   11      3.31      0.00
   -7   11   10     -0.36      0.00
   -7   11    9      3.31      0.00
   -7   11    8     -0.95      0.00
   -7   11    7      0.72      0.00
   -7   11    6     -1.55      0.00
   -7   11    5     -0.33      0.00
   -7   11    4     -2.85      0.00
   -7   11    3      0.62      0.00
   -7   11    2     -5.79      0.00
   -7   11    1     -0.15      0.00
    7   11    0      6.18      0.00
    7   11    1     -1.22      0.00
    7   11    2      5.57      0.00
    7   11    3     -0.53      0.00
    7   11    4      3.53      0.00
    7   11    5      0.23      0.00
    7   11    6      2.83      0.00
    7   11    7     -0.66      0.00
    7   11    8     -0.33      0.00
    7   11    9     -1.28      0.00
    7   11   10     -0.84      0.00
    7   11   11      0.70      0.00
    7   11   12     -0.53      0.00
    7   11   13     -0.73      0.00
    7   11   14     -0.32      0.00
    7   11   15      0.64      0.00
    7   11   16     -2.58      0.00
    7   11   17     -0.94      0.00
    7   11   18      2.06      0.00
    7   11   19      2.76      0.00
   -7   12   18     -1.95      0.00
   -7   12   17     -1.34      0.00
   -7   12   16     -0.84      0.00
   -7   12   15      0.69      0.00
   -7   12   14      0.50      0.00
   -7   12   13      1.60      0.00
   -7   12   12      2.77      0.00
   -7   12   11      1.35      0.00
   -7   12   10     -2.64      0.00
   -7   12    9     -1.17      0.00
   -7   12    8     -2.83      0.00
   -7   12    7     -1.11      0.00
   -7   12    6     -2.97      0.00
   -7   12    5     -1.63      0.00
   -7   12    4     -2.32      0.00
   -7   12    3     -0.62      0.00
   -7   12    2     -2.38      0.00
   -7   12    1      0.80      0.00
    7   12    0      0.44      0.00
    7   12    1      0.04      0.00
    7   12    2      0.38      0.00
    7   12    3      0.19      0.00
    7   12    4      0.48      0.00
    7   12    5     -1.29      0.00
    7   12    6      1.10      0.00
    7   12    7      0.23      0.00
    7   12    8      2.25      0.00
    7   12    9     -0.70      0.00
    7   12   10     -0.89      0.00
    7   12   11     -0.42      0.00
    7   12   12      0.21      0.00
    7   12   13     -1.28      0.00
    7   12   14      0.39      0.00
    7   12   15      0.90      0.00
    7   12   16      4.07      0.00
    7   12   17      1.63      0.00
    7   12   18     -1.19      0.00
    7   12   19     -4.04      0.00
   -7   13   17      2.46      0.00
   -7   13   16      2.32      0.00
   -7   13   15      0.23      0.00
   -7   13   14      0.53      0.00
   -7   13   13     -4.39      0.00
   -7   13   12     -0.89      0.00
   -7   13   11     -5.96      0.00
   -7   13   10     -1.11      0.00
   -7   13    9     -1.15      0.00
   -7   13    8      1.14      0.00
   -7   13    7     -1.35      0.00
   -7   13    6      0.61      0.00
   -7   13    5      1.03      0.00
   -7   13    4      2.53      0.00
   -7   13    3     -0.03      0.00
   -7   13    2      0.73      0.00
   -7   13    1      0.96      0.00
    7   13    0     -2.68      0.00
    7   13    1      0.28      0.00
    7   13    2     -1.33      0.00
    7   13    3      1.86      0.00
    7   13    4     -1.74      0.00
    7   13    5      1.28      0.00
    7   13    6      1.95      0.00
    7   13    7      0.75      0.00
    7   13    8      0.01      0.00
    7   13    9      1.88      0.00
    7   13   10      1.36      0.00
    7   13   11      3.48      0.00
    7   13   12     -1.20      0.00
    7   13   13     -0.91      0.00
    7   13   14     -0.50      0.00
    7   13   15     -3.56      0.00
    7   13   16     -3.19      0.00
    7   13   17     -4.17      0.00
    7   13   18      2.39      0.00
   -7   14   16     -1.86      0.00
   -7   14   15     -4.46      0.00
   -7   14   14     -0.19      0.00
   -7   14   13     -2.50      0.00
   -7   14   12      2.29      0.00
   -7   14   11     -0.17      0.00
   -7   14   10      2.16      0.00
   -7   14    9      0.49      0.00
   -7   14    8      0.64      0.00
   -7   14    7      0.19      0.00
   -7   14    6      0.30      0.00
   -7   14    5      1.35      0.00
   -7   14    4      0.93      0.00
   -7   14    3      0.56      0.00
   -7   14    2     -0.35      0.00
   -7   14    1      2.78      0.00
    7   14    0     -0.26      0.00
    7   14    1      0.32      0.00
    7   14    2     -2.21      0.00
    7   14    3     -0.57      0.00
    7   14    4     -2.33      0.00
    7   14    5     -1.56      0.00
    7   14    6     -0.36      0.00
    7   14    7     -3.30      0.00
    7   14    8     -0.63      0.00
    7   14    9     -2.62      0.00
    7   14   10     -2.33      0.00
    7   14   11     -0.10      0.00
    7   14   12     -1.74      0.00
    7   14   13      1.04      0.00
    7   14   14      0.36      0.00
    7   14   15      2.69      0.00
    7   14   16      4.70      0.00
    7   14   17     -0.15      0.00
   -7   15   15      1.47      0.00
   -7   15   14      1.12      0.00
   -7   15   13      4.20      0.00
   -7   15   12      0.89      0.00
   -7   15   11      0.55      0.00
   -7   15   10     -1.05      0.00
   -7   15    9      1.95      0.00
   -7   15    8      1.69      0.00
   -7   15    7     -1.42      0.00
   -7   15    6     -1.48      0.00
   -7   15    5      1.03      0.00
   -7   15    4      0.96      0.00
   -7   15    3     -1.30      0.00
   -7   15    2     -3.25      0.00
   -7   15    1      1.32      0.00
    7   15    0     -0.16      0.00
    7   15    1      1.98      0.00
    7   15    2      0.53      0.00
    7   15    3      3.28      0.00
    7   15    4     -1.97      0.00
    7   15    5      2.30      0.00
    7   15    6      2.23      0.00
    7   15    7      0.50      0.00
    7   15    8      1.00      0.00
    7   15    9      0.90      0.00
    7   15   10      2.98      0.00
    7   15   11      2.79      0.00
    7   15   12     -0.89      0.00
    7   15   13      1.59      0.00
    7   15   14     -0.68      0.00
    7   15   15     -0.93      0.00
    7   15   16     -3.65      0.00
   -7   16   14     -2.16      0.00
   -7   16   13      2.26      0.00
   -7   16   12     -2.58      0.00
   -7   16   11      0.39      0.00
   -7   16   10      1.11      0.00
   -7   16    9     -0.43      0.00
   -7   16    8      2.17      0.00
   -7   16    7     -0.54      0.00
   -7   16    6      1.91      0.00
   -7   16    5      0.35      0.00
   -7   16    4      2.38      0.00
   -7   16    3      0.16      0.00
   -7   16    2      0.89      0.00
   -7   16    1      2.23      0.00
    7   16    0     -0.72      0.00
    7   16    1      0.84      0.00
    7   16    2     -3.32      0.00
    7   16    3     -0.40      0.00
    7   16    4     -2.74      0.00
    7   16    5      1.70      0.00
    7   16    6     -2.26      0.00
    7   16    7      0.06      0.00
    7   16    8     -1.53      0.00
    7   16    9      1.85      0.00
    7   16   10     -4.02      0.00
    7   16   11      1.06      0.00
    7   16   12     -2.56      0.00
    7   16   13      1.79      0.00
    7   16   14     -0.49      0.00
    7   16   15      3.87      0.00
   -7   17   12      0.87      0.00
   -7   17   11     -1.57      0.00
   -7   17   10      0.14      0.00
   -7   17    9     -1.01      0.00
   -7   17    8      3.54      0.00
   -7   17    7     -1.86      0.00
   -7   17    6     -1.31      0.00
   -7   17    5     -0.54      0.00
   -7   17    4      3.08      0.00
   -7   17    3     -3.60      0.00
   -7   17    2     -3.06      0.00
   -7   17    1     -1.52      0.00
    7   17    0      0.46      0.00
    7   17    1      1.91      0.00
    7   17    2      2.82      0.00
    7   17    3      1.48      0.00
    7   17    4      0.54      0.00
    7   17    5      0.87      0.00
    7   17    6      2.10      0.00
    7   17    7     -0.65      0.00
    7   17    8     -2.72      0.00
    7   17    9      2.71      0.00
    7   17   10     -1.62      0.00
    7   17   11      4.43      0.00
    7   17   12     -3.81      0.00
    7   17   13      2.36      0.00
   -7   18    9     -2.42      0.00
   -7   18    8     -1.69      0.00
   -7   18    7     -2.53      0.00
   -7   18    6     -1.92      0.00
   -7   18    5     -4.68      0.00
   -7   18    4      0.46      0.00
   -7   18    3     -4.47      0.00
   -7   18    2      2.31      0.00
   -7   18    1      0.74      0.00
    7   18    0     -0.25      0.00
    7   18    1      0.60      0.00
    7   18    2     -3.26      0.00
    7   18    3     -1.53      0.00
    7   18    4     -0.90      0.00
    7   18    5     -0.74      0.00
    7   18    6      0.06      0.00
    7   18    7     -1.54      0.00
    7   18    8      1.83      0.00
    7   18    9      0.88      0.00
    7   18   10     -4.07      0.00
    7   18   11      1.77      0.00
   -7   19    5      0.29      0.00
   -7   19    4      8.47      0.00
   -7   19    3     -0.34      0.00
   -7   19    2      1.48      0.00
   -7   19    1     -1.36      0.00
    7   19    0     -0.90      0.00
    7   19    1      2.64      0.00
    7   19    4     -1.52      0.00
    7   19    5      2.63      0.00
    7   19    6      0.67      0.00
    7   19    7     -1.71      0.00
    7   19    8     -0.91      0.00
   -7   20    4     -0.14      0.00
   -7   20    3     -3.43      0.00
   -8    0   22      3.21      0.00
   -8    0   20      3.98      0.00
   -8    0   18     -0.43      0.00
   -8    0   16     -2.17      0.00
   -8    0   14     -2.83      0.00
   -8    0   12     -1.47      0.00
   -8    0   10      0.27      0.00
   -8    0    8      1.96      0.00
   -8    0    6      3.15      0.00
   -8    0    4      6.46      0.00
   -8    0    2      5.15      0.00
    8    0    0      6.59      0.00
    8    0    2     -0.11      0.00
    8    0    4     -0.96      0.00
    8    0    6     -4.11      0.00
    8    0    8     -1.90      0.00
    8    0   10     -0.49      0.00
    8    0   12      0.22      0.00
    8    0   14      0.21      0.00
    8    0   16     -0.88      0.00
    8    0   18     -1.94      0.00
    8    0   20     -0.95      0.00
   -8    1   24      2.37      0.00
   -8    1   23     -1.69      0.00
   -8    1   22      4.21      0.00
   -8    1   21     -4.01      0.00
   -8    1   20      0.84      0.00
   -8    1   19     -3.02      0.00
   -8    1   18     -0.81      0.00
   -8    1   17      2.09      0.00
   -8    1   16      1.49      0.00
   -8    1   15     -1.45      0.00
   -8    1   14      1.50      0.00
   -8    1   13      3.63      0.00
   -8    1   12      4.34      0.00
   -8    1   11     -2.67      0.00
   -8    1   10      3.66      0.00
   -8    1    9      2.78      0.00
   -8    1    8      4.26      0.00
   -8    1    7     -2.81      0.00
   -8    1    6      2.90      0.00
   -8    1    5      2.81      0.00
   -8    1    4      1.88      0.00
   -8    1    3     -3.65      0.00
   -8    1    2     -2.09      0.00
   -8    1    1      1.90      0.00
    8    1    0      3.63      0.00
    8    1    1     -3.07      0.00
    8    1    2      7.44      0.00
    8    1    3      5.14      0.00
    8    1    4      5.57      0.00
    8    1    5     -1.68      0.00
    8    1    6      3.60      0.00
    8    1    7      4.34      0.00
    8    1    8      1.36      0.00
    8    1    9     -2.33      0.00
    8    1   10      2.77      0.00
    8    1   11      1.39      0.00
    8    1   12      2.19      0.00
    8    1   13     -3.08      0.00
    8    1   14      0.78      0.00
    8    1   15     -0.11      0.00
    8    1   16     -0.62      0.00
    8    1   17     -0.53      0.00
    8    1   18      0.18      0.00
    8    1   19      0.91      0.00
    8    1   20      0.01      0.00
   -8    2   24      1.18      0.00
   -8    2   23     -3.20      0.00
   -8    2   22      4.26      0.00
   -8    2   21     -1.73      0.00
   -8    2   20      2.99      0.00
   -8    2   19      1.08      0.00
   -8    2   18      1.92      0.00
   -8    2   17      0.01      0.00
   -8    2   16      1.72      0.00
   -8    2   15     -2.70      0.00
   -8    2   14      0.98      0.00
   -8    2   13     -0.76      0.00
   -8    2   12      0.70      0.00
   -8    2   11     -3.64      0.00
   -8    2   10     -0.85      0.00
   -8    2    9     -0.48      0.00
   -8    2    8     -0.69      0.00
   -8    2    7     -1.96      0.00
   -8    2    6     -3.45      0.00
   -8    2    5     -1.31      0.00
   -8    2    4     -2.74      0.00
   -8    2    3     -2.01      0.00
   -8    2    2     -3.10      0.00
   -8    2    1     -1.11      0.00
    8    2    0     -0.69      0.00
    8    2    1      0.08      0.00
    8    2    2     -3.39      0.00
    8    2    3     -1.11      0.00
    8    2    4      1.06      0.00
    8    2    5      1.64      0.00
    8    2    6      0.29      0.00
    8    2    7      2.22      0.00
    8    2    8      0.93      0.00
    8    2    9      1.59      0.00
    8    2   10     -0.78      0.00
    8    2   11      0.16      0.00
    8    2   12      0.79      0.00
    8    2   13      1.42      0.00
    8    2   14      1.06      0.00
    8    2   15      2.23      0.00
    8    2   16      0.43      0.00
    8    2   17     -0.77      0.00
    8    2   18      0.84      0.00
    8    2   19     -0.73      0.00
    8    2   20      0.38      0.00
   -8    3   24      0.02      0.00
   -8    3   23     -2.86      0.00
   -8    3   22      3.62      0.00
   -8    3   21     -2.87      0.00
   -8    3   20     -0.35      0.00
   -8    3   19     -2.79      0.00
   -8    3   18     -0.68      0.00
   -8    3   17     -1.08      0.00
   -8    3   16      2.49      0.00
   -8    3   15     -2.96      0.00
   -8    3   14     -1.14      0.00
   -8    3   13      0.93      0.00
   -8    3   12      0.27      0.00
   -8    3   11     -2.17      0.00
   -8    3   10     -1.25      0.00
   -8    3    9      1.81      0.00
   -8    3    8      0.01      0.00
   -8    3    7     -2.76      0.00
   -8    3    6     -1.48      0.00
   -8    3    5      2.56      0.00
   -8    3    4      2.91      0.00
   -8    3    3     -3.58      0.00
   -8    3    2      1.20      0.00
   -8    3    1      0.10      0.00
    8    3    0     -4.52      0.00
    8    3    1     -3.72      0.00
    8    3    2     -0.51      0.00
    8    3    3      1.16      0.00
    8    3    4     -4.35      0.00
    8    3    5     -4.21      0.00
    8    3    6     -1.48      0.00
    8    3    7      1.91      0.00
    8    3    8     -1.97      0.00
    8    3    9      0.33      0.00
    8    3   10      1.00      0.00
    8    3   11      3.60      0.00
    8    3   12     -1.28      0.00
    8    3   13      0.83      0.00
    8    3   14     -2.00      0.00
    8    3   15      2.26      0.00
    8    3   16     -0.71      0.00
    8    3   17     -0.14      0.00
    8    3   18      1.70      0.00
    8    3   19     -2.98      0.00
    8    3   20      0.56      0.00
   -8    4   24     -0.72      0.00
   -8    4   23     -5.10      0.00
   -8    4   22      3.83      0.00
   -8    4   21     -3.21      0.00
   -8    4   20      0.06      0.00
   -8    4   19     -1.76      0.00
   -8    4   18      1.36      0.00
   -8    4   17     -0.59      0.00
   -8    4   16      0.68      0.00
   -8    4   15     -1.94      0.00
   -8    4   14     -0.18      0.00
   -8    4   13      3.43      0.00
   -8    4   12      1.33      0.00
   -8    4   11      0.21      0.00
   -8    4   10     -0.35      0.00
   -8    4    9      1.94      0.00
   -8    4    8      1.57      0.00
   -8    4    7      1.05      0.00
   -8    4    6     -0.88      0.00
   -8    4    5      2.21      0.00
   -8    4    4      0.32      0.00
   -8    4    3     -0.04      0.00
   -8    4    2     -0.46      0.00
   -8    4    1      1.04      0.00
    8    4    0      0.72      0.00
    8    4    1     -0.89      0.00
    8    4    2     -0.37      0.00
    8    4    3     -1.18      0.00
    8    4    4      1.13      0.00
    8    4    5     -1.10      0.00
    8    4    6     -0.87      0.00
    8    4    7     -2.05      0.00
    8    4    8     -0.70      0.00
    8    4    9     -3.84      0.00
    8    4   10     -1.87      0.00
    8    4   11     -2.23      0.00
    8    4   12     -0.28      0.00
    8    4   13     -1.28      0.00
    8    4   14     -0.63      0.00
    8    4   15      0.71      0.00
    8    4   16     -0.74      0.00
    8    4   17     -1.81      0.00
    8    4   18      5.59      0.00
    8    4   19     -1.24      0.00
    8    4   20      3.19      0.00
   -8    5   24      2.05      0.00
   -8    5   23     -3.30      0.00
   -8    5   22      5.91      0.00
   -8    5   21     -0.29      0.00
   -8    5   20      2.14      0.00
   -8    5   19      1.10      0.00
   -8    5   18      2.15      0.00
   -8    5   17      1.67      0.00
   -8    5   16      2.42      0.00
   -8    5   15      0.12      0.00
   -8    5   14     -0.93      0.00
   -8    5   13      2.37      0.00
   -8    5   12     -2.15      0.00
   -8    5   11     -1.27      0.00
   -8    5   10     -3.13      0.00
   -8    5    9      2.58      0.00
   -8    5    8     -2.52      0.00
   -8    5    7      0.15      0.00
   -8    5    6     -5.16      0.00
   -8    5    5      3.47      0.00
   -8    5    4     -1.28      0.00
   -8    5    3      0.74      0.00
   -8    5    2     -2.92      0.00
   -8    5    1      3.82      0.00
    8    5    0     -1.59      0.00
    8    5    1      0.51      0.00
    8    5    2      0.80      0.00
    8    5    3      1.68      0.00
    8    5    4     -2.86      0.00
    8    5    5      0.63      0.00
    8    5    6     -0.41      0.00
    8    5    7      0.90      0.00
    8    5    8     -2.08      0.00
    8    5    9     -0.96      0.00
    8    5   10      0.58      0.00
    8    5   11     -1.20      0.00
    8    5   12      0.13      0.00
    8    5   13     -1.58      0.00
    8    5   14      0.37      0.00
    8    5   15      0.05      0.00
    8    5   16      1.61      0.00
    8    5   17     -1.63      0.00
    8    5   18      2.01      0.00
    8    5   19     -4.78      0.00
    8    5   20      3.61      0.00
   -8    6   23     -3.15      0.00
   -8    6   22      4.79      0.00
   -8    6   21     -0.13      0.00
   -8    6   20     -1.92      0.00
   -8    6   19     -1.82      0.00
   -8    6   18     -1.84      0.00
   -8    6   17     -0.33      0.00
   -8    6   16     -2.00      0.00
   -8    6   15     -2.84      0.00
   -8    6   14     -2.61      0.00
   -8    6   13      1.12      0.00
   -8    6   12     -0.90      0.00
   -8    6   11      0.81      0.00
   -8    6   10     -1.03      0.00
   -8    6    9      1.66      0.00
   -8    6    8      0.48      0.00
   -8    6    7      1.12      0.00
   -8    6    6      0.37      0.00
   -8    6    5      0.91      0.00
   -8    6    4      3.89      0.00
   -8    6    3     -0.45      0.00
   -8    6    2      2.70      0.00
   -8    6    1     -0.28      0.00
    8    6    0      3.04      0.00
    8    6    1      1.68      0.00
    8    6    2      2.97      0.00
    8    6    3      1.34      0.00
    8    6    4      0.43      0.00
    8    6    5      2.35      0.00
    8    6    6     -0.05      0.00
    8    6    7      4.62      0.00
    8    6    8      0.23      0.00
    8    6    9      2.73      0.00
    8    6   10     -0.10      0.00
    8    6   11      2.27      0.00
    8    6   12     -1.02      0.00
    8    6   13     -0.70      0.00
    8    6   14     -0.69      0.00
    8    6   15     -1.09      0.00
    8    6   16     -3.60      0.00
    8    6   17     -0.86      0.00
    8    6   18      0.83      0.00
    8    6   19     -3.52      0.00
    8    6   20     -2.29      0.00
   -8    7   23     -5.96      0.00
   -8    7   22      0.95      0.00
   -8    7   21     -1.81      0.00
   -8    7   20     -3.31      0.00
   -8    7   19     -0.29      0.00
   -8    7   18     -0.63      0.00
   -8    7   17      1.37      0.00
   -8    7   16      1.15      0.00
   -8    7   15     -1.78      0.00
   -8    7   14      2.11      0.00
   -8    7   13      1.44      0.00
   -8    7   12      2.80      0.00
   -8    7   11     -3.01      0.00
   -8    7   10      2.28      0.00
   -8    7    9     -0.34      0.00
   -8    7    8      3.58      0.00
   -8    7    7     -2.58      0.00
   -8    7    6      3.17      0.00
   -8    7    5     -2.12      0.00
   -8    7    4      2.39      0.00
   -8    7    3     -4.66      0.00
   -8    7    2     -1.08      0.00
   -8    7    1     -2.56      0.00
    8    7    0      1.96      0.00
    8    7    1     -3.39      0.00
    8    7    2      3.85      0.00
    8    7    3     -2.37      0.00
    8    7    4      3.66      0.00
    8    7    5     -0.61      0.00
    8    7    6      1.92      0.00
    8    7    7     -1.81      0.00
    8    7    8      0.25      0.00
    8    7    9      0.61      0.00
    8    7   10      0.88      0.00
    8    7   11      2.09      0.00
    8    7   12      0.94      0.00
    8    7   13      2.26      0.00
    8    7   14      0.69      0.00
    8    7   15      1.84      0.00
    8    7   16      1.37      0.00
    8    7   17      1.64      0.00
    8    7   18     -0.95      0.00
    8    7   19      1.83      0.00
   -8    8   22      4.02      0.00
   -8    8   21      3.46      0.00
   -8    8   20      1.17      0.00
   -8    8   19      1.76      0.00
   -8    8   18      1.68      0.00
   -8    8   17      0.79      0.00
   -8    8   16      2.78      0.00
   -8    8   15     -2.90      0.00
   -8    8   14      2.89      0.00
   -8    8   13     -1.79      0.00
   -8    8   12      1.76      0.00
   -8    8   11     -2.07      0.00
   -8    8   10      2.35      0.00
   -8    8    9     -1.92      0.00
   -8    8    8     -0.32      0.00
   -8    8    7     -2.05      0.00
   -8    8    6     -2.16      0.00
   -8    8    5     -2.11      0.00
   -8    8    4     -2.19      0.00
   -8    8    3      0.60      0.00
   -8    8    2     -3.17      0.00
   -8    8    1      2.10      0.00
    8    8    0     -3.49      0.00
    8    8    1     -1.38      0.00
    8    8    2     -1.74      0.00
    8    8    3     -1.59      0.00
    8    8    4     -1.13      0.00
    8    8    5     -1.27      0.00
    8    8    6      1.25      0.00
    8    8    7     -0.69      0.00
    8    8    8      1.95      0.00
    8    8    9     -1.95      0.00
    8    8   10     -0.24      0.00
    8    8   11     -0.62      0.00
    8    8   12     -2.03      0.00
    8    8   13      0.40      0.00
    8    8   14      0.00      0.00
    8    8   15     -0.85      0.00
    8    8   16      0.01      0.00
    8    8   17      1.59      0.00
    8    8   18      1.03      0.00
    8    8   19     -2.24      0.00
   -8    9   21     -0.03      0.00
   -8    9   20     -2.78      0.00
   -8    9   19     -3.18      0.00
   -8    9   18      0.18      0.00
   -8    9   17     -0.06      0.00
   -8    9   16      1.84      0.00
   -8    9   15     -2.12      0.00
   -8    9   14      0.03      0.00
   -8    9   13      1.62      0.00
   -8    9   12     -0.83      0.00
   -8    9   11     -1.25      0.00
   -8    9   10     -2.37      0.00
   -8    9    9      0.74      0.00
   -8    9    8     -2.00      0.00
   -8    9    7      0.43      0.00
   -8    9    6      0.15      0.00
   -8    9    5      3.06      0.00
   -8    9    4     -0.95      0.00
   -8    9    3      0.97      0.00
   -8    9    2      0.67      0.00
   -8    9    1      3.58      0.00
    8    9    0     -0.60      0.00
    8    9    1      1.58      0.00
    8    9    2     -4.80      0.00
    8    9    3      2.01      0.00
    8    9    4     -3.41      0.00
    8    9    5      0.82      0.00
    8    9    6     -3.73      0.00
    8    9    7     -1.46      0.00
    8    9    8     -1.27      0.00
    8    9    9     -0.79      0.00
    8    9   10     -1.11      0.00
    8    9   11      1.22      0.00
    8    9   12     -0.98      0.00
    8    9   13      1.73      0.00
    8    9   14     -1.86      0.00
    8    9   15      0.84      0.00
    8    9   16      0.15      0.00
    8    9   17     -1.51      0.00
    8    9   18     -1.51      0.00
    8    9   19     -0.49      0.00
   -8   10   21      0.37      0.00
   -8   10   20      1.48      0.00
   -8   10   19      0.36      0.00
   -8   10   18      1.31      0.00
   -8   10   17     -0.65      0.00
   -8   10   16     -1.38      0.00
   -8   10   15     -1.57      0.00
   -8   10   14     -1.98      0.00
   -8   10   13      1.06      0.00
   -8   10   12     -3.20      0.00
   -8   10   11      0.78      0.00
   -8   10   10      0.91      0.00
   -8   10    9      1.78      0.00
   -8   10    8     -0.73      0.00
   -8   10    7      0.62      0.00
   -8   10    6      1.81      0.00
   -8   10    5      0.10      0.00
   -8   10    4      1.01      0.00
   -8   10    3      0.17      0.00
   -8   10    2      2.33      0.00
   -8   10    1      0.37      0.00
    8   10    0      0.92      0.00
    8   10    1      0.43      0.00
    8   10    2      0.82      0.00
    8   10    3      1.29      0.00
    8   10    4     -0.14      0.00
    8   10    5      0.41      0.00
    8   10    6      0.31      0.00
    8   10    7      1.61      0.00
    8   10    8      2.74      0.00
    8   10    9      0.20      0.00
    8   10   10      0.11      0.00
    8   10   11      0.74      0.00
    8   10   12     -1.21      0.00
    8   10   13      0.77      0.00
    8   10   14     -1.89      0.00
    8   10   15      0.37      0.00
    8   10   16     -0.28      0.00
    8   10   17      2.88      0.00
    8   10   18      1.09      0.00
   -8   11   20     -0.58      0.00
   -8   11   19     -3.59      0.00
   -8   11   18     -0.05      0.00
   -8   11   17     -0.03      0.00
   -8   11   16      1.51      0.00
   -8   11   15     -0.38      0.00
   -8   11   14      1.50      0.00
   -8   11   13      1.66      0.00
   -8   11   12      1.33      0.00
   -8   11   11      0.60      0.00
   -8   11   10      1.51      0.00
   -8   11    9      2.10      0.00
   -8   11    8     -0.38      0.00
   -8   11    7      0.20      0.00
   -8   11    6      0.96      0.00
   -8   11    5      0.90      0.00
   -8   11    4     -1.37      0.00
   -8   11    3     -2.15      0.00
   -8   11    2      0.28      0.00
   -8   11    1      1.20      0.00
    8   11    0      3.08      0.00
    8   11    1     -1.35      0.00
    8   11    2      1.94      0.00
    8   11    3      1.60      0.00
    8   11    4      2.53      0.00
    8   11    5     -0.26      0.00
    8   11    6     -0.14      0.00
    8   11    7     -2.02      0.00
    8   11    8     -0.10      0.00
    8   11    9     -2.76      0.00
    8   11   10      0.03      0.00
    8   11   11      0.54      0.00
    8   11   12      1.62      0.00
    8   11   13     -0.12      0.00
    8   11   14     -0.14      0.00
    8   11   15      1.95      0.00
    8   11   16     -1.06      0.00
    8   11   17     -0.61      0.00
    8   11   18     -2.54      0.00
   -8   12   16      1.20      0.00
   -8   12   15     -1.65      0.00
   -8   12   14      2.60      0.00
   -8   12   13     -0.21      0.00
   -8   12   12     -0.58      0.00
   -8   12   11     -1.47      0.00
   -8   12   10     -0.59      0.00
   -8   12    9      0.97      0.00
   -8   12    8     -4.52      0.00
   -8   12    7     -1.01      0.00
   -8   12    6      0.54      0.00
   -8   12    5      1.61      0.00
   -8   12    4      0.48      0.00
   -8   12    3     -0.64      0.00
   -8   12    2      1.15      0.00
   -8   12    1      0.22      0.00
    8   12    0      0.41      0.00
    8   12    1     -1.71      0.00
    8   12    2      0.47      0.00
    8   12    3     -1.31      0.00
    8   12    4     -0.91      0.00
    8   12    5     -0.20      0.00
    8   12    6     -0.63      0.00
    8   12    7      2.59      0.00
    8   12    8      0.74      0.00
    8   12    9     -0.12      0.00
    8   12   10     -1.45      0.00
    8   12   11     -0.05      0.00
    8   12   12     -0.80      0.00
    8   12   13     -1.05      0.00
    8   12   14     -0.31      0.00
    8   12   15      0.51      0.00
    8   12   16     -1.61      0.00
    8   12   17      3.04      0.00
   -8   13   15     -2.53      0.00
   -8   13   14      0.62      0.00
   -8   13   13     -1.41      0.00
   -8   13   12     -2.05      0.00
   -8   13   11     -0.18      0.00
   -8   13   10     -0.18      0.00
   -8   13    9      4.18      0.00
   -8   13    8      0.08      0.00
   -8   13    7      1.09      0.00
   -8   13    6      1.88      0.00
   -8   13    5     -1.88      0.00
   -8   13    4     -1.85      0.00
   -8   13    3     -4.66      0.00
   -8   13    2      0.70      0.00
   -8   13    1     -1.76      0.00
    8   13    0      0.68      0.00
    8   13    1     -4.08      0.00
    8   13    2      2.44      0.00
    8   13    3     -0.47      0.00
    8   13    4      2.15      0.00
    8   13    5      0.33      0.00
    8   13    6     -0.09      0.00
    8   13    7      1.16      0.00
    8   13    8     -0.08      0.00
    8   13    9      0.40      0.00
    8   13   10     -0.34      0.00
    8   13   11      2.96      0.00
    8   13   12     -0.64      0.00
    8   13   13     -2.52      0.00
    8   13   14     -0.52      0.00
    8   13   15      0.93      0.00
    8   13   16     -1.78      0.00
   -8   14   13      2.20      0.00
   -8   14   12     -1.00      0.00
   -8   14   11      1.62      0.00
   -8   14   10     -1.46      0.00
   -8   14    9      0.67      0.00
   -8   14    8     -5.20      0.00
   -8   14    7     -5.54      0.00
   -8   14    6     -0.99      0.00
   -8   14    5      0.49      0.00
   -8   14    4      1.16      0.00
   -8   14    3      1.63      0.00
   -8   14    2      0.40      0.00
   -8   14    1      0.22      0.00
    8   14    0      0.85      0.00
    8   14    1     -0.70      0.00
    8   14    2      0.24      0.00
    8   14    3     -1.64      0.00
    8   14    4     -1.39      0.00
    8   14    5     -0.62      0.00
    8   14    6     -0.36      0.00
    8   14    7      0.23      0.00
    8   14    8      1.22      0.00
    8   14    9     -0.75      0.00
    8   14   10     -0.76      0.00
    8   14   11      0.86      0.00
    8   14   12     -0.04      0.00
    8   14   14      2.44      0.00
   -8   15   12     -3.31      0.00
   -8   15   11     -0.31      0.00
   -8   15   10     -1.85      0.00
   -8   15    9      1.98      0.00
   -8   15    8      1.72      0.00
   -8   15    7      1.47      0.00
   -8   15    6      2.96      0.00
   -8   15    5      2.00      0.00
   -8   15    4     -4.60      0.00
   -8   15    3      1.35      0.00
   -8   15    2     -1.91      0.00
   -8   15    1      3.01      0.00
    8   15    0     -2.12      0.00
    8   15    1      1.55      0.00
    8   15    2     -2.72      0.00
    8   15    3      3.17      0.00
    8   15    4     -3.52      0.00
    8   15    5      1.99      0.00
    8   15    6     -3.67      0.00
    8   15    7     -0.35      0.00
    8   15    8     -0.41      0.00
    8   15    9     -1.28      0.00
    8   15   10      1.28      0.00
    8   15   11      3.54      0.00
    8   15   12     -1.54      0.00
    8   15   13     -1.50      0.00
   -8   16   10      2.28      0.00
   -8   16    9      1.38      0.00
   -8   16    8      1.23      0.00
   -8   16    7     -1.16      0.00
   -8   16    6      1.09      0.00
   -8   16    5      5.12      0.00
   -8   16    4      0.90      0.00
   -8   16    3      7.53      0.00
   -8   16    2     -0.32      0.00
   -8   16    1     -0.06      0.00
    8   16    0     -0.21      0.00
    8   16    1      3.27      0.00
    8   16    2     -0.65      0.00
    8   16    3      3.99      0.00
    8   16    4     -1.83      0.00
    8   16    5      4.94      0.00
    8   16    6     -0.59      0.00
    8   16    7      2.18      0.00
    8   16    8      1.99      0.00
    8   16    9     -1.78      0.00
    8   16   10     -1.20      0.00
    8   16   11     -0.06      0.00
   -8   17    6     -1.85      0.00
   -8   17    5     -0.82      0.00
   -8   17    4     -7.76      0.00
   -8   17    3     -3.05      0.00
   -8   17    2     -4.41      0.00
   -8   17    1     -1.48      0.00
    8   17    0     -1.29      0.00
    8   17    1     -1.47      0.00
    8   17    2     -1.53      0.00
    8   17    3     -0.05      0.00
    8   17    4     -1.69      0.00
    8   17    5     -0.13      0.00
    8   17    6     -2.97      0.00
    8   17    7     -1.67      0.00
   -9    0   20     -2.76      0.00
   -9    0   18      1.37      0.00
   -9    0   16     -1.27      0.00
   -9    0   14      0.55      0.00
   -9    0   12     -2.37      0.00
   -9    0   10      2.39      0.00
   -9    0    8      1.74      0.00
   -9    0    6      5.17      0.00
   -9    0    4      0.65      0.00
   -9    0    2     -0.75      0.00
    9    0    0      1.38      0.00
    9    0    2      3.39      0.00
    9    0    4      2.45      0.00
    9    0    6      2.42      0.00
    9    0    8      1.75      0.00
    9    0   10      4.15      0.00
    9    0   12      1.36      0.00
    9    0   14     -0.82      0.00
    9    0   16     -0.16      0.00
   -9    1   21      3.69      0.00
   -9    1   20      0.75      0.00
   -9    1   19     -1.34      0.00
   -9    1   18      0.90      0.00
   -9    1   17      1.28      0.00
   -9    1   16      2.14      0.00
   -9    1   15     -1.50      0.00
   -9    1   14      1.53      0.00
   -9    1   13      1.85      0.00
   -9    1   12      2.05      0.00
   -9    1   11     -1.03      0.00
   -9    1   10      3.21      0.00
   -9    1    9     -1.19      0.00
   -9    1    8      2.49      0.00
   -9    1    7     -2.05      0.00
   -9    1    6      0.76      0.00
   -9    1    5     -1.13      0.00
   -9    1    4     -1.93      0.00
   -9    1    3      2.64      0.00
   -9    1    2     -0.86      0.00
   -9    1    1      2.52      0.00
    9    1    0      1.07      0.00
    9    1    1     -0.02      0.00
    9    1    2      2.42      0.00
    9    1    3     -0.16      0.00
    9    1    4      2.30      0.00
    9    1    5     -0.10      0.00
    9    1    6      1.86      0.00
    9    1    7      1.69      0.00
    9    1    8      2.34      0.00
    9    1    9     -0.74      0.00
    9    1   10      4.21      0.00
    9    1   11     -0.63      0.00
    9    1   12      4.04      0.00
    9    1   13     -0.13      0.00
    9    1   14      3.36      0.00
    9    1   15      1.18      0.00
    9    1   16      0.39      0.00
    9    1   17     -0.84      0.00
   -9    2   21      0.48      0.00
   -9    2   20     -1.54      0.00
   -9    2   19     -1.90      0.00
   -9    2   18      2.26      0.00
   -9    2   17     -2.69      0.00
   -9    2   16      0.12      0.00
   -9    2   15     -3.66      0.00
   -9    2   14      1.12      0.00
   -9    2   13     -1.10      0.00
   -9    2   12     -1.25      0.00
   -9    2   11     -2.13      0.00
   -9    2   10      1.29      0.00
   -9    2    9     -1.19      0.00
   -9    2    8     -2.53      0.00
   -9    2    7      0.48      0.00
   -9    2    6     -0.28      0.00
   -9    2    5      2.76      0.00
   -9    2    4     -2.73      0.00
   -9    2    3      3.59      0.00
   -9    2    2     -1.86      0.00
   -9    2    1      0.43      0.00
    9    2    0     -1.74      0.00
    9    2    1     -1.57      0.00
    9    2    2      0.49      0.00
    9    2    3     -1.97      0.00
    9    2    4     -0.81      0.00
    9    2    5     -0.72      0.00
    9    2    6     -1.90      0.00
    9    2    7     -0.12      0.00
    9    2    8     -3.41      0.00
    9    2    9     -0.82      0.00
    9    2   10     -1.02      0.00
    9    2   11     -0.80      0.00
    9    2   12     -1.13      0.00
    9    2   13     -1.87      0.00
    9    2   14     -0.39      0.00
    9    2   15      1.04      0.00
    9    2   16     -0.60      0.00
    9    2   17      0.54      0.00
   -9    3   21      1.08      0.00
   -9    3   20      1.64      0.00
   -9    3   19     -2.26      0.00
   -9    3   18      2.07      0.00
   -9    3   17     -1.91      0.00
   -9    3   16      2.78      0.00
   -9    3   15     -1.06      0.00
   -9    3   14     -0.23      0.00
   -9    3   13      0.98      0.00
   -9    3   12     -1.52      0.00
   -9    3   11      0.49      0.00
   -9    3   10     -0.08      0.00
   -9    3    9      1.96      0.00
   -9    3    8     -1.22      0.00
   -9    3    7      2.60      0.00
   -9    3    6      0.45      0.00
   -9    3    5      0.52      0.00
   -9    3    4     -0.91      0.00
   -9    3    3     -1.05      0.00
   -9    3    2      0.68      0.00
   -9    3    1     -2.22      0.00
    9    3    0     -0.65      0.00
    9    3    1     -3.54      0.00
    9    3    2      0.79      0.00
    9    3    3     -3.98      0.00
    9    3    4      0.87      0.00
    9    3    5     -1.34      0.00
    9    3    6      0.10      0.00
    9    3    7     -0.01      0.00
    9    3    8      0.27      0.00
    9    3    9      0.87      0.00
    9    3   10     -0.11      0.00
    9    3   11      0.06      0.00
    9    3   12     -0.33      0.00
    9    3   13      0.63      0.00
    9    3   14      0.87      0.00
    9    3   15     -0.31      0.00
    9    3   16     -1.81      0.00
    9    3   17      0.77      0.00
   -9    4   21     -1.95      0.00
   -9    4   20      0.30      0.00
   -9    4   19     -2.78      0.00
   -9    4   18      2.14      0.00
   -9    4   17     -0.03      0.00
   -9    4   16      0.16      0.00
   -9    4   15      1.61      0.00
   -9    4   14     -0.63      0.00
   -9    4   13      4.34      0.00
   -9    4   12     -0.25      0.00
   -9    4   11      1.48      0.00
   -9    4   10      1.16      0.00
   -9    4    9      0.56      0.00
   -9    4    8     -1.60      0.00
   -9    4    7     -1.26      0.00
   -9    4    6      1.30      0.00
   -9    4    5     -3.72      0.00
   -9    4    4     -1.56      0.00
   -9    4    3     -1.96      0.00
   -9    4    2      0.86      0.00
   -9    4    1     -2.67      0.00
    9    4    0     -1.21      0.00
    9    4    1      0.54      0.00
    9    4    2      2.09      0.00
    9    4    3      0.13      0.00
    9    4    4     -0.77      0.00
    9    4    5      0.19      0.00
    9    4    6     -0.52      0.00
    9    4    7     -0.74      0.00
    9    4    8     -0.74      0.00
    9    4    9     -2.05      0.00
    9    4   10      0.85      0.00
    9    4   11     -0.50      0.00
    9    4   12     -1.06      0.00
    9    4   13     -3.48      0.00
    9    4   14      1.72      0.00
    9    4   15     -1.82      0.00
    9    4   16     -0.33      0.00
    9    4   17     -0.41      0.00
   -9    5   21     -0.65      0.00
   -9    5   20      2.66      0.00
   -9    5   19      1.22      0.00
   -9    5   18      1.25      0.00
   -9    5   17      0.22      0.00
   -9    5   16     -0.98      0.00
   -9    5   15      2.08      0.00
   -9    5   14     -2.52      0.00
   -9    5   13     -1.00      0.00
   -9    5   12     -2.75      0.00
   -9    5   11     -2.24      0.00
   -9    5   10      0.24      0.00
   -9    5    9     -1.76      0.00
   -9    5    8     -1.86      0.00
   -9    5    7     -1.34      0.00
   -9    5    6      0.87      0.00
   -9    5    5     -0.64      0.00
   -9    5    4     -0.08      0.00
   -9    5    3      2.79      0.00
   -9    5    2     -0.31      0.00
   -9    5    1      3.11      0.00
    9    5    0     -0.08      0.00
    9    5    1      3.88      0.00
    9    5    2     -1.04      0.00
    9    5    3      2.67      0.00
    9    5    4     -2.49      0.00
    9    5    5      5.22      0.00
    9    5    6     -4.30      0.00
    9    5    7      1.87      0.00
    9    5    8     -1.00      0.00
    9    5    9     -0.10      0.00
    9    5   10     -1.37      0.00
    9    5   11      0.16      0.00
    9    5   12      0.92      0.00
    9    5   13      1.22      0.00
    9    5   14      3.56      0.00
    9    5   15     -0.62      0.00
    9    5   16      2.09      0.00
    9    5   17      1.10      0.00
   -9    6   21     -0.18      0.00
   -9    6   20      0.20      0.00
   -9    6   19     -0.86      0.00
   -9    6   18     -0.76      0.00
   -9    6   17     -0.94      0.00
   -9    6   16     -1.33      0.00
   -9    6   15     -0.32      0.00
   -9    6   14     -0.49      0.00
   -9    6   13      0.18      0.00
   -9    6   12      2.19      0.00
   -9    6   11      0.04      0.00
   -9    6   10      2.04      0.00
   -9    6    9     -0.21      0.00
   -9    6    8     -0.16      0.00
   -9    6    7      1.61      0.00
   -9    6    6      4.03      0.00
   -9    6    5      0.48      0.00
   -9    6    4     -0.35      0.00
   -9    6    3      2.75      0.00
   -9    6    2      2.98      0.00
   -9    6    1      1.97      0.00
    9    6    0     -1.01      0.00
    9    6    1     -1.72      0.00
    9    6    2      2.76      0.00
    9    6    3      0.55      0.00
    9    6    4     -1.20      0.00
    9    6    5      4.44      0.00
    9    6    6     -0.64      0.00
    9    6    7      3.64      0.00
    9    6    8      0.92      0.00
    9    6    9      1.28      0.00
    9    6   10      2.12      0.00
    9    6   11      0.67      0.00
    9    6   12     -2.97      0.00
    9    6   13     -1.65      0.00
    9    6   14      0.13      0.00
    9    6   15     -3.10      0.00
    9    6   16     -2.99      0.00
    9    6   17      1.00      0.00
   -9    7   21     -2.84      0.00
   -9    7   20     -2.66      0.00
   -9    7   19     -0.43      0.00
   -9    7   18     -0.36      0.00
   -9    7   17     -1.42      0.00
   -9    7   16      0.26      0.00
   -9    7   15      1.84      0.00
   -9    7   14      0.95      0.00
   -9    7   13     -1.99      0.00
   -9    7   12     -0.05      0.00
   -9    7   11     -1.92      0.00
   -9    7   10      2.70      0.00
   -9    7    9     -0.23      0.00
   -9    7    8      1.10      0.00
   -9    7    7     -0.20      0.00
   -9    7    6      2.31      0.00
   -9    7    5     -1.84      0.00
   -9    7    4     -0.43      0.00
   -9    7    3     -1.30      0.00
   -9    7    2     -0.32      0.00
   -9    7    1     -2.62      0.00
    9    7    0      2.16      0.00
    9    7    1     -1.78      0.00
    9    7    2      1.15      0.00
    9    7    3     -4.29      0.00
    9    7    4      0.90      0.00
    9    7    5     -0.18      0.00
    9    7    6     -1.25      0.00
    9    7    7     -0.26      0.00
    9    7    8      2.15      0.00
    9    7    9     -2.62      0.00
    9    7   10      2.45      0.00
    9    7   11      0.36      0.00
    9    7   12      0.91      0.00
    9    7   13      0.17      0.00
    9    7   14      1.88      0.00
    9    7   15     -0.54      0.00
    9    7   16      0.34      0.00
   -9    8   21      2.17      0.00
   -9    8   20      2.07      0.00
   -9    8   19      2.71      0.00
   -9    8   18      1.58      0.00
   -9    8   17     -0.31      0.00
   -9    8   16     -1.40      0.00
   -9    8   15     -0.09      0.00
   -9    8   14     -0.77      0.00
   -9    8   13     -0.57      0.00
   -9    8   12      1.58      0.00
   -9    8   11      0.39      0.00
   -9    8   10      2.80      0.00
   -9    8    9     -1.86      0.00
   -9    8    8     -3.25      0.00
   -9    8    7     -0.21      0.00
   -9    8    6     -0.31      0.00
   -9    8    5     -0.24      0.00
   -9    8    4     -4.05      0.00
   -9    8    3      0.67      0.00
   -9    8    2      0.57      0.00
   -9    8    1     -0.50      0.00
    9    8    0     -4.17      0.00
    9    8    1      0.79      0.00
    9    8    2      0.86      0.00
    9    8    3     -0.49      0.00
    9    8    4     -0.48      0.00
    9    8    5     -0.52      0.00
    9    8    6     -2.84      0.00
    9    8    7     -0.62      0.00
    9    8    8      0.55      0.00
    9    8    9     -1.34      0.00
    9    8   10      1.91      0.00
    9    8   11     -0.44      0.00
    9    8   12      0.33      0.00
    9    8   13      2.63      0.00
    9    8   14      2.33      0.00
    9    8   15     -2.00      0.00
    9    8   16      0.02      0.00
   -9    9   20     -2.17      0.00
   -9    9   19     -1.38      0.00
   -9    9   18      0.21      0.00
   -9    9   17     -0.02      0.00
   -9    9   16      0.54      0.00
   -9    9   15      5.77      0.00
   -9    9   14      0.35      0.00
   -9    9   13      1.27      0.00
   -9    9   12     -1.94      0.00
   -9    9   11     -0.94      0.00
   -9    9   10     -1.26      0.00
   -9    9    9      0.12      0.00
   -9    9    8     -2.38      0.00
   -9    9    7      2.97      0.00
   -9    9    6     -0.59      0.00
   -9    9    5      2.59      0.00
   -9    9    4     -2.24      0.00
   -9    9    3     -0.17      0.00
   -9    9    2      1.30      0.00
   -9    9    1      1.04      0.00
    9    9    0     -1.16      0.00
    9    9    1      1.19      0.00
    9    9    2     -2.52      0.00
    9    9    3     -1.39      0.00
    9    9    4      1.71      0.00
    9    9    5     -0.27      0.00
    9    9    6     -0.89      0.00
    9    9    7     -0.95      0.00
    9    9    8     -2.28      0.00
    9    9    9     -3.64      0.00
    9    9   10     -0.82      0.00
    9    9   11     -1.25      0.00
    9    9   12     -3.54      0.00
    9    9   13     -0.82      0.00
    9    9   14      0.17      0.00
    9    9   15      0.20      0.00
   -9   10   15      0.56      0.00
   -9   10   14     -4.71      0.00
   -9   10   13      0.59      0.00
   -9   10   12     -2.16      0.00
   -9   10   11      1.19      0.00
   -9   10   10      3.26      0.00
   -9   10    9      1.35      0.00
   -9   10    8     -1.78      0.00
   -9   10    7     -0.89      0.00
   -9   10    6      0.66      0.00
   -9   10    5     -1.18      0.00
   -9   10    4     -0.82      0.00
   -9   10    3     -1.35      0.00
   -9   10    2      3.72      0.00
   -9   10    1     -1.85      0.00
    9   10    0     -0.70      0.00
    9   10    1      1.92      0.00
    9   10    2      1.33      0.00
    9   10    3      0.26      0.00
    9   10    4      3.11      0.00
    9   10    5     -2.87      0.00
    9   10    6      2.82      0.00
    9   10    7      2.16      0.00
    9   10    8      5.31      0.00
    9   10    9     -0.25      0.00
    9   10   10      1.82      0.00
    9   10   11     -0.04      0.00
    9   10   12      1.84      0.00
    9   10   13      1.49      0.00
    9   10   14     -0.40      0.00
    9   10   15     -3.41      0.00
    9   10   16      0.34      0.00
   -9   11   14      1.68      0.00
   -9   11   13      0.71      0.00
   -9   11   12      1.46      0.00
   -9   11   11     -1.49      0.00
   -9   11   10      1.23      0.00
   -9   11    9     -3.22      0.00
   -9   11    8      0.24      0.00
   -9   11    7     -0.97      0.00
   -9   11    6      2.63      0.00
   -9   11    5      1.57      0.00
   -9   11    4      1.03      0.00
   -9   11    3     -0.82      0.00
   -9   11    2      0.81      0.00
   -9   11    1      1.45      0.00
    9   11    0     -0.43      0.00
    9   11    1      1.04      0.00
    9   11    2     -1.85      0.00
    9   11    3      1.69      0.00
    9   11    4      1.53      0.00
    9   11    5     -0.93      0.00
    9   11    6     -0.42      0.00
    9   11    7     -1.58      0.00
    9   11    8     -0.39      0.00
    9   11    9     -1.38      0.00
    9   11   10      0.77      0.00
    9   11   11     -1.46      0.00
    9   11   12     -1.56      0.00
    9   11   13     -2.28      0.00
    9   11   14      0.56      0.00
   -9   12   13     -2.96      0.00
   -9   12   12     -0.46      0.00
   -9   12   11     -3.35      0.00
   -9   12   10      1.92      0.00
   -9   12    9      1.62      0.00
   -9   12    8      1.61      0.00
   -9   12    7     -0.15      0.00
   -9   12    6      0.85      0.00
   -9   12    5      1.54      0.00
   -9   12    4     -1.53      0.00
   -9   12    3      1.46      0.00
   -9   12    2      0.15      0.00
   -9   12    1      1.02      0.00
    9   12    0     -0.35      0.00
    9   12    1     -1.52      0.00
    9   12    2     -0.79      0.00
    9   12    3      1.64      0.00
    9   12    4     -0.81      0.00
    9   12    5     -2.35      0.00
    9   12    6      0.11      0.00
    9   12    7      2.19      0.00
    9   12    8      0.07      0.00
    9   12    9     -0.65      0.00
    9   12   10     -0.36      0.00
    9   12   11      3.06      0.00
    9   12   12      3.10      0.00
   -9   13   11      3.10      0.00
   -9   13   10      1.58      0.00
   -9   13    9      0.82      0.00
   -9   13    8     -0.65      0.00
   -9   13    7     -1.03      0.00
   -9   13    6     -0.75      0.00
   -9   13    5     -0.40      0.00
   -9   13    4     -1.53      0.00
   -9   13    3     -0.67      0.00
   -9   13    2     -1.73      0.00
   -9   13    1     -0.94      0.00
    9   13    0      1.41      0.00
    9   13    1     -2.36      0.00
    9   13    2      0.18      0.00
    9   13    3     -0.48      0.00
    9   13    4      0.66      0.00
    9   13    5     -2.48      0.00
    9   13    6      0.83      0.00
    9   13    7     -0.88      0.00
    9   13    8      1.56      0.00
    9   13    9     -1.23      0.00
    9   13   10     -1.28      0.00
    9   13   11     -1.06      0.00
   -9   14    9     -1.18      0.00
   -9   14    8     -0.87      0.00
   -9   14    7     -2.40      0.00
   -9   14    6     -1.21      0.00
   -9   14    5     -0.19      0.00
   -9   14    4     -0.42      0.00
   -9   14    3      0.90      0.00
   -9   14    2     -1.27      0.00
   -9   14    1     -1.03      0.00
    9   14    0     -0.18      0.00
    9   14    1     -0.36      0.00
    9   14    2      0.37      0.00
    9   14    3      4.81      0.00
    9   14    4     -0.20      0.00
    9   14    5      0.04      0.00
    9   14    6      1.05      0.00
    9   14    7      0.23      0.00
    9   14    8     -0.29      0.00
    9   14    9     -1.44      0.00
    9   14   10      0.47      0.00
   -9   15    6      1.29      0.00
   -9   15    5      0.92      0.00
   -9   15    4     -0.07      0.00
   -9   15    3      2.30      0.00
   -9   15    2      0.98      0.00
   -9   15    1      1.50      0.00
    9   15    0     -1.91      0.00
    9   15    1      0.81      0.00
    9   15    2     -4.60      0.00
    9   15    3      1.51      0.00
    9   15    4     -4.51      0.00
    9   15    5      0.97      0.00
    9   15    6     -1.01      0.00
    9   15    7      2.88      0.00
    9   15    8      0.35      0.00
    9   15    9      1.04      0.00
    9   16    3      4.66      0.00
    9   16    4     -1.67      0.00
    9   16    5     -0.56      0.00
    9   16    6     -1.13      0.00
    9   16    7     -1.02      0.00
  -10    0   18     -0.99      0.00
  -10    0   16      3.77      0.00
  -10    0   14     -2.53      0.00
  -10    0   12      2.01      0.00
  -10    0   10      0.16      0.00
  -10    0    8     -0.23      0.00
  -10    0    6      1.87      0.00
  -10    0    4      2.52      0.00
  -10    0    2      1.38      0.00
   10    0    0      3.51      0.00
   10    0    2      2.99      0.00
   10    0    4      2.40      0.00
   10    0    6      1.62      0.00
   10    0    8      0.18      0.00
   10    0   10      0.54      0.00
   10    0   12      6.36      0.00
   10    0   14      2.70      0.00
  -10    1   19      0.48      0.00
  -10    1   18     -1.41      0.00
  -10    1   17     -2.35      0.00
  -10    1   16     -0.61      0.00
  -10    1   15     -0.83      0.00
  -10    1   14      1.72      0.00
  -10    1   13      0.49      0.00
  -10    1   12      2.28      0.00
  -10    1   11     -1.07      0.00
  -10    1   10      1.67      0.00
  -10    1    9     -0.21      0.00
  -10    1    8      0.61      0.00
  -10    1    7     -0.25      0.00
  -10    1    6      1.04      0.00
  -10    1    5     -3.28      0.00
  -10    1    4      1.28      0.00
  -10    1    3     -0.15      0.00
  -10    1    2      1.44      0.00
  -10    1    1     -1.30      0.00
   10    1    0     -1.05      0.00
   10    1    1     -0.61      0.00
   10    1    2      0.02      0.00
   10    1    3     -1.60      0.00
   10    1    4      0.64      0.00
   10    1    5      1.49      0.00
   10    1    6     -0.45      0.00
   10    1    7     -0.78      0.00
   10    1    8      0.30      0.00
   10    1    9      5.02      0.00
   10    1   10      2.36      0.00
   10    1   11     -3.27      0.00
   10    1   12      3.32      0.00
   10    1   13     -2.98      0.00
   10    1   14      3.05      0.00
  -10    2   19      2.43      0.00
  -10    2   18      0.19      0.00
  -10    2   17     -0.09      0.00
  -10    2   16      4.05      0.00
  -10    2   15      1.84      0.00
  -10    2   14     -1.36      0.00
  -10    2   13     -3.15      0.00
  -10    2   12      1.56      0.00
  -10    2   11     -0.12      0.00
  -10    2   10      0.03      0.00
  -10    2    9     -1.28      0.00
  -10    2    8     -0.94      0.00
  -10    2    7      1.10      0.00
  -10    2    6      0.73      0.00
  -10    2    5     -0.52      0.00
  -10    2    4      0.37      0.00
  -10    2    3      1.79      0.00
  -10    2    2     -1.45      0.00
  -10    2    1     -0.14      0.00
   10    2    0      0.20      0.00
   10    2    1     -2.17      0.00
   10    2    2     -0.65      0.00
   10    2    3     -1.89      0.00
   10    2    4     -0.81      0.00
   10    2    5     -2.84      0.00
   10    2    6     -1.40      0.00
   10    2    7      0.15      0.00
   10    2    8     -2.88      0.00
   10    2    9     -2.83      0.00
   10    2   10     -2.74      0.00
   10    2   11     -1.67      0.00
   10    2   12      3.82      0.00
   10    2   13     -2.53      0.00
   10    2   14      2.58      0.00
  -10    3   19     -0.55      0.00
  -10    3   18     -1.51      0.00
  -10    3   17     -2.18      0.00
  -10    3   16     -0.77      0.00
  -10    3   15     -0.67      0.00
  -10    3   14     -0.42      0.00
  -10    3   13      0.43      0.00
  -10    3   12     -0.01      0.00
  -10    3   11     -0.94      0.00
  -10    3   10     -0.58      0.00
  -10    3    9      1.08      0.00
  -10    3    8     -0.78      0.00
  -10    3    7      2.67      0.00
  -10    3    6      0.35      0.00
  -10    3    5      0.69      0.00
  -10    3    4     -0.26      0.00
  -10    3    3      2.77      0.00
  -10    3    2     -0.47      0.00
  -10    3    1     -1.10      0.00
   10    3    0      0.00      0.00
   10    3    1     -0.17      0.00
   10    3    2      1.26      0.00
   10    3    3     -1.94      0.00
   10    3    4      2.90      0.00
   10    3    5      0.87      0.00
   10    3    6      0.14      0.00
   10    3    7     -3.14      0.00
   10    3    8      1.99      0.00
   10    3    9      1.84      0.00
   10    3   10      0.74      0.00
   10    3   11     -4.97      0.00
   10    3   12      0.47      0.00
   10    3   13     -4.35      0.00
   10    3   14      1.09      0.00
  -10    4   19      3.34      0.00
  -10    4   18      0.88      0.00
  -10    4   17     -1.15      0.00
  -10    4   16      0.44      0.00
  -10    4   15      3.19      0.00
  -10    4   14     -3.11      0.00
  -10    4   13     -0.72      0.00
  -10    4   12      0.52      0.00
  -10    4   11      2.07      0.00
  -10    4   10     -0.08      0.00
  -10    4    9     -0.46      0.00
  -10    4    8     -0.77      0.00
  -10    4    7     -0.34      0.00
  -10    4    6     -1.54      0.00
  -10    4    5     -2.98      0.00
  -10    4    4     -2.49      0.00
  -10    4    3     -0.20      0.00
  -10    4    2     -1.76      0.00
  -10    4    1     -4.05      0.00
   10    4    0      0.22      0.00
   10    4    1      1.36      0.00
   10    4    2     -1.13      0.00
   10    4    3      2.77      0.00
   10    4    4     -0.95      0.00
   10    4    5      0.69      0.00
   10    4    6      0.06      0.00
   10    4    7      2.71      0.00
   10    4    8      0.87      0.00
   10    4    9     -2.16      0.00
   10    4   10      0.85      0.00
   10    4   11      0.79      0.00
   10    4   12      2.31      0.00
   10    4   13     -2.37      0.00
   10    4   14      1.80      0.00
  -10    5   19     -0.01      0.00
  -10    5   18     -0.27      0.00
  -10    5   17      0.03      0.00
  -10    5   16      0.87      0.00
  -10    5   15      3.60      0.00
  -10    5   14     -1.86      0.00
  -10    5   13      1.63      0.00
  -10    5   12     -0.35      0.00
  -10    5   11     -0.58      0.00
  -10    5   10     -0.10      0.00
  -10    5    9     -1.50      0.00
  -10    5    8      1.01      0.00
  -10    5    7      0.63      0.00
  -10    5    6      1.28      0.00
  -10    5    5      0.40      0.00
  -10    5    4     -0.56      0.00
  -10    5    3      4.01      0.00
  -10    5    2      0.29      0.00
  -10    5    1     -0.80      0.00
   10    5    0     -1.28      0.00
   10    5    1      3.44      0.00
   10    5    2     -2.57      0.00
   10    5    3      1.29      0.00
   10    5    4     -1.57      0.00
   10    5    5      4.23      0.00
   10    5    6     -4.81      0.00
   10    5    7      1.27      0.00
   10    5    8      1.34      0.00
   10    5    9      2.40      0.00
   10    5   10     -0.38      0.00
   10    5   11      1.42      0.00
   10    5   12      0.89      0.00
   10    5   13      3.11      0.00
   10    5   14      2.99      0.00
  -10    6   19     -0.27      0.00
  -10    6   18      1.11      0.00
  -10    6   17     -4.44      0.00
  -10    6   16     -1.15      0.00
  -10    6   15      0.97      0.00
  -10    6   14     -3.47      0.00
  -10    6   13     -0.48      0.00
  -10    6   12      1.34      0.00
  -10    6   11      1.11      0.00
  -10    6   10     -0.68      0.00
  -10    6    9     -1.90      0.00
  -10    6    8      0.96      0.00
  -10    6    7     -0.47      0.00
  -10    6    6     -1.74      0.00
  -10    6    5      0.35      0.00
  -10    6    4     -2.16      0.00
  -10    6    3      2.80      0.00
  -10    6    2      0.16      0.00
  -10    6    1     -0.27      0.00
   10    6    0      0.77      0.00
   10    6    1     -1.31      0.00
   10    6    2      0.61      0.00
   10    6    3      0.75      0.00
   10    6    4      0.00      0.00
   10    6    5     -0.23      0.00
   10    6    6     -2.31      0.00
   10    6    7      0.94      0.00
   10    6    8     -1.55      0.00
   10    6    9     -2.15      0.00
   10    6   10     -0.29      0.00
   10    6   11      1.05      0.00
   10    6   12     -3.48      0.00
   10    6   13      0.04      0.00
   10    6   14     -2.28      0.00
  -10    7   19     -1.38      0.00
  -10    7   18      2.25      0.00
  -10    7   17     -2.01      0.00
  -10    7   16      2.02      0.00
  -10    7   15      3.03      0.00
  -10    7   14     -1.64      0.00
  -10    7   13      0.02      0.00
  -10    7   12     -0.78      0.00
  -10    7   11      1.26      0.00
  -10    7   10      0.71      0.00
  -10    7    9      0.21      0.00
  -10    7    8      1.31      0.00
  -10    7    7      2.39      0.00
  -10    7    6      1.01      0.00
  -10    7    5      0.71      0.00
  -10    7    4     -1.93      0.00
  -10    7    3      2.18      0.00
  -10    7    2      1.39      0.00
  -10    7    1     -3.19      0.00
   10    7    0     -0.16      0.00
   10    7    1      0.18      0.00
   10    7    2     -1.59      0.00
   10    7    3     -2.97      0.00
   10    7    4      1.98      0.00
   10    7    5      1.22      0.00
   10    7    6     -0.45      0.00
   10    7    7      2.19      0.00
   10    7    8      1.57      0.00
   10    7    9     -1.66      0.00
   10    7   10     -1.97      0.00
   10    7   11      0.09      0.00
   10    7   12     -2.40      0.00
   10    7   13      2.63      0.00
   10    7   14     -1.18      0.00
  -10    8   18      0.89      0.00
  -10    8   17     -1.74      0.00
  -10    8   16     -0.36      0.00
  -10    8   15      2.54      0.00
  -10    8   14     -1.95      0.00
  -10    8   13      0.71      0.00
  -10    8   12      1.21      0.00
  -10    8   11      1.94      0.00
  -10    8   10     -2.39      0.00
  -10    8    9     -1.75      0.00
  -10    8    8     -0.45      0.00
  -10    8    7      0.12      0.00
  -10    8    6     -2.18      0.00
  -10    8    5      1.32      0.00
  -10    8    4     -1.18      0.00
  -10    8    3      1.06      0.00
  -10    8    2      0.70      0.00
  -10    8    1     -0.60      0.00
   10    8    0      0.23      0.00
   10    8    1      0.56      0.00
   10    8    2      0.28      0.00
   10    8    3     -0.15      0.00
   10    8    4     -0.03      0.00
   10    8    5     -1.03      0.00
   10    8    6     -3.18      0.00
   10    8    7      1.78      0.00
   10    8    8     -0.04      0.00
   10    8    9      2.89      0.00
   10    8   10      2.51      0.00
   10    8   11      3.17      0.00
   10    8   12     -2.20      0.00
   10    8   13      3.48      0.00
   10    8   14     -2.34      0.00
   10    8   15      0.98      0.00
  -10    9   13     -2.02      0.00
  -10    9   12     -2.28      0.00
  -10    9   11      0.54      0.00
  -10    9   10     -0.52      0.00
  -10    9    9      0.61      0.00
  -10    9    8     -0.44      0.00
  -10    9    7      1.32      0.00
  -10    9    6      0.74      0.00
  -10    9    5      0.76      0.00
  -10    9    4     -2.37      0.00
  -10    9    3      0.59      0.00
  -10    9    2      0.52      0.00
  -10    9    1     -1.54      0.00
   10    9    0      2.41      0.00
   10    9    1      0.27      0.00
   10    9    2      1.13      0.00
   10    9    3     -2.22      0.00
   10    9    4      2.48      0.00
   10    9    5     -0.42      0.00
   10    9    6     -1.50      0.00
   10    9    7      0.13      0.00
   10    9    8     -3.32      0.00
   10    9    9     -2.77      0.00
   10    9   10     -2.35      0.00
   10    9   11      0.29      0.00
   10    9   12     -0.09      0.00
   10    9   13      3.40      0.00
   10    9   14     -1.17      0.00
   10    9   15      1.31      0.00
  -10   10   12      1.74      0.00
  -10   10   11      2.67      0.00
  -10   10   10      0.00      0.00
  -10   10    9     -0.46      0.00
  -10   10    8      1.27      0.00
  -10   10    7     -1.83      0.00
  -10   10    6      0.60      0.00
  -10   10    5     -1.54      0.00
  -10   10    4      0.10      0.00
  -10   10    3     -1.79      0.00
  -10   10    2      0.03      0.00
  -10   10    1     -0.19      0.00
   10   10    0      0.00      0.00
   10   10    1     -0.88      0.00
   10   10    2     -0.09      0.00
   10   10    3     -0.40      0.00
   10   10    4      2.39      0.00
   10   10    5      0.03      0.00
   10   10    6      0.44      0.00
   10   10    7      2.91      0.00
   10   10    8      0.91      0.00
   10   10    9      1.82      0.00
   10   10   10      0.30      0.00
   10   10   11     -2.32      0.00
   10   10   12     -1.57      0.00
   10   10   13     -1.02      0.00
  -10   11   11     -1.17      0.00
  -10   11   10      0.06      0.00
  -10   11    9     -1.89      0.00
  -10   11    8      0.79      0.00
  -10   11    7     -3.47      0.00
  -10   11    6      1.70      0.00
  -10   11    5     -0.69      0.00
  -10   11    4      0.38      0.00
  -10   11    3     -0.39      0.00
  -10   11    2      0.91      0.00
  -10   11    1      0.31      0.00
   10   11    0      0.29      0.00
   10   11    1      1.75      0.00
   10   11    2     -1.09      0.00
   10   11    3      0.73      0.00
   10   11    4     -1.75      0.00
   10   11    5      1.54      0.00
   10   11    6     -2.23      0.00
   10   11    7      1.70      0.00
   10   11    8     -2.36      0.00
   10   11    9      0.99      0.00
   10   11   10     -1.11      0.00
   10   11   11      1.06      0.00
  -10   12    8      2.25      0.00
  -10   12    7      0.34      0.00
  -10   12    6      1.49      0.00
  -10   12    5      2.04      0.00
  -10   12    4      0.24      0.00
  -10   12    3      0.95      0.00
  -10   12    2      0.46      0.00
  -10   12    1      1.02      0.00
   10   12    0      1.15      0.00
   10   12    1     -1.59      0.00
   10   12    2      0.07      0.00
   10   12    3      1.55      0.00
   10   12    4     -0.49      0.00
   10   12    5     -0.39      0.00
   10   12    6     -1.11      0.00
   10   12    7      1.35      0.00
   10   12    8     -0.53      0.00
   10   12    9      1.77      0.00
  -10   13    6     -1.65      0.00
  -10   13    5      0.50      0.00
  -10   13    4      0.09      0.00
  -10   13    3      0.40      0.00
  -10   13    2     -0.14      0.00
  -10   13    1     -1.10      0.00
   10   13    0      0.07      0.00
   10   13    1     -1.26      0.00
   10   13    2     -0.16      0.00
   10   13    3     -1.99      0.00
   10   13    4      0.21      0.00
   10   13    5     -0.32      0.00
   10   13    6      1.55      0.00
   10   13    7     -1.03      0.00
   10   13    8      1.10      0.00
   10   14    2      1.25      0.00
   10   14    3      2.31      0.00
   10   14    4     -0.83      0.00
   10   14    5     -1.17      0.00
   10   14    6      0.12      0.00
   10   14    7     -1.31      0.00
   10   15    4      0.02      0.00
   10   15    5      0.99      0.00
   10   15    6      0.77      0.00
  -11    0   16      0.75      0.00
  -11    0   14     -1.89      0.00
  -11    0   12      1.66      0.00
  -11    0   10      2.43      0.00
  -11    0    8      1.40      0.00
  -11    0    6      0.49      0.00
  -11    0    4     -0.90      0.00
  -11    0    2     -0.63      0.00
   11    0    0     -0.23      0.00
   11    0    2     -3.16      0.00
   11    0    4      1.61      0.00
   11    0    6      0.57      0.00
   11    0    8     -0.06      0.00
   11    0   10      0.95      0.00
  -11    1   17     -4.01      0.00
  -11    1   16     -0.13      0.00
  -11    1   15      1.35      0.00
  -11    1   14      2.62      0.00
  -11    1   13     -0.63      0.00
  -11    1   12      4.37      0.00
  -11    1   11     -0.33      0.00
  -11    1   10      3.45      0.00
  -11    1    9     -1.03      0.00
  -11    1    8      0.00      0.00
  -11    1    7     -0.05      0.00
  -11    1    6     -1.31      0.00
  -11    1    5      0.76      0.00
  -11    1    4     -1.44      0.00
  -11    1    3      0.52      0.00
  -11    1    2     -1.80      0.00
  -11    1    1      0.20      0.00
   11    1    0      0.09      0.00
   11    1    1      0.43      0.00
   11    1    2     -1.74      0.00
   11    1    3      1.56      0.00
   11    1    4     -4.10      0.00
   11    1    5     -1.96      0.00
   11    1    6     -1.07      0.00
   11    1    7      1.22      0.00
   11    1    8     -1.87      0.00
   11    1    9      1.14      0.00
   11    1   10     -0.40      0.00
   11    1   11     -1.82      0.00
  -11    2   17      2.93      0.00
  -11    2   16      3.72      0.00
  -11    2   15      1.86      0.00
  -11    2   14     -1.03      0.00
  -11    2   13     -2.39      0.00
  -11    2   12      0.45      0.00
  -11    2   11     -4.27      0.00
  -11    2   10     -1.08      0.00
  -11    2    9     -1.68      0.00
  -11    2    8     -1.58      0.00
  -11    2    7      0.29      0.00
  -11    2    6     -1.86      0.00
  -11    2    5      0.96      0.00
  -11    2    4     -2.52      0.00
  -11    2    3      2.22      0.00
  -11    2    2     -0.83      0.00
  -11    2    1      2.14      0.00
   11    2    0      1.87      0.00
   11    2    1     -1.48      0.00
   11    2    2      0.02      0.00
   11    2    3      2.99      0.00
   11    2    4      1.39      0.00
   11    2    5     -0.61      0.00
   11    2    6     -0.90      0.00
   11    2    7     -0.12      0.00
   11    2    8     -1.77      0.00
   11    2    9     -0.31      0.00
   11    2   10      0.07      0.00
   11    2   11      0.83      0.00
  -11    3   18     -2.93      0.00
  -11    3   17     -4.85      0.00
  -11    3   16     -3.55      0.00
  -11    3   15      0.46      0.00
  -11    3   14     -0.76      0.00
  -11    3   13      0.18      0.00
  -11    3   12      3.00      0.00
  -11    3   11      0.36      0.00
  -11    3   10      1.69      0.00
  -11    3    9      2.21      0.00
  -11    3    8      0.06      0.00
  -11    3    7      0.70      0.00
  -11    3    6     -0.32      0.00
  -11    3    5      4.09      0.00
  -11    3    4      0.68      0.00
  -11    3    3      2.41      0.00
  -11    3    2     -1.49      0.00
  -11    3    1      0.11      0.00
   11    3    0      0.48      0.00
   11    3    1     -2.63      0.00
   11    3    2      1.36      0.00
   11    3    3     -1.22      0.00
   11    3    4     -0.41      0.00
   11    3    5     -0.66      0.00
   11    3    6      4.07      0.00
   11    3    7      0.30      0.00
   11    3    8     -0.16      0.00
   11    3    9     -0.40      0.00
   11    3   10      0.05      0.00
  -11    4   18      2.93      0.00
  -11    4   17      2.54      0.00
  -11    4   16      2.15      0.00
  -11    4   15      2.18      0.00
  -11    4   14     -2.05      0.00
  -11    4   13     -2.68      0.00
  -11    4   12     -0.44      0.00
  -11    4   11     -2.85      0.00
  -11    4   10     -2.41      0.00
  -11    4    9     -0.01      0.00
  -11    4    8      1.32      0.00
  -11    4    7     -0.26      0.00
  -11    4    6      0.13      0.00
  -11    4    5      0.02      0.00
  -11    4    4     -1.74      0.00
  -11    4    3      0.10      0.00
  -11    4    2     -1.69      0.00
  -11    4    1     -0.43      0.00
   11    4    0      0.92      0.00
   11    4    1     -0.46      0.00
   11    4    2      0.93      0.00
   11    4    3      1.76      0.00
   11    4    4      0.93      0.00
   11    4    5     -2.12      0.00
   11    4    6      0.65      0.00
   11    4    7      0.55      0.00
   11    4    8      0.29      0.00
   11    4    9      0.05      0.00
   11    4   10      1.89      0.00
  -11    5   17     -2.90      0.00
  -11    5   16     -2.84      0.00
  -11    5   15      1.11      0.00
  -11    5   14     -0.88      0.00
  -11    5   13      0.99      0.00
  -11    5   12      2.73      0.00
  -11    5   11      1.09      0.00
  -11    5   10      0.77      0.00
  -11    5    9      0.68      0.00
  -11    5    8      2.14      0.00
  -11    5    7     -3.62      0.00
  -11    5    6     -0.33      0.00
  -11    5    5      1.35      0.00
  -11    5    4     -0.49      0.00
  -11    5    3      1.03      0.00
  -11    5    2     -3.03      0.00
  -11    5    1      1.13      0.00
   11    5    0      0.86      0.00
   11    5    1     -1.06      0.00
   11    5    2      0.34      0.00
   11    5    3     -0.87      0.00
   11    5    4     -0.30      0.00
   11    5    5     -0.58      0.00
   11    5    6      1.10      0.00
   11    5    7      0.08      0.00
   11    5    8     -0.49      0.00
   11    5    9      0.74      0.00
   11    5   10      2.15      0.00
  -11    6   16     -0.22      0.00
  -11    6   15      2.17      0.00
  -11    6   14     -0.76      0.00
  -11    6   13     -0.96      0.00
  -11    6   12      0.91      0.00
  -11    6   11     -0.63      0.00
  -11    6   10     -1.73      0.00
  -11    6    9     -1.15      0.00
  -11    6    8      3.03      0.00
  -11    6    7     -1.85      0.00
  -11    6    6     -1.69      0.00
  -11    6    5      0.19      0.00
  -11    6    4     -2.62      0.00
  -11    6    3      1.36      0.00
  -11    6    2     -2.91      0.00
  -11    6    1      2.84      0.00
   11    6    0      0.68      0.00
   11    6    1     -1.20      0.00
   11    6    2      1.05      0.00
   11    6    3     -0.81      0.00
   11    6    4      0.81      0.00
   11    6    5     -2.87      0.00
   11    6    6      0.24      0.00
   11    6    7     -0.28      0.00
   11    6    8     -1.16      0.00
   11    6    9     -1.25      0.00
   11    6   10      0.45      0.00
   11    6   11     -2.37      0.00
  -11    7   12      1.28      0.00
  -11    7   11      0.65      0.00
  -11    7   10     -0.02      0.00
  -11    7    9      0.16      0.00
  -11    7    8      0.94      0.00
  -11    7    7     -1.72      0.00
  -11    7    6     -0.13      0.00
  -11    7    5      2.99      0.00
  -11    7    4      0.23      0.00
  -11    7    3      2.23      0.00
  -11    7    2     -1.38      0.00
  -11    7    1      1.64      0.00
   11    7    0      0.27      0.00
   11    7    1     -1.10      0.00
   11    7    2     -1.34      0.00
   11    7    3      0.73      0.00
   11    7    4      1.12      0.00
   11    7    5     -0.47      0.00
   11    7    6      0.12      0.00
   11    7    7     -0.01      0.00
   11    7    8     -1.32      0.00
   11    7    9     -0.42      0.00
   11    7   10     -0.39      0.00
   11    7   11     -2.14      0.00
   11    7   12     -0.14      0.00
  -11    8   11     -0.14      0.00
  -11    8   10     -2.09      0.00
  -11    8    9     -1.03      0.00
  -11    8    8      2.23      0.00
  -11    8    7      0.26      0.00
  -11    8    6     -1.35      0.00
  -11    8    5      0.93      0.00
  -11    8    4      0.52      0.00
  -11    8    3      1.55      0.00
  -11    8    2     -2.00      0.00
  -11    8    1      3.40      0.00
   11    8    0      2.53      0.00
   11    8    1      1.45      0.00
   11    8    2     -0.64      0.00
   11    8    3      1.16      0.00
   11    8    4     -0.17      0.00
   11    8    5      0.86      0.00
   11    8    6      0.52      0.00
   11    8    7      1.95      0.00
   11    8    8      0.62      0.00
   11    8    9      1.78      0.00
   11    8   10      1.36      0.00
   11    8   11      1.24      0.00
   11    8   12      2.76      0.00
  -11    9   10      1.04      0.00
  -11    9    9      1.04      0.00
  -11    9    8      1.12      0.00
  -11    9    7     -0.71      0.00
  -11    9    6      1.57      0.00
  -11    9    5      1.47      0.00
  -11    9    4     -0.47      0.00
  -11    9    3      0.19      0.00
  -11    9    2     -3.59      0.00
  -11    9    1     -0.01      0.00
   11    9    0      3.08      0.00
   11    9    1     -2.85      0.00
   11    9    2     -0.39      0.00
   11    9    3      0.37      0.00
   11    9    4      0.00      0.00
   11    9    5     -1.05      0.00
   11    9    6     -1.08      0.00
   11    9    7     -0.44      0.00
   11    9    8      0.13      0.00
   11    9    9     -0.59      0.00
   11    9   10     -0.90      0.00
   11    9   11     -2.02      0.00
   11    9   12     -0.43      0.00
  -11   10    9     -1.97      0.00
  -11   10    8      0.83      0.00
  -11   10    7     -2.66      0.00
  -11   10    6     -1.01      0.00
  -11   10    5     -3.75      0.00
  -11   10    4      0.90      0.00
  -11   10    3      0.14      0.00
  -11   10    2     -3.89      0.00
  -11   10    1      2.88      0.00
   11   10    0      1.58      0.00
   11   10    1      0.32      0.00
   11   10    2     -1.09      0.00
   11   10    3      0.56      0.00
   11   10    4      1.13      0.00
   11   10    5      1.46      0.00
   11   10    6     -0.10      0.00
   11   10    7     -0.11      0.00
   11   10    8     -0.20      0.00
   11   10    9     -0.73      0.00
   11   10   10      0.64      0.00
  -11   11    3      0.72      0.00
  -11   11    2     -2.39      0.00
  -11   11    1      2.62      0.00
   11   11    0      0.21      0.00
   11   11    1      0.71      0.00
   11   11    2     -2.47      0.00
   11   11    3      0.51      0.00
   11   11    4     -2.08      0.00
   11   11    5     -0.52      0.00
   11   11    6     -1.89      0.00
   11   11    7      0.99      0.00
   11   12    1      1.49      0.00
   11   12    2     -1.17      0.00
   11   12    3      1.39      0.00
   11   12    4      1.24      0.00
   11   12    5      1.29      0.00
   11   12    6     -0.19      0.00
   11   13    3      0.31      0.00
   11   13    4      0.18      0.00
   11   13    5     -0.62      0.00
  -12    0   14     -0.38      0.00
  -12    0   12     -2.25      0.00
  -12    0   10      1.17      0.00
  -12    0    8      0.87      0.00
  -12    0    6     -0.65      0.00
  -12    0    4     -2.43      0.00
  -12    0    2     -0.93      0.00
   12    0    0     -1.31      0.00
   12    0    2     -2.74      0.00
   12    0    4      1.41      0.00
   12    0    6      0.73      0.00
  -12    1   15      0.26      0.00
  -12    1   14      1.22      0.00
  -12    1   13      0.64      0.00
  -12    1   12      1.26      0.00
  -12    1   11      2.36      0.00
  -12    1   10      0.40      0.00
  -12    1    9      0.30      0.00
  -12    1    8     -2.24      0.00
  -12    1    7     -0.66      0.00
  -12    1    6     -1.92      0.00
  -12    1    5      1.17      0.00
  -12    1    4     -1.05      0.00
  -12    1    3     -0.54      0.00
  -12    1    2      0.96      0.00
  -12    1    1      0.77      0.00
   12    1    0     -0.49      0.00
   12    1    1      2.43      0.00
   12    1    2     -0.95      0.00
   12    1    3      0.99      0.00
   12    1    4     -3.24      0.00
   12    1    5     -2.12      0.00
   12    1    6     -1.22      0.00
  -12    2   15      0.42      0.00
  -12    2   14     -0.31      0.00
  -12    2   13      3.13      0.00
  -12    2   12     -1.70      0.00
  -12    2   11     -2.22      0.00
  -12    2   10     -2.23      0.00
  -12    2    9      1.48      0.00
  -12    2    8     -1.05      0.00
  -12    2    7     -1.84      0.00
  -12    2    6      0.31      0.00
  -12    2    5      0.58      0.00
  -12    2    4      0.77      0.00
  -12    2    3     -1.13      0.00
  -12    2    2      1.44      0.00
  -12    2    1     -0.05      0.00
   12    2    0     -1.90      0.00
   12    2    1     -1.65      0.00
   12    2    2     -1.47      0.00
   12    2    3      3.11      0.00
   12    2    4      1.80      0.00
   12    2    5      2.22      0.00
   12    2    6      0.82      0.00
  -12    3   15      1.99      0.00
  -12    3   14     -2.22      0.00
  -12    3   13      0.18      0.00
  -12    3   12     -0.22      0.00
  -12    3   11     -0.51      0.00
  -12    3   10      1.35      0.00
  -12    3    9      1.33      0.00
  -12    3    8      1.57      0.00
  -12    3    7     -0.93      0.00
  -12    3    6      2.07      0.00
  -12    3    5      1.15      0.00
  -12    3    4      0.97      0.00
  -12    3    3     -1.57      0.00
  -12    3    2      0.95      0.00
  -12    3    1      1.63      0.00
   12    3    0      2.84      0.00
   12    3    1      2.06      0.00
   12    3    2      0.82      0.00
   12    3    3     -1.65      0.00
   12    3    4     -2.26      0.00
   12    3    5     -1.71      0.00
   12    3    6      1.57      0.00
  -12    4   12      3.03      0.00
  -12    4   11     -4.34      0.00
  -12    4   10     -0.21      0.00
  -12    4    9      0.93      0.00
  -12    4    8      0.84      0.00
  -12    4    7     -1.85      0.00
  -12    4    6      0.40      0.00
  -12    4    5      2.05      0.00
  -12    4    4     -0.02      0.00
  -12    4    3     -0.27      0.00
  -12    4    2      0.06      0.00
  -12    4    1      2.14      0.00
   12    4    0     -4.76      0.00
   12    4    1     -3.20      0.00
   12    4    2      1.31      0.00
   12    4    3      1.94      0.00
   12    4    4      1.46      0.00
   12    4    5     -0.94      0.00
   12    4    6      1.81      0.00
  -12    5   12      2.54      0.00
  -12    5   11     -2.25      0.00
  -12    5   10      0.65      0.00
  -12    5    9      1.50      0.00
  -12    5    8      0.91      0.00
  -12    5    7     -0.70      0.00
  -12    5    6     -1.60      0.00
  -12    5    5      1.06      0.00
  -12    5    4     -2.56      0.00
  -12    5    3     -0.60      0.00
  -12    5    2     -2.20      0.00
  -12    5    1      4.27      0.00
   12    5    0      4.45      0.00
   12    5    1      0.78      0.00
   12    5    2     -0.50      0.00
   12    5    3     -2.50      0.00
   12    5    4     -0.41      0.00
   12    5    5     -2.28      0.00
   12    5    6      1.96      0.00
  -12    6   12      3.90      0.00
  -12    6   11     -0.89      0.00
  -12    6   10     -0.92      0.00
  -12    6    9      0.20      0.00
  -12    6    8     -0.74      0.00
  -12    6    7     -2.00      0.00
  -12    6    6     -1.16      0.00
  -12    6    5      1.88      0.00
  -12    6    4     -1.89      0.00
  -12    6    3      0.42      0.00
  -12    6    2     -1.43      0.00
  -12    6    1      2.57      0.00
   12    6    0     -4.48      0.00
   12    6    1     -0.45      0.00
   12    6    2      3.50      0.00
   12    6    3      0.11      0.00
   12    6    4      0.05      0.00
   12    6    5     -2.62      0.00
   12    6    6      3.69      0.00
  -12    7   10     -0.45      0.00
  -12    7    9      0.65      0.00
  -12    7    8      1.74      0.00
  -12    7    7     -0.23      0.00
  -12    7    6      0.77      0.00
  -12    7    5      0.99      0.00
  -12    7    4      0.08      0.00
  -12    7    3     -0.20      0.00
  -12    7    2      1.30      0.00
  -12    7    1      4.22      0.00
   12    7    0     -0.99      0.00
   12    7    1     -0.22      0.00
   12    7    2     -2.05      0.00
   12    7    3      1.66      0.00
   12    7    4      2.09      0.00
   12    7    5     -2.11      0.00
   12    7    6      2.12      0.00
   12    7    7     -3.10      0.00
  -12    8    4      0.64      0.00
  -12    8    3     -1.05      0.00
  -12    8    2      0.31      0.00
  -12    8    1     -0.58      0.00
   12    8    0     -2.42      0.00
   12    8    1      3.41      0.00
   12    8    2     -0.60      0.00
   12    8    3     -0.45      0.00
   12    8    4     -2.35      0.00
   12    8    5     -0.18      0.00
   12    8    6      5.06      0.00
   12    8    7     -0.57      0.00
  -12    9    1      1.43      0.00
   12    9    0     -0.98      0.00
   12    9    1     -0.51      0.00
   12    9    2     -0.07      0.00
   12    9    3      3.44      0.00
   12    9    4      0.74      0.00
   12    9    6     -0.57      0.00
   12    9    7     -2.82      0.00
   12   10    1      0.79      0.00
   12   10    2     -1.24      0.00
   12   10    3     -1.54      0.00
   12   10    4     -0.46      0.00
  -13    0   10      2.82      0.00
  -13    0    8     -2.31      0.00
  -13    0    6     -2.75      0.00
  -13    0    4      0.66      0.00
  -13    0    2      0.85      0.00
   13    0    0     -0.58      0.00
  -13    1   10     -0.32      0.00
  -13    1    9     -0.57      0.00
  -13    1    8     -0.11      0.00
  -13    1    7      1.71      0.00
  -13    1    6      1.17      0.00
  -13    1    5      0.49      0.00
  -13    1    4      0.12      0.00
  -13    1    3     -1.90      0.00
  -13    1    2     -1.61      0.00
  -13    1    1      0.20      0.00
   13    1    0      2.16      0.00
   13    1    1      0.98      0.00
  -13    2   10      1.98      0.00
  -13    2    9     -1.30      0.00
  -13    2    8      0.11      0.00
  -13    2    7     -3.64      0.00
  -13    2    6     -0.47      0.00
  -13    2    5     -1.51      0.00
  -13    2    4      0.91      0.00
  -13    2    3      1.18      0.00
  -13    2    2      0.20      0.00
  -13    2    1      4.05      0.00
   13    2    0      0.10      0.00
   13    2    1     -2.92      0.00
  -13    3   10      2.65      0.00
  -13    3    9     -0.77      0.00
  -13    3    8      2.54      0.00
  -13    3    7      0.85      0.00
  -13    3    6      2.14      0.00
  -13    3    5      0.77      0.00
  -13    3    4      0.04      0.00
  -13    3    3      0.35      0.00
  -13    3    2     -1.83      0.00
  -13    3    1     -0.36      0.00
   13    3    0      3.92      0.00
   13    3    1     -0.22      0.00
  -13    4    6     -1.13      0.00
  -13    4    5      0.47      0.00
  -13    4    4      0.48      0.00
  -13    4    3     -0.28      0.00
  -13    4    2      0.24      0.00
  -13    4    1      1.06      0.00
   13    4    0      0.01      0.00
   13    4    1     -2.48      0.00
  -13    5    4      0.19      0.00
  -13    5    3     -0.21      0.00
  -13    5    2      0.76      0.00
  -13    5    1     -0.93      0.00
   13    5    0      1.65      0.00
   13    5    1      1.00      0.00
  -13    6    2      0.59      0.00
  -13    6    1     -0.72      0.00
   13    6    0     -0.52      0.00
   13    6    1     -1.25      0.00
    1    0    0     68.67      0.00
    1    1    0     21.38      0.00
    0    2    0    156.16      0.00
   -1    1    1     19.63      0.00
    0    1    1   -201.57      0.00
    1    1    1    -20.98      0.00
    0    2    1    -47.26      0.00
   -1    0    2     42.34      0.00
    0    0    2    106.44      0.00
    0    1    2     49.38      0.00
   -9   15    7      1.24      0.00
  -10   12    9      0.75      0.00
   -9   14   10     -4.47      0.00
   11    3   11     -2.88      0.00
   -9   13   12      1.93      0.00
    1   20   12     -0.79      0.00
  -10    9   14     -1.38      0.00
   -9   11   15      4.49      0.00
   -9   10   16     -5.04      0.00
    0    2   27      1.72      0.00
   -1    3   27      0.06      0.00
    0    0    0      0.00      0.00
# SQUEEZE RESULTS (Version =  90616)
# Note: Data are Listed for all Voids in the P1 Unit Cell
# i.e. Centre of Gravity, Solvent Accessible Volume,
# Recovered number of Electrons in the Void and
# Details about the Squeezed Material
loop_
  _platon_squeeze_void_nr
  _platon_squeeze_void_average_x
  _platon_squeeze_void_average_y
  _platon_squeeze_void_average_z
  _platon_squeeze_void_volume
  _platon_squeeze_void_count_electrons
  _platon_squeeze_void_content
   1 -0.010  0.000  0.500       638       205 ' '
   2 -0.039  0.500  1.000       638       206 ' '
# Missing Reflections Below sin(th)/lambda = 0.25
loop_
  _platon_missing_refln_index_h
  _platon_missing_refln_index_k
  _platon_missing_refln_index_l
  _platon_missing_refln_theta
    1    0    0     2.115
    1    1    0     2.424
    0    2    0     2.369
   -1    1    1     2.555
    0    1    1     1.536
    1    1    1     2.672
    0    2    1     2.563
   -1    0    2     2.773
    0    0    2     1.956
    0    1    2     2.287
_platon_squeeze_void_probe_radius                  1.20
_platon_squeeze_details
)
TITL g160611d_a.res in P2(1)/c
CELL    9.6552   17.1959   20.8804     90.00     94.23     90.00
SPGR P21/c
# Solvent Accessible Volume =      1275
# Note: Atoms in Void as Cxxx and Qxxx all others
C101 0.883 0.795 0.034 !       8.04 eA-3
C102 0.874 0.174 0.469 !       7.03 eA-3
C103 0.720 0.496 0.250 !       5.92 eA-3
Q104 0.909 0.056 0.246 !       4.67 eA-3
C105 0.620 0.539 0.107 !       3.16 eA-3
C106 0.901 0.040 0.371 !       2.31 eA-3
C107 0.366 0.048 0.583 !       1.84 eA-3
Q108 0.587 0.178 0.433 !       1.74 eA-3
Q109 0.309 0.330 0.018 !       1.70 eA-3
C110 0.693 0.121 0.458 !       1.58 eA-3
C111 0.907 0.404 0.063 !       1.55 eA-3
C112 0.818 0.473 0.062 !       1.49 eA-3
C113 0.868 0.477 0.075 !       1.42 eA-3
C114 0.778 0.930 0.451 !       1.39 eA-3
C115 0.215 0.427 0.025 !       1.39 eA-3
C116 0.892 0.426 0.081 !       1.36 eA-3
Q117 0.346 0.287 0.019 !       1.35 eA-3
C118 0.930 0.116 0.547 !       1.31 eA-3
C119 0.341 0.987 0.632 !       1.24 eA-3
Q120 0.036 0.814 0.251 !       1.19 eA-3
Q121 0.680 0.438 0.273 !       1.05 eA-3
C122 0.306 0.958 0.467 !       1.03 eA-3
C123 0.306 0.520 0.970 !       1.03 eA-3
C124 0.726 0.027 0.586 !       1.03 eA-3
Q125 0.095 0.926 0.121 !       1.01 eA-3
Q126 0.173 0.211 0.267 !       0.99 eA-3
C127 0.189 0.535 0.873 !       0.99 eA-3
C128 0.969 0.525 0.126 !       0.98 eA-3
C129 0.124 0.043 0.407 !       0.96 eA-3
C130 0.844 0.518 0.125 !       0.96 eA-3
Q131 0.713 0.484 0.474 !       0.95 eA-3
C132 0.251 0.015 0.552 !       0.92 eA-3
C133 0.885 0.558 0.118 !       0.91 eA-3
Q134 0.015 0.525 0.435 !       0.90 eA-3
C135 0.116 0.886 0.544 !       0.89 eA-3
C136 0.884 0.395 0.950 !       0.89 eA-3
Q137 0.876 0.917 0.012 !       0.87 eA-3
Q138 0.016 0.025 0.092 !       0.86 eA-3
Q139 0.937 0.814 0.312 !       0.85 eA-3
Q140 1.002 0.317 0.221 !       0.85 eA-3
C141 0.092 0.987 0.667 !       0.85 eA-3
Q142 0.689 0.304 0.929 !       0.85 eA-3
Q143 0.381 0.418 0.373 !       0.84 eA-3
C144 0.095 0.928 0.470 !       0.84 eA-3
C145 0.259 0.928 0.469 !       0.83 eA-3
C146 0.849 0.525 0.062 !       0.83 eA-3
Q147 0.707 0.300 0.557 !       0.83 eA-3
Q148 0.293 0.700 0.443 !       0.83 eA-3
Q149 0.507 0.186 0.357 !       0.83 eA-3
Q150 0.787 0.890 0.522 !       0.81 eA-3
C151 0.774 0.523 0.145 !       0.80 eA-3
Q152 0.782 0.219 0.942 !       0.80 eA-3
Q153 0.905 0.455 0.628 !       0.80 eA-3
Q154 0.661 0.613 0.426 !       0.80 eA-3
Q155 0.341 0.044 0.063 !       0.79 eA-3
Q156 0.404 0.715 0.316 !       0.78 eA-3
Q157 0.657 0.508 0.481 !       0.78 eA-3
Q158 0.058 0.218 0.316 !       0.77 eA-3
C159 0.401 0.990 0.568 !       0.77 eA-3
C160 0.685 0.091 0.498 !       0.76 eA-3
C161 0.964 0.942 0.450 !       0.75 eA-3
Q162 0.718 0.611 0.407 !       0.75 eA-3
Q163 0.633 0.873 0.441 !       0.75 eA-3
Q164 0.032 0.027 0.827 !       0.75 eA-3
Q165 0.931 0.982 0.030 !       0.74 eA-3
C166 0.430 0.950 0.488 !       0.74 eA-3
Q167 0.090 0.481 0.497 !       0.73 eA-3
Q168 0.346 0.428 0.253 !       0.73 eA-3
Q169 0.906 0.955 0.158 !       0.73 eA-3
Q170 0.352 0.091 0.908 !       0.73 eA-3
C171 0.138 0.747 0.062 !       0.72 eA-3
C172 0.830 0.941 0.534 !       0.72 eA-3
Q173 0.848 0.374 0.280 !       0.71 eA-3
C174 0.841 0.997 0.653 !       0.71 eA-3
Q175 0.656 0.094 0.283 !       0.71 eA-3
Q176 0.115 0.317 0.157 !       0.70 eA-3
C177 0.208 0.456 0.942 !       0.70 eA-3
Q178 0.458 0.631 0.034 !       0.69 eA-3
Q179 0.602 0.598 0.575 !       0.68 eA-3
Q180 0.191 0.361 0.795 !       0.68 eA-3
Q181 0.189 0.593 0.872 !       0.68 eA-3
C182 0.221 0.546 0.072 !       0.68 eA-3
Q183 0.288 0.945 0.964 !       0.67 eA-3
Q184 0.623 0.883 0.222 !       0.67 eA-3
Q185 0.588 0.051 0.088 !       0.66 eA-3
C186 0.203 0.044 0.482 !       0.66 eA-3
Q187 0.412 0.542 0.400 !       0.66 eA-3
C188 0.531 0.457 0.051 !       0.66 eA-3
Q189 1.007 0.686 0.707 !       0.65 eA-3
Q190 0.254 0.028 0.042 !       0.65 eA-3
Q191 0.537 0.377 0.113 !       0.65 eA-3
Q192 0.370 0.714 0.890 !       0.64 eA-3
Q193 0.869 0.409 0.403 !       0.64 eA-3
Q194 0.379 0.952 0.062 !       0.64 eA-3
C195 0.304 0.744 0.573 !       0.62 eA-3
Q196 0.349 0.659 0.444 !       0.62 eA-3
C197 0.874 0.607 0.072 !       0.62 eA-3
C198 0.965 0.080 0.518 !       0.62 eA-3
Q199 0.498 0.217 0.345 !       0.62 eA-3
)
;
_shelx_shelxl_version_number     2014/7
_olex2_submission_special_instructions 'No special instructions were received'
loop_
_space_group_symop_operation_xyz
'x, y, z'
'-x, y+1/2, -z+1/2'
'-x, -y, -z'
'x, -y-1/2, z-1/2'
loop_
_atom_site_label
_atom_site_type_symbol
_atom_site_fract_x
_atom_site_fract_y
_atom_site_fract_z
_atom_site_U_iso_or_equiv
_atom_site_adp_type
_atom_site_occupancy
_atom_site_site_symmetry_order
_atom_site_calc_flag
_atom_site_refinement_flags_posn
Cu1 Cu 0.29918(6) 0.49341(4) 0.52393(3) 0.0150(2) Uani 1 1 d .
Cu2 Cu 0.00104(6) 0.52158(4) 0.42825(3) 0.0160(2) Uani 1 1 d .
O1 O 0.3127(4) 0.4043(2) 0.5816(2) 0.0240(9) Uani 1 1 d .
O2 O 0.1072(4) 0.4027(3) 0.62553(19) 0.0247(9) Uani 1 1 d .
O3 O 0.0498(5) 0.0626(3) 0.8334(2) 0.0349(11) Uani 1 1 d .
O4 O -0.1190(4) 0.0676(3) 0.8986(2) 0.0281(10) Uani 1 1 d .
O5 O 0.1230(4) 0.4598(2) 0.48512(18) 0.0159(8) Uani 1 1 d D
H5 H 0.132(7) 0.4111(13) 0.484(3) 0.028(19) Uiso 1 1 d D
N1 N 0.2778(5) 0.5902(3) 0.4681(2) 0.0198(10) Uani 1 1 d .
N2 N 0.1499(5) 0.6031(3) 0.4365(2) 0.0213(11) Uani 1 1 d .
N3 N 0.2845(5) 0.7015(3) 0.4188(2) 0.0241(11) Uani 1 1 d .
N4 N 0.5799(5) 0.9327(3) 0.0566(2) 0.0221(11) Uani 1 1 d .
N5 N 0.4557(5) 0.9601(3) 0.0778(2) 0.0187(10) Uani 1 1 d .
N6 N 0.5776(5) 0.9125(3) 0.1592(2) 0.0255(12) Uani 1 1 d .
C1 C 0.3559(6) 0.6505(4) 0.4569(3) 0.0234(13) Uani 1 1 d .
H1 H 0.4475 0.6569 0.4731 0.028 Uiso 1 1 calc R
C2 C 0.1566(6) 0.6708(4) 0.4081(3) 0.0258(13) Uani 1 1 d .
H2 H 0.0835 0.6943 0.3839 0.031 Uiso 1 1 calc R
C3 C 0.3321(7) 0.7751(4) 0.3925(3) 0.0293(14) Uani 1 1 d .
H3A H 0.4060 0.7961 0.4215 0.035 Uiso 1 1 calc R
H3B H 0.2559 0.8120 0.3903 0.035 Uiso 1 1 calc R
C4 C 0.3847(6) 0.7665(4) 0.3263(3) 0.0254(13) Uani 1 1 d .
C5 C 0.3518(7) 0.7044(4) 0.2857(3) 0.0338(15) Uani 1 1 d .
H5A H 0.2947 0.6649 0.2990 0.041 Uiso 1 1 calc R
C6 C 0.4029(8) 0.7006(5) 0.2257(4) 0.0415(18) Uani 1 1 d .
H6 H 0.3800 0.6588 0.1987 0.050 Uiso 1 1 calc R
C7 C 0.4885(7) 0.7593(4) 0.2057(3) 0.0371(16) Uani 1 1 d .
H7 H 0.5235 0.7564 0.1655 0.044 Uiso 1 1 calc R
C8 C 0.5219(6) 0.8219(4) 0.2454(3) 0.0294(15) Uani 1 1 d .
C9 C 0.4686(6) 0.8263(4) 0.3054(3) 0.0262(14) Uani 1 1 d .
H9 H 0.4889 0.8690 0.3317 0.031 Uiso 1 1 calc R
C10 C 0.6187(7) 0.8857(5) 0.2264(3) 0.0352(17) Uani 1 1 d .
H10A H 0.6147 0.9291 0.2559 0.042 Uiso 1 1 calc R
H10B H 0.7134 0.8665 0.2288 0.042 Uiso 1 1 calc R
C11 C 0.6492(6) 0.9053(4) 0.1070(3) 0.0269(14) Uani 1 1 d .
H11 H 0.7373 0.8833 0.1069 0.032 Uiso 1 1 calc R
C12 C 0.4577(6) 0.9469(4) 0.1393(3) 0.0279(14) Uani 1 1 d .
H12 H 0.3868 0.9595 0.1653 0.033 Uiso 1 1 calc R
C13 C 0.2262(6) 0.3767(4) 0.6178(3) 0.0252(13) Uani 1 1 d .
C14 C 0.2767(8) 0.3068(5) 0.6566(4) 0.051(2) Uani 1 1 d .
H14A H 0.3565 0.3223 0.6846 0.061 Uiso 1 1 calc R
H14B H 0.3079 0.2678 0.6273 0.061 Uiso 1 1 calc R
C15 C 0.1713(7) 0.2698(5) 0.6971(4) 0.044(2) Uani 1 1 d .
C16 C 0.1549(8) 0.2976(5) 0.7588(5) 0.055(2) Uani 1 1 d .
H16 H 0.2075 0.3396 0.7749 0.066 Uiso 1 1 calc R
C17 C 0.0598(9) 0.2625(5) 0.7960(4) 0.053(2) Uani 1 1 d .
H17 H 0.0517 0.2808 0.8374 0.064 Uiso 1 1 calc R
C18 C -0.0208(7) 0.2033(5) 0.7748(4) 0.043(2) Uani 1 1 d .
C19 C -0.0048(8) 0.1755(5) 0.7143(5) 0.057(3) Uani 1 1 d .
H19 H -0.0590 0.1338 0.6989 0.069 Uiso 1 1 calc R
C20 C 0.0913(8) 0.2084(5) 0.6751(4) 0.050(2) Uani 1 1 d .
H20 H 0.1006 0.1885 0.6342 0.060 Uiso 1 1 calc R
C21 C -0.1205(8) 0.1643(5) 0.8171(5) 0.059(3) Uani 1 1 d .
H21A H -0.2033 0.1490 0.7911 0.070 Uiso 1 1 calc R
H21B H -0.1478 0.2012 0.8490 0.070 Uiso 1 1 calc R
C22 C -0.0574(7) 0.0929(4) 0.8511(3) 0.0312(15) Uani 1 1 d .
Br1 Br 0.4043(3) 0.19710(13) 0.46669(11) 0.1614(10) Uani 1 1 d .
loop_
_atom_site_aniso_label
_atom_site_aniso_U_11
_atom_site_aniso_U_22
_atom_site_aniso_U_33
_atom_site_aniso_U_23
_atom_site_aniso_U_13
_atom_site_aniso_U_12
Cu1 0.0095(4) 0.0195(4) 0.0159(4) 0.0023(3) -0.0002(3) -0.0018(3)
Cu2 0.0104(4) 0.0218(4) 0.0157(4) 0.0017(3) 0.0010(3) 0.0005(3)
O1 0.0138(19) 0.029(2) 0.029(2) 0.0108(18) 0.0017(17) -0.0008(17)
O2 0.015(2) 0.035(2) 0.025(2) 0.0110(18) 0.0020(16) 0.0032(18)
O3 0.023(2) 0.046(3) 0.036(3) 0.014(2) 0.0024(19) 0.008(2)
O4 0.020(2) 0.037(3) 0.028(2) 0.007(2) 0.0032(18) -0.0037(19)
O5 0.0114(18) 0.017(2) 0.0193(19) -0.0017(16) 0.0010(15) -0.0014(16)
N1 0.012(2) 0.025(3) 0.021(2) 0.005(2) -0.0024(19) -0.004(2)
N2 0.013(2) 0.030(3) 0.020(2) 0.006(2) 0.0002(19) 0.002(2)
N3 0.021(3) 0.025(3) 0.027(3) 0.008(2) 0.005(2) -0.002(2)
N4 0.011(2) 0.033(3) 0.023(3) 0.005(2) 0.0072(19) 0.001(2)
N5 0.011(2) 0.025(3) 0.021(2) 0.001(2) 0.0029(18) 0.0007(19)
N6 0.016(2) 0.039(3) 0.021(3) 0.014(2) 0.000(2) -0.001(2)
C1 0.020(3) 0.027(3) 0.024(3) 0.006(2) 0.003(2) -0.003(2)
C2 0.020(3) 0.026(3) 0.031(3) 0.011(3) -0.001(2) -0.002(2)
C3 0.029(3) 0.026(3) 0.034(4) 0.007(3) 0.008(3) -0.006(3)
C4 0.019(3) 0.031(3) 0.026(3) 0.013(3) 0.000(2) 0.001(3)
C5 0.033(4) 0.030(4) 0.039(4) 0.006(3) 0.006(3) -0.006(3)
C6 0.045(4) 0.043(4) 0.036(4) -0.003(3) -0.001(3) -0.006(3)
C7 0.028(3) 0.050(4) 0.032(4) 0.012(3) 0.003(3) 0.002(3)
C8 0.023(3) 0.041(4) 0.024(3) 0.016(3) 0.001(3) 0.004(3)
C9 0.022(3) 0.030(3) 0.026(3) 0.014(3) -0.004(2) 0.001(3)
C10 0.024(3) 0.059(5) 0.022(3) 0.022(3) -0.002(3) -0.007(3)
C11 0.014(3) 0.040(4) 0.027(3) 0.011(3) 0.005(2) 0.004(3)
C12 0.018(3) 0.045(4) 0.021(3) 0.007(3) 0.004(2) 0.002(3)
C13 0.018(3) 0.028(3) 0.029(3) 0.007(3) 0.000(2) -0.001(3)
C14 0.028(4) 0.056(5) 0.070(5) 0.046(4) 0.016(4) 0.010(3)
C15 0.020(3) 0.052(5) 0.061(5) 0.040(4) 0.009(3) 0.010(3)
C16 0.040(4) 0.051(5) 0.073(6) 0.030(5) 0.008(4) 0.000(4)
C17 0.049(5) 0.055(5) 0.059(5) 0.025(4) 0.019(4) 0.014(4)
C18 0.023(3) 0.056(5) 0.049(5) 0.035(4) 0.006(3) 0.012(3)
C19 0.028(4) 0.060(5) 0.081(7) 0.042(5) -0.015(4) -0.006(4)
C20 0.039(4) 0.065(6) 0.046(5) 0.033(4) 0.000(3) 0.009(4)
C21 0.033(4) 0.065(6) 0.080(6) 0.047(5) 0.020(4) 0.018(4)
C22 0.022(3) 0.034(4) 0.037(4) 0.015(3) -0.002(3) -0.005(3)
Br1 0.214(2) 0.1205(15) 0.1397(17) -0.0238(12) -0.0516(16) 0.0298(15)
loop_
_atom_type_symbol
_atom_type_description
_atom_type_scat_dispersion_real
_atom_type_scat_dispersion_imag
_atom_type_scat_source
C C 0.0033 0.0016 'International Tables Vol C Tables 4.2.6.8 and 6.1.1.4'
H H 0.0000 0.0000 'International Tables Vol C Tables 4.2.6.8 and 6.1.1.4'
Br Br -0.2901 2.4595 'International Tables Vol C Tables 4.2.6.8 and 6.1.1.4'
Cu Cu 0.3201 1.2651 'International Tables Vol C Tables 4.2.6.8 and 6.1.1.4'
N N 0.0061 0.0033 'International Tables Vol C Tables 4.2.6.8 and 6.1.1.4'
O O 0.0106 0.0060 'International Tables Vol C Tables 4.2.6.8 and 6.1.1.4'
loop_
_geom_angle_atom_site_label_1
_geom_angle_atom_site_label_2
_geom_angle_atom_site_label_3
_geom_angle
_geom_angle_site_symmetry_1
_geom_angle_site_symmetry_3
O1 Cu1 N1 176.19(19) . .
O1 Cu1 N4 94.49(18) . 2_645
O1 Cu1 N5 87.32(19) . 4_576
O5 Cu1 O1 92.37(17) . .
O5 Cu1 N1 87.41(17) . .
O5 Cu1 N4 92.05(16) . 2_645
O5 Cu1 N5 167.23(18) . 4_576
N1 Cu1 N4 89.31(19) . 2_645
N5 Cu1 N1 92.05(19) 4_576 .
N5 Cu1 N4 100.70(18) 4_576 2_645
O2 Cu2 O4 93.41(18) 3_566 4_565
O2 Cu2 O5 94.17(15) 3_566 3_566
O2 Cu2 N2 86.21(18) 3_566 .
O4 Cu2 O5 91.55(15) 4_565 3_566
O4 Cu2 N2 163.92(18) 4_565 .
O5 Cu2 O2 171.86(17) . 3_566
O5 Cu2 O4 94.72(17) . 4_565
O5 Cu2 O5 85.45(15) . 3_566
O5 Cu2 N2 86.02(18) . .
N2 Cu2 O5 104.52(17) . 3_566
C13 O1 Cu1 130.6(4) . .
C13 O2 Cu2 128.0(4) . 3_566
C22 O4 Cu2 102.2(4) . 4_566
Cu1 O5 Cu2 125.2(2) . .
Cu1 O5 Cu2 97.17(16) . 3_566
Cu1 O5 H5 103(5) . .
Cu2 O5 Cu2 94.55(15) . 3_566
Cu2 O5 H5 103(5) 3_566 .
Cu2 O5 H5 126(5) . .
N2 N1 Cu1 117.2(3) . .
C1 N1 Cu1 135.5(4) . .
C1 N1 N2 107.1(5) . .
N1 N2 Cu2 122.8(4) . .
C2 N2 Cu2 129.8(4) . .
C2 N2 N1 106.7(5) . .
C1 N3 C2 105.6(5) . .
C1 N3 C3 128.7(5) . .
C2 N3 C3 125.7(5) . .
N5 N4 Cu1 124.1(4) . 2_655
C11 N4 Cu1 119.2(4) . 2_655
C11 N4 N5 105.8(5) . .
N4 N5 Cu1 126.5(4) . 4_575
C12 N5 Cu1 125.7(4) . 4_575
C12 N5 N4 107.7(5) . .
C11 N6 C10 128.0(5) . .
C12 N6 C10 126.1(5) . .
C12 N6 C11 105.9(5) . .
N1 C1 N3 110.2(5) . .
N1 C1 H1 124.9 . .
N3 C1 H1 124.9 . .
N2 C2 N3 110.3(5) . .
N2 C2 H2 124.8 . .
N3 C2 H2 124.8 . .
N3 C3 H3A 108.9 . .
N3 C3 H3B 108.9 . .
N3 C3 C4 113.2(5) . .
H3A C3 H3B 107.8 . .
C4 C3 H3A 108.9 . .
C4 C3 H3B 108.9 . .
C5 C4 C3 123.8(6) . .
C5 C4 C9 119.2(6) . .
C9 C4 C3 117.0(6) . .
C4 C5 H5A 119.6 . .
C6 C5 C4 120.7(6) . .
C6 C5 H5A 119.6 . .
C5 C6 H6 120.1 . .
C5 C6 C7 119.9(7) . .
C7 C6 H6 120.1 . .
C6 C7 H7 119.9 . .
C8 C7 C6 120.3(7) . .
C8 C7 H7 119.9 . .
C7 C8 C9 119.8(6) . .
C7 C8 C10 121.9(6) . .
C9 C8 C10 118.3(6) . .
C4 C9 H9 119.9 . .
C8 C9 C4 120.1(6) . .
C8 C9 H9 119.9 . .
N6 C10 C8 110.0(5) . .
N6 C10 H10A 109.7 . .
N6 C10 H10B 109.7 . .
C8 C10 H10A 109.7 . .
C8 C10 H10B 109.7 . .
H10A C10 H10B 108.2 . .
N4 C11 N6 111.2(5) . .
N4 C11 H11 124.4 . .
N6 C11 H11 124.4 . .
N5 C12 N6 109.4(5) . .
N5 C12 H12 125.3 . .
N6 C12 H12 125.3 . .
O1 C13 C14 114.8(5) . .
O2 C13 O1 126.6(6) . .
O2 C13 C14 118.6(5) . .
C13 C14 H14A 108.4 . .
C13 C14 H14B 108.4 . .
C13 C14 C15 115.6(6) . .
H14A C14 H14B 107.4 . .
C15 C14 H14A 108.4 . .
C15 C14 H14B 108.4 . .
C16 C15 C14 120.0(8) . .
C20 C15 C14 121.6(9) . .
C20 C15 C16 118.4(7) . .
C15 C16 H16 120.2 . .
C17 C16 C15 119.5(9) . .
C17 C16 H16 120.2 . .
C16 C17 H17 118.6 . .
C18 C17 C16 122.8(9) . .
C18 C17 H17 118.6 . .
C17 C18 C19 117.9(7) . .
C17 C18 C21 121.7(9) . .
C19 C18 C21 120.3(9) . .
C18 C19 H19 119.2 . .
C18 C19 C20 121.5(9) . .
C20 C19 H19 119.2 . .
C15 C20 C19 119.8(9) . .
C15 C20 H20 120.1 . .
C19 C20 H20 120.1 . .
C18 C21 H21A 109.1 . .
C18 C21 H21B 109.1 . .
C18 C21 C22 112.4(6) . .
H21A C21 H21B 107.9 . .
C22 C21 H21A 109.1 . .
C22 C21 H21B 109.1 . .
O3 C22 O4 122.6(6) . .
O3 C22 C21 120.9(6) . .
O4 C22 C21 116.5(6) . .
loop_
_geom_bond_atom_site_label_1
_geom_bond_atom_site_label_2
_geom_bond_distance
_geom_bond_site_symmetry_2
Cu1 O1 1.947(4) .
Cu1 O5 1.918(4) .
Cu1 N1 2.034(5) .
Cu1 N4 2.360(5) 2_645
Cu1 N5 1.984(5) 4_576
Cu2 O2 1.968(4) 3_566
Cu2 O4 1.993(4) 4_565
Cu2 O5 2.264(4) 3_566
Cu2 O5 1.928(4) .
Cu2 N2 2.006(5) .
O1 C13 1.261(7) .
O2 Cu2 1.968(4) 3_566
O2 C13 1.255(7) .
O3 C22 1.238(8) .
O4 Cu2 1.993(4) 4_566
O4 C22 1.270(8) .
O5 Cu2 2.264(4) 3_566
O5 H5 0.84(2) .
N1 N2 1.374(6) .
N1 C1 1.313(8) .
N2 C2 1.311(8) .
N3 C1 1.340(8) .
N3 C2 1.346(8) .
N3 C3 1.467(8) .
N4 Cu1 2.360(5) 2_655
N4 N5 1.390(6) .
N4 C11 1.293(8) .
N5 Cu1 1.984(5) 4_575
N5 C12 1.303(8) .
N6 C10 1.501(7) .
N6 C11 1.340(8) .
N6 C12 1.339(8) .
C1 H1 0.9300 .
C2 H2 0.9300 .
C3 H3A 0.9700 .
C3 H3B 0.9700 .
C3 C4 1.515(9) .
C4 C5 1.385(9) .
C4 C9 1.398(9) .
C5 H5A 0.9300 .
C5 C6 1.381(10) .
C6 H6 0.9300 .
C6 C7 1.387(10) .
C7 H7 0.9300 .
C7 C8 1.383(10) .
C8 C9 1.391(9) .
C8 C10 1.514(9) .
C9 H9 0.9300 .
C10 H10A 0.9700 .
C10 H10B 0.9700 .
C11 H11 0.9300 .
C12 H12 0.9300 .
C13 C14 1.509(9) .
C14 H14A 0.9700 .
C14 H14B 0.9700 .
C14 C15 1.512(9) .
C15 C16 1.394(13) .
C15 C20 1.368(12) .
C16 H16 0.9300 .
C16 C17 1.385(11) .
C17 H17 0.9300 .
C17 C18 1.337(13) .
C18 C19 1.370(13) .
C18 C21 1.510(10) .
C19 H19 0.9300 .
C19 C20 1.401(11) .
C20 H20 0.9300 .
C21 H21A 0.9700 .
C21 H21B 0.9700 .
C21 C22 1.522(9) .
loop_
_geom_hbond_atom_site_label_D
_geom_hbond_atom_site_label_H
_geom_hbond_atom_site_label_A
_geom_hbond_distance_DH
_geom_hbond_distance_HA
_geom_hbond_distance_DA
_geom_hbond_angle_DHA
_geom_hbond_site_symmetry_A
C1 H1 N4 0.93 2.59 3.224(8) 125.6 4_576
C1 H1 Br1 0.93 3.11 3.772(7) 129.8 3_666
C3 H3A Br1 0.97 2.86 3.774(7) 157.0 3_666
C11 H11 O3 0.93 2.50 3.125(8) 124.5 3_666
loop_
_geom_torsion_atom_site_label_1
_geom_torsion_atom_site_label_2
_geom_torsion_atom_site_label_3
_geom_torsion_atom_site_label_4
_geom_torsion
_geom_torsion_site_symmetry_1
_geom_torsion_site_symmetry_4
Cu1 O1 C13 O2 -1.0(10) . .
Cu1 O1 C13 C14 -179.0(5) . .
Cu1 N1 N2 Cu2 -13.3(6) . .
Cu1 N1 N2 C2 175.0(4) . .
Cu1 N1 C1 N3 -174.9(4) . .
Cu1 N4 N5 Cu1 38.7(6) 2_655 4_575
Cu1 N4 N5 C12 -143.8(4) 2_655 .
Cu1 N4 C11 N6 146.0(4) 2_655 .
Cu1 N5 C12 N6 177.7(4) 4_575 .
Cu2 O2 C13 O1 14.9(10) 3_566 .
Cu2 O2 C13 C14 -167.1(5) 3_566 .
Cu2 O4 C22 O3 0.4(8) 4_566 .
Cu2 O4 C22 C21 -178.4(6) 4_566 .
Cu2 N2 C2 N3 -169.6(4) . .
O1 C13 C14 C15 -176.3(7) . .
O2 C13 C14 C15 5.6(11) . .
N1 N2 C2 N3 1.3(7) . .
N2 N1 C1 N3 -0.7(7) . .
N3 C3 C4 C5 19.9(9) . .
N3 C3 C4 C9 -161.6(5) . .
N4 N5 C12 N6 0.2(7) . .
N5 N4 C11 N6 0.5(7) . .
C1 N1 N2 Cu2 171.3(4) . .
C1 N1 N2 C2 -0.4(6) . .
C1 N3 C2 N2 -1.8(7) . .
C1 N3 C3 C4 93.2(7) . .
C2 N3 C1 N1 1.5(7) . .
C2 N3 C3 C4 -85.8(7) . .
C3 N3 C1 N1 -177.6(6) . .
C3 N3 C2 N2 177.4(5) . .
C3 C4 C5 C6 179.6(6) . .
C3 C4 C9 C8 179.3(5) . .
C4 C5 C6 C7 0.2(11) . .
C5 C4 C9 C8 -2.1(9) . .
C5 C6 C7 C8 -0.6(11) . .
C6 C7 C8 C9 -0.4(10) . .
C6 C7 C8 C10 177.9(6) . .
C7 C8 C9 C4 1.8(9) . .
C7 C8 C10 N6 47.8(9) . .
C9 C4 C5 C6 1.1(10) . .
C9 C8 C10 N6 -133.8(6) . .
C10 N6 C11 N4 177.8(6) . .
C10 N6 C12 N5 -178.1(6) . .
C10 C8 C9 C4 -176.6(5) . .
C11 N4 N5 Cu1 -177.9(4) . 4_575
C11 N4 N5 C12 -0.4(7) . .
C11 N6 C10 C8 -114.0(7) . .
C11 N6 C12 N5 0.1(7) . .
C12 N6 C10 C8 63.8(9) . .
C12 N6 C11 N4 -0.4(8) . .
C13 C14 C15 C16 -86.4(9) . .
C13 C14 C15 C20 94.2(9) . .
C14 C15 C16 C17 -178.9(7) . .
C14 C15 C20 C19 179.7(6) . .
C15 C16 C17 C18 -1.6(12) . .
C16 C15 C20 C19 0.4(10) . .
C16 C17 C18 C19 1.8(12) . .
C16 C17 C18 C21 178.0(7) . .
C17 C18 C19 C20 -0.9(11) . .
C17 C18 C21 C22 -94.1(10) . .
C18 C19 C20 C15 -0.2(11) . .
C18 C21 C22 O3 -15.2(12) . .
C18 C21 C22 O4 163.6(7) . .
C19 C18 C21 C22 82.0(10) . .
C20 C15 C16 C17 0.5(11) . .
C21 C18 C19 C20 -177.2(7) . .
